data_mof_unit_45056.cif
_audit_creation_date              2012-12-10T19:53:26-0500
_audit_creation_method            fapswitch 2.2
_symmetry_space_group_name_H-M    P1
_symmetry_Int_Tables_number       1
_space_group_crystal_system       triclinic
_cell_length_a                    18.60922
_cell_length_b                    18.383145
_cell_length_c                    43.040102
_cell_angle_alpha                 90.063279
_cell_angle_beta                  90.555325
_cell_angle_gamma                 90.275722
_cell_volume                      14722.9744821

loop_
_atom_site_label
_atom_site_type_symbol
_atom_type_description
_atom_site_fract_x
_atom_site_fract_y
_atom_site_fract_z
_atom_type_partial_charge
C1    C     C_R   0.999496 0.500735 0.915968 1.006541
C2    C     C_R   0.499532 0.999925 0.915829 1.023934
C3    C     C_R   0.499704 0.998043 0.415149 0.988376
C4    C     C_R   0.999891 0.499976 0.415258 1.013771
C5    C     C_R   0.984391 0.496860 0.184058 -0.056445
C6    C     C_R   0.524346 0.988303 0.183735 -0.060507
C7    C     C_R   0.496654 0.997886 0.685094 -0.080528
C8    C     C_R   0.992516 0.521013 0.685004 -0.055207
C9    C     C_R   0.995636 0.500235 0.118786 -0.272784
C10   C     C_R   0.503988 0.997787 0.118546 -0.262281
C11   C     C_R   0.499304 0.999716 0.619217 -0.288978
C12   C     C_R   0.000142 0.496051 0.619680 -0.257788
C13   C     C_R   0.494960 0.998093 0.782059 0.509958
C14   C     C_R   0.994628 0.525431 0.782473 0.511018
C15   C     C_R   0.984155 0.497875 0.280633 0.474185
C16   C     C_R   0.539939 0.982261 0.280981 0.486423
C17   C     C_R   0.982039 0.497169 0.217931 0.334952
C18   C     C_R   0.533273 0.985714 0.217928 0.350695
C19   C     C_R   0.495834 0.997428 0.719217 0.355479
C20   C     C_R   0.991856 0.526620 0.719409 0.369125
C21   C     C_R   0.531815 0.055217 0.832178 0.299116
C22   C     C_R   0.009244 0.584244 0.834967 0.317495
C23   C     C_R   0.458859 0.943354 0.832578 0.292197
C24   C     C_R   0.987799 0.452410 0.830713 0.297356
C25   C     C_R   0.952191 0.550605 0.332322 0.315234
C26   C     C_R   0.455363 0.992276 0.325277 0.288170
C27   C     C_R   0.030607 0.447020 0.330744 0.312410
C28   C     C_R   0.579182 0.964017 0.336786 0.314920
C29   C     C_R   0.541500 0.049315 0.864687 0.191622
C30   C     C_R   0.017573 0.576399 0.867812 0.191074
C31   C     C_R   0.452115 0.949845 0.865208 0.229672
C32   C     C_R   0.976285 0.448742 0.863055 0.232741
C33   C     C_R   0.978572 0.562672 0.362487 0.277415
C34   C     C_R   0.446205 0.007198 0.357466 0.221492
C35   C     C_R   0.014770 0.436693 0.362106 0.317090
C36   C     C_R   0.556502 0.944834 0.366776 0.334090
C37   C     C_R   0.497694 0.999690 0.881443 -0.366901
C38   C     C_R   0.997886 0.508787 0.881832 -0.337539
C39   C     C_R   0.998435 0.499895 0.379923 -0.353543
C40   C     C_R   0.501104 0.987124 0.379590 -0.373018
C41   C     C_R   0.494873 0.999034 0.816175 -0.306702
C42   C     C_R   0.997035 0.521123 0.816617 -0.311302
C43   C     C_R   0.988407 0.498104 0.314553 -0.355536
C44   C     C_R   0.525564 0.979843 0.314615 -0.269269
C45   C     C_R   0.999346 0.500136 0.084273 0.903774
C46   C     C_R   0.500645 0.999699 0.084083 0.948257
C47   C     C_R   0.499912 0.999996 0.584409 0.908084
C48   C     C_R   0.000342 0.497381 0.584483 0.867640
C49   C     C_R   0.861805 0.642215 0.998990 0.965013
C50   C     C_R   0.359742 0.860187 0.999556 0.964331
C51   C     C_R   0.138856 0.358274 0.999835 0.946883
C52   C     C_R   0.639526 0.140249 0.999860 0.991214
C53   C     C_R   0.141659 0.638179 0.001510 0.951950
C54   C     C_R   0.639573 0.859335 0.000012 0.988938
C55   C     C_R   0.860521 0.359015 0.999888 0.950052
C56   C     C_R   0.360882 0.140573 0.999846 0.984268
C57   C     C_R   0.361133 0.141877 0.499568 0.948415
C58   C     C_R   0.858418 0.361444 0.499015 0.923987
C59   C     C_R   0.638585 0.858053 0.499526 0.938024
C60   C     C_R   0.139340 0.641356 0.500771 0.938687
C61   C     C_R   0.641087 0.138411 0.501143 0.911557
C62   C     C_R   0.138935 0.359013 0.500669 0.948145
C63   C     C_R   0.359689 0.860951 0.500344 0.981931
C64   C     C_R   0.861827 0.641468 0.500806 0.952396
C65   C     C_R   0.264341 0.680454 0.988205 -0.076701
C66   C     C_R   0.289514 0.237801 0.973433 -0.129045
C67   C     C_R   0.734753 0.319034 0.993946 -0.076173
C68   C     C_R   0.704745 0.758121 0.973311 -0.093819
C69   C     C_R   0.758799 0.705547 0.973090 -0.041214
C70   C     C_R   0.681350 0.267335 0.993459 -0.090928
C71   C     C_R   0.234036 0.288239 0.973299 -0.068028
C72   C     C_R   0.316486 0.734480 0.987020 -0.089228
C73   C     C_R   0.758247 0.187168 0.483937 -0.115558
C74   C     C_R   0.795035 0.741575 0.475415 -0.108554
C75   C     C_R   0.267237 0.786358 0.475395 -0.070479
C76   C     C_R   0.207649 0.263345 0.474446 -0.099678
C77   C     C_R   0.260532 0.210085 0.474126 -0.055261
C78   C     C_R   0.211778 0.737462 0.475744 -0.059991
C79   C     C_R   0.739505 0.791871 0.474251 -0.009225
C80   C     C_R   0.809091 0.241427 0.482711 -0.068970
C81   C     C_R   0.200165 0.691698 0.004232 -0.218469
C82   C     C_R   0.309193 0.200056 0.000492 -0.207894
C83   C     C_R   0.806550 0.300411 0.999294 -0.195851
C84   C     C_R   0.694281 0.802156 0.999879 -0.212078
C85   C     C_R   0.809182 0.701933 0.997544 -0.243125
C86   C     C_R   0.697102 0.193488 0.997128 -0.180754
C87   C     C_R   0.192468 0.298996 0.999995 -0.211520
C88   C     C_R   0.303232 0.804448 0.999023 -0.182627
C89   C     C_R   0.699082 0.191547 0.503482 -0.199477
C90   C     C_R   0.807765 0.698938 0.501668 -0.212261
C91   C     C_R   0.300335 0.810275 0.502452 -0.208898
C92   C     C_R   0.194319 0.302991 0.501303 -0.214928
C93   C     C_R   0.309262 0.202695 0.498801 -0.247585
C94   C     C_R   0.192710 0.700958 0.502874 -0.222937
C95   C     C_R   0.691093 0.797657 0.498895 -0.234681
C96   C     C_R   0.800218 0.307053 0.498581 -0.198984
C97   C     C_R   0.190931 0.758455 0.020188 0.336531
C98   C     C_R   0.275635 0.219588 0.028394 0.323286
C99   C     C_R   0.824548 0.224690 0.001667 0.312741
C100  C     C_R   0.741436 0.793300 0.025546 0.338757
C101  C     C_R   0.805667 0.755099 0.021311 0.330076
C102  C     C_R   0.769832 0.171659 0.996522 0.299704
C103  C     C_R   0.209436 0.256511 0.027024 0.317345
C104  C     C_R   0.235187 0.817899 0.012566 0.326849
C105  C     C_R   0.695892 0.252247 0.523989 0.331938
C106  C     C_R   0.761790 0.708029 0.527389 0.342720
C107  C     C_R   0.271348 0.788058 0.531176 0.329187
C108  C     C_R   0.241175 0.293244 0.527051 0.331821
C109  C     C_R   0.305592 0.254711 0.523028 0.330367
C110  C     C_R   0.224051 0.726527 0.531629 0.319646
C111  C     C_R   0.696580 0.745794 0.523225 0.325227
C112  C     C_R   0.738313 0.314396 0.517567 0.318147
C113  C     C_3   0.378168 0.681703 0.990778 0.419673
C114  C     C_3   0.210856 0.264929 0.940812 0.424357
C115  C     C_3   0.624656 0.317899 0.005639 0.418687
C116  C     C_3   0.772668 0.714414 0.938761 0.414761
C117  C     C_3   0.716174 0.778042 0.939461 0.408467
C118  C     C_3   0.686687 0.377468 0.006901 0.426451
C119  C     C_3   0.280855 0.216765 0.939891 0.471369
C120  C     C_3   0.318577 0.619829 0.991240 0.454765
C121  C     C_3   0.826599 0.221739 0.449674 0.401928
C122  C     C_3   0.724165 0.770962 0.440751 0.356422
C123  C     C_3   0.222383 0.717250 0.442337 0.392888
C124  C     C_3   0.276119 0.223331 0.440572 0.383576
C125  C     C_3   0.223490 0.289885 0.442130 0.433386
C126  C     C_3   0.292859 0.765221 0.443744 0.346906
C127  C     C_3   0.794291 0.723884 0.441452 0.422208
C128  C     C_3   0.782745 0.149457 0.454899 0.443458
C129  C     C_R   0.960371 0.557438 0.135102 0.380792
C130  C     C_R   0.477631 0.936797 0.135148 0.380600
C131  C     C_R   0.026048 0.442084 0.136356 0.325429
C132  C     C_R   0.540746 0.053622 0.135127 0.352985
C133  C     C_R   0.461475 0.054031 0.636200 0.380516
C134  C     C_R   0.935352 0.482316 0.636391 0.392312
C135  C     C_R   0.536021 0.944606 0.636466 0.384452
C136  C     C_R   0.063210 0.511771 0.637816 0.337713
C137  C     C_R   0.956656 0.555254 0.167430 -0.166340
C138  C     C_R   0.488441 0.932584 0.167499 -0.157052
C139  C     C_R   0.017908 0.440228 0.168526 -0.199075
C140  C     C_R   0.549620 0.048608 0.167354 -0.189962
C141  C     C_R   0.460093 0.051578 0.668683 -0.172006
C142  C     C_R   0.932103 0.497000 0.668372 -0.174798
C143  C     C_R   0.534653 0.945163 0.668971 -0.167836
C144  C     C_R   0.057125 0.529287 0.669290 -0.195900
H1    H     H_    0.931383 0.599206 0.179947 0.225804
H2    H     H_    0.468200 0.886139 0.180196 0.227186
H3    H     H_    0.040439 0.395735 0.181834 0.215388
H4    H     H_    0.577656 0.091505 0.179821 0.199624
H5    H     H_    0.432000 0.093165 0.681527 0.225298
H6    H     H_    0.882631 0.486612 0.680659 0.221962
H7    H     H_    0.562027 0.903065 0.681999 0.224140
H8    H     H_    0.105022 0.543098 0.682458 0.204672
N1    N     N_R   0.975413 0.434062 0.233948 -0.111234
N2    N     N_R   0.539754 0.921406 0.233235 -0.111565
N3    N     N_R   0.989264 0.560620 0.233759 -0.118028
N4    N     N_R   0.532349 0.048227 0.234765 -0.117669
N5    N     N_R   0.435753 0.016778 0.734790 -0.113774
N6    N     N_R   0.931133 0.512663 0.735691 -0.125323
N7    N     N_R   0.555419 0.978313 0.735650 -0.114953
N8    N     N_R   0.053822 0.540139 0.735444 -0.121145
N9    N     N_R   0.435161 0.016664 0.765711 -0.076987
N10   N     N_R   0.932483 0.512112 0.766651 -0.093502
N11   N     N_R   0.555136 0.979062 0.766564 -0.087124
N12   N     N_R   0.055321 0.539462 0.766348 -0.067683
N13   N     N_R   0.976037 0.434477 0.264824 -0.066056
N14   N     N_R   0.543098 0.919724 0.264209 -0.049938
N15   N     N_R   0.990673 0.560916 0.264609 -0.066722
N16   N     N_R   0.534780 0.046485 0.265675 -0.101220
O1    O     O_3   0.000000 0.500000 0.999980 -0.610186
O2    O     O_3   0.500000 0.000000 0.999980 -0.612563
O3    O     O_3   0.500000 1.000000 0.499980 -0.609853
O4    O     O_3   0.000000 0.500000 0.499980 -0.610336
O5    O     O_R   0.060770 0.500000 0.930670 -0.581301
O6    O     O_R   0.500000 0.060770 0.930670 -0.579478
O7    O     O_R   0.939230 0.500000 0.930670 -0.563048
O8    O     O_R   0.500000 0.939230 0.930670 -0.558764
O9    O     O_R   0.560770 0.000000 0.430670 -0.569731
O10   O     O_R   0.000000 0.560770 0.430670 -0.544063
O11   O     O_R   0.439230 0.000000 0.430670 -0.536113
O12   O     O_R   0.000000 0.439230 0.430670 -0.554226
O13   O     O_R   0.000000 0.560690 0.069300 -0.571107
O14   O     O_R   0.439310 0.000000 0.069300 -0.574072
O15   O     O_R   0.000000 0.439310 0.069300 -0.578129
O16   O     O_R   0.560690 0.000000 0.069300 -0.587322
O17   O     O_R   0.500000 0.060690 0.569300 -0.570651
O18   O     O_R   0.939310 0.500000 0.569300 -0.571908
O19   O     O_R   0.500000 0.939310 0.569300 -0.569734
O20   O     O_R   0.060690 0.500000 0.569300 -0.566024
O21   O     O_R   0.853850 0.585430 0.981810 -0.555316
O22   O     O_R   0.414570 0.853850 0.981810 -0.580255
O23   O     O_R   0.146150 0.414570 0.981810 -0.559809
O24   O     O_R   0.585430 0.146150 0.981810 -0.576658
O25   O     O_R   0.146150 0.585430 0.981810 -0.568066
O26   O     O_R   0.585430 0.853850 0.981810 -0.571818
O27   O     O_R   0.853850 0.414570 0.981810 -0.575250
O28   O     O_R   0.414570 0.146150 0.981810 -0.558497
O29   O     O_R   0.353850 0.085430 0.481810 -0.580431
O30   O     O_R   0.914570 0.353850 0.481810 -0.585586
O31   O     O_R   0.646150 0.914570 0.481810 -0.569298
O32   O     O_R   0.085430 0.646150 0.481810 -0.590940
O33   O     O_R   0.646150 0.085430 0.481810 -0.585547
O34   O     O_R   0.085430 0.353850 0.481810 -0.592489
O35   O     O_R   0.353850 0.914570 0.481810 -0.594413
O36   O     O_R   0.914570 0.646150 0.481810 -0.596187
O37   O     O_R   0.085450 0.353830 0.018160 -0.573432
O38   O     O_R   0.646170 0.085450 0.018160 -0.581129
O39   O     O_R   0.914550 0.646170 0.018160 -0.578984
O40   O     O_R   0.353830 0.914550 0.018160 -0.577936
O41   O     O_R   0.914550 0.353830 0.018160 -0.574378
O42   O     O_R   0.353830 0.085450 0.018160 -0.578851
O43   O     O_R   0.085450 0.646170 0.018160 -0.585874
O44   O     O_R   0.646170 0.914550 0.018160 -0.577619
O45   O     O_R   0.585450 0.853830 0.518160 -0.579864
O46   O     O_R   0.146170 0.585450 0.518160 -0.557778
O47   O     O_R   0.414550 0.146170 0.518160 -0.576310
O48   O     O_R   0.853830 0.414550 0.518160 -0.581263
O49   O     O_R   0.414550 0.853830 0.518160 -0.577625
O50   O     O_R   0.853830 0.585450 0.518160 -0.564093
O51   O     O_R   0.585450 0.146170 0.518160 -0.581194
O52   O     O_R   0.146170 0.414550 0.518160 -0.571973
Zn1   Zn    Zn3+2 1.000000 0.586730 0.025950 1.194239
Zn2   Zn    Zn3+2 0.413270 0.000000 0.025950 1.204308
Zn3   Zn    Zn3+2 1.000000 0.413270 0.025950 1.190127
Zn4   Zn    Zn3+2 0.586730 0.000000 0.025950 1.203537
Zn5   Zn    Zn3+2 0.500000 0.086730 0.525950 1.176138
Zn6   Zn    Zn3+2 0.913270 0.500000 0.525950 1.170492
Zn7   Zn    Zn3+2 0.500000 0.913270 0.525950 1.182722
Zn8   Zn    Zn3+2 0.086730 0.500000 0.525950 1.184944
Zn9   Zn    Zn3+2 0.913260 0.500000 0.974020 1.203383
Zn10  Zn    Zn3+2 0.500000 0.913260 0.974020 1.211960
Zn11  Zn    Zn3+2 0.086740 0.500000 0.974020 1.179061
Zn12  Zn    Zn3+2 0.500000 0.086740 0.974020 1.209793
Zn13  Zn    Zn3+2 0.413260 0.000000 0.474020 1.193538
Zn14  Zn    Zn3+2 0.000000 0.413260 0.474020 1.184637
Zn15  Zn    Zn3+2 0.586740 0.000000 0.474020 1.176332
Zn16  Zn    Zn3+2 0.000000 0.586740 0.474020 1.180915
S1    S     S_3+6 0.143697 0.761582 0.056007 0.157226
O53   O     O_2   0.066471 0.780607 0.050116 -0.166593
O54   O     O_2   0.147586 0.688839 0.071872 -0.237921
O55   O     O_3   0.180652 0.824056 0.079898 -0.456768
H9    H     H_    0.149606 0.824268 0.098461 0.401094
S2    S     S_3+6 0.317482 0.201959 0.065037 0.130916
O56   O     O_2   0.290977 0.131029 0.078053 -0.191259
O57   O     O_2   0.397429 0.198192 0.061295 -0.249682
O58   O     O_3   0.299173 0.269651 0.089997 -0.459704
H10   H     H_    0.322012 0.254871 0.109877 0.409018
S3    S     S_3+6 0.910628 0.197482 0.016095 0.162683
O59   O     O_2   0.966983 0.224539 0.994122 -0.205567
O60   O     O_2   0.921488 0.231977 0.047489 -0.196767
O61   O     O_3   0.921301 0.107546 0.021068 -0.441955
H11   H     H_    0.972295 0.101569 0.027339 0.398960
S4    S     S_3+6 0.719031 0.822733 0.063654 0.126256
O62   O     O_2   0.739448 0.901304 0.068066 -0.186016
O63   O     O_2   0.639561 0.813933 0.068502 -0.256541
O64   O     O_3   0.762999 0.772050 0.090110 -0.481816
H12   H     H_    0.748229 0.791755 0.110490 0.394936
S5    S     S_3+6 0.885452 0.797188 0.035562 0.171498
O65   O     O_2   0.906278 0.764230 0.066125 -0.167179
O66   O     O_2   0.945233 0.787442 0.012723 -0.204197
O67   O     O_3   0.872351 0.886881 0.040451 -0.447036
H13   H     H_    0.919332 0.906250 0.047750 0.402355
S6    S     S_3+6 0.790865 0.081602 0.984329 0.159807
O68   O     O_2   0.796956 0.032679 0.012189 -0.173543
O69   O     O_2   0.732395 0.053154 0.963312 -0.244288
O70   O     O_3   0.868146 0.081105 0.964351 -0.426226
H14   H     H_    0.877175 0.029167 0.959728 0.429191
S7    S     S_3+6 0.143518 0.220610 0.052681 0.168612
O71   O     O_2   0.155551 0.250429 0.084730 -0.135480
O72   O     O_2   0.067800 0.234596 0.042564 -0.180961
O73   O     O_3   0.153709 0.129774 0.053978 -0.484337
H15   H     H_    0.119628 0.112817 0.069988 0.398486
S8    S     S_3+6 0.199602 0.907404 0.015962 0.147085
O74   O     O_2   0.225165 0.942321 0.045703 -0.172435
O75   O     O_2   0.224221 0.952470 0.988952 -0.234694
O76   O     O_3   0.109264 0.904540 0.015546 -0.464850
H16   H     H_    0.094120 0.955696 0.018356 0.401875
S9    S     S_3+6 0.651506 0.246735 0.560477 0.137045
O77   O     O_2   0.573565 0.265958 0.556608 -0.153162
O78   O     O_2   0.657277 0.170671 0.573046 -0.278861
O79   O     O_3   0.689973 0.304028 0.586240 -0.486803
H17   H     H_    0.660123 0.300222 0.605103 0.393555
S10   S     S_3+6 0.786479 0.678087 0.565218 0.118502
O80   O     O_2   0.760894 0.601339 0.569728 -0.154013
O81   O     O_2   0.866781 0.681091 0.569285 -0.312474
O82   O     O_3   0.748845 0.731968 0.592054 -0.490967
H18   H     H_    0.761214 0.709266 0.612257 0.392092
S11   S     S_3+6 0.286652 0.843334 0.564698 0.109851
O83   O     O_2   0.351090 0.815652 0.582302 -0.193435
O84   O     O_2   0.300358 0.920962 0.555397 -0.335517
O85   O     O_3   0.213878 0.841935 0.587589 -0.458205
H19   H     H_    0.228247 0.869927 0.606340 0.401591
S12   S     S_3+6 0.218138 0.322496 0.564720 0.147410
O86   O     O_2   0.239851 0.400767 0.568741 -0.135681
O87   O     O_2   0.138312 0.314686 0.568778 -0.280004
O88   O     O_3   0.260444 0.271452 0.591556 -0.483868
H20   H     H_    0.249143 0.294513 0.611719 0.410760
S13   S     S_3+6 0.385320 0.295576 0.538161 0.177020
O89   O     O_2   0.403519 0.262184 0.568915 -0.171730
O90   O     O_2   0.446788 0.285448 0.516188 -0.193500
O91   O     O_3   0.373144 0.385401 0.543048 -0.446065
H21   H     H_    0.418832 0.403469 0.552271 0.402298
S14   S     S_3+6 0.216568 0.673016 0.565895 0.137311
O92   O     O_2   0.138355 0.661730 0.573009 -0.295477
O93   O     O_2   0.251240 0.601226 0.558911 -0.181656
O94   O     O_3   0.257911 0.706787 0.597662 -0.438809
H22   H     H_    0.249220 0.670391 0.614178 0.386089
S15   S     S_3+6 0.618232 0.704739 0.539068 0.171385
O95   O     O_2   0.605300 0.735052 0.570814 -0.185741
O96   O     O_2   0.553295 0.717193 0.518742 -0.185421
O97   O     O_3   0.630228 0.614382 0.541882 -0.462383
H23   H     H_    0.587091 0.596004 0.552719 0.393398
S16   S     S_3+6 0.701652 0.401773 0.525758 0.168347
O98   O     O_2   0.733163 0.430714 0.555559 -0.156504
O99   O     O_2   0.718745 0.453474 0.499781 -0.206117
O100  O     O_3   0.611815 0.396596 0.529001 -0.457342
H24   H     H_    0.596642 0.446279 0.534875 0.399298
S17   S     S_3+6 0.438838 0.682793 0.957904 0.186964
O101  O     O_2   0.399271 0.680814 0.927376 -0.140326
O102  O     O_2   0.484525 0.750072 0.958115 -0.181008
O103  O     O_3   0.494583 0.611387 0.960309 -0.443930
H25   H     H_    0.529975 0.624652 0.976718 0.403603
S18   S     S_3+6 0.124046 0.218286 0.942671 0.157147
O104  O     O_2   0.120359 0.168643 0.970319 -0.190721
O105  O     O_2   0.065096 0.273089 0.946221 -0.248503
O106  O     O_3   0.107776 0.169897 0.910187 -0.400391
H26   H     H_    0.096530 0.206440 0.893994 0.411240
S19   S     S_3+6 0.551890 0.329830 0.977473 0.160680
O107  O     O_2   0.579359 0.347369 0.945668 -0.170543
O108  O     O_2   0.507814 0.261717 0.974572 -0.195123
O109  O     O_3   0.496529 0.396136 0.989338 -0.454776
H27   H     H_    0.466368 0.373488 0.005544 0.388023
S20   S     S_3+6 0.865002 0.737250 0.929092 0.145484
O110  O     O_2   0.895432 0.796827 0.949155 -0.155130
O111  O     O_2   0.912056 0.671879 0.933277 -0.286271
O112  O     O_3   0.868737 0.762912 0.891699 -0.406981
H28   H     H_    0.855660 0.718771 0.879695 0.400091
S21   S     S_3+6 0.749374 0.871161 0.936303 0.103442
O113  O     O_2   0.687057 0.922642 0.937142 -0.280173
O114  O     O_2   0.798362 0.890538 0.963040 -0.214818
O115  O     O_3   0.793211 0.884181 0.902782 -0.422210
H29   H     H_    0.756305 0.900900 0.887717 0.367167
S22   S     S_3+6 0.680284 0.453110 0.980018 0.125011
O116  O     O_2   0.734179 0.510837 0.988260 -0.199513
O117  O     O_2   0.695624 0.428115 0.947461 -0.226607
O118  O     O_3   0.599003 0.492138 0.981639 -0.472482
H30   H     H_    0.581306 0.493924 0.959888 0.429409
S23   S     S_3+6 0.269989 0.120203 0.932061 0.097015
O119  O     O_2   0.341494 0.083016 0.933270 -0.319404
O120  O     O_2   0.222215 0.083728 0.955226 -0.195002
O121  O     O_3   0.235671 0.109227 0.896086 -0.466290
H31   H     H_    0.235231 0.055961 0.892571 0.405338
S24   S     S_3+6 0.310637 0.559751 0.957694 0.116362
O122  O     O_2   0.257755 0.500061 0.964126 -0.205986
O123  O     O_2   0.283908 0.600877 0.929737 -0.252985
O124  O     O_3   0.389416 0.519911 0.949783 -0.441958
H32   H     H_    0.383685 0.500080 0.928497 0.419272
S25   S     S_3+6 0.783829 0.290829 0.425147 0.162070
O125  O     O_2   0.704772 0.294362 0.431540 -0.185613
O126  O     O_2   0.813979 0.364445 0.433092 -0.233765
O127  O     O_3   0.795022 0.275265 0.386980 -0.392478
H33   H     H_    0.841451 0.249708 0.385264 0.414697
S26   S     S_3+6 0.637875 0.722944 0.438704 0.178102
O128  O     O_2   0.636125 0.659539 0.460598 -0.163260
O129  O     O_2   0.580549 0.774352 0.448833 -0.210567
O130  O     O_3   0.616720 0.693342 0.402808 -0.372293
H34   H     H_    0.654472 0.713047 0.389212 0.403089
S27   S     S_3+6 0.231949 0.620117 0.435133 0.139850
O131  O     O_2   0.276513 0.584183 0.459908 -0.177514
O132  O     O_2   0.159916 0.583227 0.434949 -0.243831
O133  O     O_3   0.270354 0.605960 0.400464 -0.439363
H35   H     H_    0.248982 0.642682 0.386400 0.378083
S28   S     S_3+6 0.370751 0.242873 0.432162 0.158872
O134  O     O_2   0.400194 0.307142 0.449595 -0.156504
O135  O     O_2   0.417124 0.179788 0.441256 -0.264801
O136  O     O_3   0.380412 0.258435 0.393889 -0.413478
H36   H     H_    0.331720 0.269994 0.385931 0.388059
S29   S     S_3+6 0.261582 0.381993 0.443506 0.128378
O137  O     O_2   0.202777 0.437371 0.445388 -0.241470
O138  O     O_2   0.308638 0.392648 0.471752 -0.225172
O139  O     O_3   0.309011 0.398540 0.411211 -0.457794
H37   H     H_    0.326861 0.449095 0.413651 0.442420
S30   S     S_3+6 0.378669 0.718801 0.447918 0.137566
O140  O     O_2   0.437245 0.773887 0.453169 -0.237472
O141  O     O_2   0.379171 0.669455 0.475714 -0.176705
O142  O     O_3   0.397865 0.670404 0.415924 -0.420926
H38   H     H_    0.419819 0.705664 0.401407 0.395494
S31   S     S_3+6 0.785895 0.627067 0.431468 0.078520
O143  O     O_2   0.858204 0.594333 0.425841 -0.286106
O144  O     O_2   0.751159 0.584498 0.457079 -0.237490
O145  O     O_3   0.737919 0.615531 0.398654 -0.504611
H39   H     H_    0.733967 0.562146 0.395914 0.432270
S32   S     S_3+6 0.718263 0.124528 0.424396 0.096407
O146  O     O_2   0.700857 0.044875 0.426328 -0.184543
O147  O     O_2   0.649369 0.166298 0.426969 -0.244237
O148  O     O_3   0.754236 0.138268 0.389262 -0.520770
H40   H     H_    0.715165 0.126638 0.374243 0.418604
S33   S     S_3+6 0.429033 0.698897 0.026479 0.094001
O149  O     O_2   0.463380 0.629907 0.037759 -0.192045
O150  O     O_2   0.487854 0.753421 0.020866 -0.274889
O151  O     O_3   0.375849 0.733195 0.054228 -0.511821
H41   H     H_    0.398571 0.718486 0.074127 0.425273
S34   S     S_3+6 0.204276 0.338986 0.913143 0.130359
O152  O     O_2   0.201681 0.308110 0.880805 -0.215823
O153  O     O_2   0.136135 0.380188 0.918254 -0.254472
O154  O     O_3   0.272825 0.398242 0.916201 -0.458469
H42   H     H_    0.264053 0.434545 0.899619 0.396975
S35   S     S_3+6 0.587722 0.285776 0.041932 0.111918
O155  O     O_2   0.554534 0.347784 0.059350 -0.192106
O156  O     O_2   0.529924 0.230593 0.035242 -0.258713
O157  O     O_3   0.650623 0.245013 0.064005 -0.480422
H43   H     H_    0.641793 0.262132 0.085446 0.445714
S36   S     S_3+6 0.747509 0.630296 0.919004 0.138743
O158  O     O_2   0.731267 0.644464 0.885311 -0.226571
O159  O     O_2   0.807586 0.576237 0.920676 -0.198624
O160  O     O_3   0.675824 0.591882 0.935871 -0.459642
H44   H     H_    0.655083 0.559044 0.919837 0.414953
S37   S     S_3+6 0.637191 0.767730 0.914588 0.157807
O161  O     O_2   0.596808 0.698614 0.920650 -0.142583
O162  O     O_2   0.586019 0.829166 0.919538 -0.226108
O163  O     O_3   0.662258 0.769434 0.877130 -0.462763
H45   H     H_    0.656516 0.820567 0.870367 0.362594
S38   S     S_3+6 0.718163 0.409575 0.044862 0.111686
O164  O     O_2   0.744242 0.347884 0.064698 -0.225940
O165  O     O_2   0.780174 0.461551 0.041478 -0.304650
O166  O     O_3   0.652114 0.453643 0.063293 -0.411632
H46   H     H_    0.639576 0.494882 0.049511 0.399473
S39   S     S_3+6 0.357909 0.252325 0.918818 0.180509
O167  O     O_2   0.338673 0.265376 0.885303 -0.204858
O168  O     O_2   0.383946 0.322345 0.933159 -0.161114
O169  O     O_3   0.427195 0.194059 0.920030 -0.422079
H47   H     H_    0.429230 0.171998 0.899045 0.386946
S40   S     S_3+6 0.308279 0.566526 0.026710 0.126063
O170  O     O_2   0.301077 0.613920 0.054881 -0.198150
O171  O     O_2   0.242048 0.519574 0.024870 -0.310760
O172  O     O_3   0.379517 0.511575 0.031401 -0.418406
H48   H     H_    0.373611 0.473624 0.015220 0.389997
S41   S     S_3+6 0.921488 0.212428 0.442138 0.136962
O173  O     O_2   0.932158 0.162185 0.415033 -0.255841
O174  O     O_2   0.952891 0.284813 0.433966 -0.137904
O175  O     O_3   0.966532 0.181523 0.473460 -0.478681
H49   H     H_    0.005770 0.151206 0.465131 0.425169
S42   S     S_3+6 0.723327 0.849567 0.415759 0.147246
O176  O     O_2   0.732504 0.825909 0.382635 -0.246572
O177  O     O_2   0.652767 0.887566 0.418518 -0.192578
O178  O     O_3   0.787793 0.909713 0.425476 -0.423172
H50   H     H_    0.811295 0.922796 0.405705 0.404535
S43   S     S_3+6 0.145772 0.755256 0.421862 0.159413
O179  O     O_2   0.157869 0.757678 0.387456 -0.174928
O180  O     O_2   0.081283 0.709033 0.428249 -0.157723
O181  O     O_3   0.126815 0.839182 0.434899 -0.480693
H51   H     H_    0.082705 0.853602 0.423452 0.420550
S44   S     S_3+6 0.243553 0.141245 0.421363 0.150463
O182  O     O_2   0.244696 0.149478 0.386728 -0.191127
O183  O     O_2   0.289886 0.078444 0.430508 -0.161707
O184  O     O_3   0.160194 0.118744 0.432626 -0.499791
H52   H     H_    0.146941 0.075598 0.419967 0.414926
S45   S     S_3+6 0.146502 0.288051 0.416149 0.172086
O185  O     O_2   0.090811 0.235830 0.427744 -0.200861
O186  O     O_2   0.112699 0.361614 0.414069 -0.196945
O187  O     O_3   0.171420 0.265355 0.380050 -0.476259
H53   H     H_    0.131578 0.235338 0.371486 0.428491
S46   S     S_3+6 0.300566 0.840885 0.416811 0.135631
O188  O     O_2   0.249297 0.900697 0.424789 -0.139688
O189  O     O_2   0.374970 0.872237 0.418090 -0.266912
O190  O     O_3   0.285380 0.813446 0.380080 -0.450218
H54   H     H_    0.317048 0.770917 0.377186 0.345783
S47   S     S_3+6 0.875834 0.763707 0.425554 0.151019
O191  O     O_2   0.896336 0.831803 0.442919 -0.196826
O192  O     O_2   0.937011 0.711898 0.429340 -0.163192
O193  O     O_3   0.867189 0.783212 0.387632 -0.446820
H55   H     H_    0.854676 0.736298 0.377714 0.407683
S48   S     S_3+6 0.831935 0.069413 0.467966 0.154756
O194  O     O_2   0.876607 0.086953 0.496285 -0.204150
O195  O     O_2   0.779936 0.010523 0.476965 -0.197375
O196  O     O_3   0.885728 0.036922 0.440109 -0.426282
H56   H     H_    0.857284 0.040626 0.420633 0.383085
S49   S     S_3+6 0.921982 0.634700 0.117037 0.117681
O197  O     O_2   0.982554 0.681811 0.105725 -0.201367
O198  O     O_2   0.874556 0.612244 0.090182 -0.228714
O199  O     O_3   0.872644 0.682458 0.142425 -0.515745
H57   H     H_    0.870271 0.732250 0.133728 0.412526
S50   S     S_3+6 0.434207 0.863267 0.115982 0.077314
O200  O     O_2   0.362956 0.888446 0.103360 -0.216272
O201  O     O_2   0.479967 0.837672 0.089587 -0.265198
O202  O     O_3   0.420780 0.793919 0.140766 -0.510278
H58   H     H_    0.387175 0.760562 0.129775 0.402301
S51   S     S_3+6 0.078206 0.371994 0.119903 0.125753
O203  O     O_2   0.028381 0.317780 0.104704 -0.143356
O204  O     O_2   0.128415 0.402704 0.096023 -0.263062
O205  O     O_3   0.126809 0.328926 0.147377 -0.470751
H59   H     H_    0.164182 0.364508 0.153882 0.373020
S52   S     S_3+6 0.577010 0.130718 0.116400 0.080916
O206  O     O_2   0.644008 0.109144 0.099530 -0.242760
O207  O     O_2   0.523258 0.159374 0.093360 -0.194972
O208  O     O_3   0.597019 0.196876 0.142176 -0.500905
H60   H     H_    0.646805 0.186772 0.149228 0.376670
S53   S     S_3+6 0.418321 0.129084 0.618651 0.112081
O209  O     O_2   0.476409 0.179990 0.607928 -0.199989
O210  O     O_2   0.372665 0.105084 0.591476 -0.243584
O211  O     O_3   0.366046 0.172591 0.644316 -0.514846
H61   H     H_    0.361531 0.222773 0.636211 0.413887
S54   S     S_3+6 0.859924 0.436186 0.620205 0.110494
O212  O     O_2   0.811065 0.491163 0.605511 -0.182547
O213  O     O_2   0.882947 0.381514 0.596315 -0.254498
O214  O     O_3   0.814793 0.392425 0.648307 -0.517916
H62   H     H_    0.771482 0.372217 0.637819 0.409980
S55   S     S_3+6 0.582159 0.871456 0.619102 0.109588
O215  O     O_2   0.526321 0.819223 0.606860 -0.189150
O216  O     O_2   0.628549 0.897905 0.592989 -0.264137
O217  O     O_3   0.634248 0.828484 0.645388 -0.519711
H63   H     H_    0.645504 0.780944 0.635797 0.414177
S56   S     S_3+6 0.150366 0.484497 0.626894 0.116091
O218  O     O_2   0.146596 0.404832 0.619652 -0.185046
O219  O     O_2   0.176376 0.524997 0.599063 -0.177464
O220  O     O_3   0.210485 0.496622 0.655942 -0.499699
H64   H     H_    0.223450 0.548928 0.655212 0.360649
S57   S     S_3+6 0.562881 0.133093 0.811173 0.113872
O221  O     O_2   0.634326 0.115875 0.797001 -0.240044
O222  O     O_2   0.510568 0.151752 0.785607 -0.263653
O223  O     O_3   0.571288 0.206486 0.834285 -0.418966
H65   H     H_    0.594959 0.243838 0.821290 0.408957
S58   S     S_3+6 0.011261 0.672883 0.817189 0.126681
O224  O     O_2   0.082904 0.708410 0.823347 -0.165848
O225  O     O_2   0.998304 0.671842 0.782697 -0.280127
O226  O     O_3   0.945936 0.723761 0.832700 -0.484255
H66   H     H_    0.955067 0.773765 0.825093 0.415773
S59   S     S_3+6 0.425209 0.865507 0.811888 0.117945
O227  O     O_2   0.352248 0.883067 0.798705 -0.235674
O228  O     O_2   0.474351 0.846532 0.785610 -0.270136
O229  O     O_3   0.419170 0.791998 0.834930 -0.405546
H67   H     H_    0.393200 0.755071 0.822294 0.410838
S60   S     S_3+6 0.998825 0.371657 0.807911 0.120297
O230  O     O_2   0.928597 0.352800 0.792270 -0.238706
O231  O     O_2   0.054547 0.383897 0.783386 -0.257642
O232  O     O_3   0.026295 0.301377 0.829937 -0.423430
H68   H     H_    0.025139 0.258720 0.815860 0.407708
S61   S     S_3+6 0.884155 0.607542 0.316957 0.115669
O233  O     O_2   0.916837 0.677058 0.305221 -0.173111
O234  O     O_2   0.844714 0.569825 0.290842 -0.259288
O235  O     O_3   0.825637 0.626785 0.345177 -0.513444
H69   H     H_    0.788890 0.657981 0.335149 0.411967
S62   S     S_3+6 0.380933 0.982809 0.298853 0.121872
O236  O     O_2   0.373288 0.051456 0.280195 -0.244949
O237  O     O_2   0.393954 0.920497 0.277031 -0.246189
O238  O     O_3   0.303857 0.965622 0.317608 -0.410914
H70   H     H_    0.265997 0.966600 0.301282 0.410222
S63   S     S_3+6 0.096770 0.392376 0.313067 0.119410
O239  O     O_2   0.064900 0.319905 0.304235 -0.180354
O240  O     O_2   0.125974 0.429063 0.284620 -0.281862
O241  O     O_3   0.164345 0.379892 0.338626 -0.452954
H71   H     H_    0.200956 0.352130 0.327073 0.410662
S64   S     S_3+6 0.670820 0.958311 0.326933 0.119312
O242  O     O_2   0.686219 0.884284 0.313826 -0.178689
O243  O     O_2   0.688616 0.015143 0.303091 -0.277442
O244  O     O_3   0.721598 0.972498 0.358863 -0.483562
H72   H     H_    0.771779 0.972444 0.351403 0.400898
S65   S     S_3+6 0.612795 0.097777 0.883934 0.141557
O245  O     O_2   0.584605 0.168273 0.896507 -0.138600
O246  O     O_2   0.642208 0.053984 0.910522 -0.264915
O247  O     O_3   0.681132 0.115560 0.859797 -0.410177
H73   H     H_    0.700798 0.067243 0.854380 0.369626
S66   S     S_3+6 0.058709 0.648793 0.890302 0.164785
O248  O     O_2   0.023526 0.720480 0.883817 -0.093403
O249  O     O_2   0.056717 0.637837 0.924823 -0.292677
O250  O     O_3   0.145286 0.655012 0.879801 -0.424675
H74   H     H_    0.165954 0.606784 0.884745 0.373137
S67   S     S_3+6 0.383991 0.899887 0.885380 0.148592
O251  O     O_2   0.415172 0.829502 0.896830 -0.104191
O252  O     O_2   0.357090 0.941696 0.912883 -0.299426
O253  O     O_3   0.312887 0.881719 0.862217 -0.411266
H75   H     H_    0.292116 0.929905 0.857272 0.367436
S68   S     S_3+6 0.934807 0.369748 0.879738 0.143518
O254  O     O_2   0.992268 0.322594 0.893636 -0.169665
O255  O     O_2   0.882747 0.389519 0.904769 -0.249644
O256  O     O_3   0.888471 0.321008 0.853165 -0.408628
H76   H     H_    0.847118 0.352034 0.847323 0.380801
S69   S     S_3+6 0.038652 0.636714 0.362538 0.162732
O257  O     O_2   0.003193 0.702934 0.375498 -0.106931
O258  O     O_2   0.104218 0.617458 0.381091 -0.236949
O259  O     O_3   0.064722 0.656256 0.326115 -0.457930
H77   H     H_    0.098652 0.617120 0.320502 0.364564
S70   S     S_3+6 0.372241 0.057899 0.368106 0.185744
O260  O     O_2   0.315368 0.006884 0.379768 -0.088185
O261  O     O_2   0.396593 0.108490 0.393033 -0.219352
O262  O     O_3   0.338904 0.108096 0.338717 -0.417330
H78   H     H_    0.376267 0.145338 0.334609 0.374766
S71   S     S_3+6 0.961058 0.358976 0.366774 0.136193
O263  O     O_2   0.005425 0.295125 0.376591 -0.136480
O264  O     O_2   0.905273 0.375351 0.390365 -0.239696
O265  O     O_3   0.919269 0.337447 0.333107 -0.475121
H79   H     H_    0.882749 0.375861 0.329995 0.371850
S72   S     S_3+6 0.536259 0.850863 0.368452 0.128937
O266  O     O_2   0.598877 0.807247 0.357448 -0.161262
O267  O     O_2   0.517080 0.829255 0.400845 -0.215150
O268  O     O_3   0.465885 0.831933 0.344919 -0.500561
H80   H     H_    0.423146 0.849286 0.356209 0.384226

loop_
_geom_bond_atom_site_label_1
_geom_bond_atom_site_label_2
_ccdc_geom_bond_type
S18   O105  D    
S67   O251  D    
C69   C116  S    
C73   C80   A    
S25   O125  D    
O7    Zn9   S    
O262  H78   S    
O26   Zn10  S    
O208  H60   S    
O11   Zn13  S    
S31   O145  S    
C17   N1    A    
O199  H57   S    
C124  S44   S    
C117  S21   S    
S21   O113  D    
C33   S69   S    
O9    Zn15  S    
S65   O245  D    
S61   O235  S    
C119  S23   S    
C35   S71   S    
S10   O80   D    
C21   S57   S    
O163  H45   S    
C48   O20   A    
S33   O150  D    
S59   O228  D    
S62   O236  D    
S46   O189  D    
S55   O216  D    
S18   O106  S    
C24   C42   A    
C108  C109  A    
C30   C38   A    
S68   O255  D    
O229  H67   S    
O166  H46   S    
S35   O157  S    
S29   O139  S    
O5    Zn11  S    
C88   C104  A    
O97   H23   S    
S64   O244  S    
O76   H16   S    
N3    N15   A    
S8    O74   D    
C101  S5    S    
S2    O57   D    
S11   O84   D    
S70   O260  D    
C103  S7    S    
C16   C44   S    
C57   O29   A    
C143  H7    S    
C64   O36   A    
O12   Zn14  S    
C20   N6    A    
O58   H10   S    
C122  S26   S    
C76   C125  S    
C82   C98   A    
C126  S46   S    
C73   C128  S    
C54   C84   S    
C113  S33   S    
C13   N11   A    
C80   C121  S    
O4    Zn16  S    
S8    O75   D    
S54   O213  D    
S2    O58   S    
O109  H27   S    
O13   Zn1   S    
C84   C100  A    
C91   C107  A    
O115  H29   S    
C121  C128  S    
S32   O147  D    
S57   O222  D    
S22   O116  D    
C123  C126  S    
C27   C35   A    
S41   O173  D    
C21   C29   A    
C72   C113  S    
C28   C44   A    
O268  H80   S    
O48   Zn6   S    
O1    Zn11  S    
C31   C37   A    
O22   Zn10  S    
S39   O167  D    
C23   C31   A    
S17   O103  S    
C24   C32   A    
O31   Zn15  S    
C66   C82   A    
C113  C120  S    
O124  H32   S    
C115  C118  S    
S24   O122  D    
S70   O262  S    
S66   O248  D    
S51   O204  D    
O79   H17   S    
C87   C103  A    
S72   O267  D    
S40   O170  D    
S47   O192  D    
C105  C112  A    
S25   O127  S    
C7    C19   S    
C74   C79   A    
O30   Zn14  S    
S45   O187  S    
C121  S25   S    
O205  H59   S    
C51   C87   S    
S31   O143  D    
C17   N3    A    
S21   O115  S    
C18   N4    A    
O91   H21   S    
S3    O61   S    
O1    Zn9   S    
C133  S53   S    
C61   O51   A    
S22   O118  S    
C118  S38   S    
O136  H36   S    
C59   O45   A    
C5    C137  A    
C70   C115  S    
S50   O202  S    
C97   S1    S    
C23   C41   A    
S28   O136  S    
C75   C126  S    
C63   O49   A    
C52   C86   S    
C118  S22   S    
C77   C124  S    
O130  H34   S    
O10   Zn16  S    
C74   C90   A    
C78   C94   A    
S8    O76   S    
S12   O87   D    
C65   C120  S    
S27   O133  S    
O178  H50   S    
C67   C118  S    
C98   S2    S    
C60   O32   A    
O112  H28   S    
C129  C137  A    
S60   O230  D    
O23   Zn11  S    
C20   N8    A    
S67   O253  S    
C63   C91   S    
C49   O39   A    
C117  S37   S    
O154  H42   S    
O6    Zn12  S    
O50   Zn6   S    
O139  H37   S    
C50   O40   A    
S59   O229  S    
C67   C83   A    
C54   O26   A    
O4    Zn8   S    
C25   C43   A    
C7    C143  A    
O133  H35   S    
C26   C44   A    
O3    Zn15  S    
O250  H74   S    
S28   O134  D    
C111  S15   S    
S39   O168  D    
C1    O5    A    
C63   O35   A    
C127  S47   S    
S36   O158  D    
O241  H71   S    
S7    O73   S    
S26   O128  D    
C28   S64   S    
O40   Zn2   S    
O43   Zn1   S    
S24   O124  S    
S16   O98   D    
C121  S41   S    
S5    O65   D    
C24   S60   S    
C46   O16   A    
C122  C127  S    
C60   O46   A    
O2    Zn2   S    
C92   C108  A    
S40   O172  S    
O28   Zn12  S    
O38   Zn4   S    
O2    Zn12  S    
S53   O210  D    
C34   S70   S    
C114  C119  S    
C18   N2    A    
C75   C91   A    
S64   O243  D    
C30   S66   S    
C12   C134  A    
S9    O77   D    
S13   O90   D    
C15   N15   A    
O121  H31   S    
O127  H33   S    
S37   O162  D    
C5    C139  A    
C106  C111  A    
S14   O93   D    
S63   O241  S    
S48   O194  D    
C21   C41   A    
C135  S55   S    
S19   O108  D    
O29   Zn13  S    
O193  H55   S    
O259  H77   S    
C29   S65   S    
C106  S10   S    
C107  S11   S    
O202  H58   S    
O19   Zn7   S    
C74   C127  S    
S60   O232  S    
O17   Zn5   S    
C99   C102  A    
C102  S6    S    
S3    O60   D    
C78   C123  S    
O157  H43   S    
S4    O64   S    
C54   O44   A    
C76   C92   A    
O39   Zn1   S    
C66   C119  S    
S38   O164  D    
C32   S68   S    
C47   O19   A    
O220  H64   S    
C86   C102  A    
C7    C141  A    
C69   C85   A    
S34   O152  D    
O44   Zn4   S    
S45   O185  D    
C1    O7    A    
C22   C30   A    
S62   O238  S    
N1    N13   A    
S36   O160  S    
S20   O112  S    
C4    O10   A    
O151  H41   S    
O20   Zn8   S    
S7    O71   D    
C51   O37   A    
C56   C82   S    
S6    O68   D    
S61   O234  D    
C65   C72   A    
S10   O81   D    
S16   O100  S    
C67   C70   A    
C46   O14   A    
C110  S14   S    
C15   C43   S    
C144  H8    S    
S33   O149  D    
S23   O121  S    
S62   O237  D    
C108  S12   S    
S46   O190  S    
C138  H2    S    
O2    Zn10  S    
S40   O171  D    
C100  C101  A    
S28   O135  D    
N7    N11   A    
S35   O156  D    
C14   N12   A    
S71   O265  S    
C10   C132  A    
S29   O138  D    
C131  C139  A    
S58   O224  D    
O256  H76   S    
O100  H24   S    
C114  S34   S    
S38   O166  S    
O15   Zn3   S    
C12   C136  A    
S9    O79   S    
C89   C105  A    
S51   O203  D    
C15   N13   A    
S70   O261  D    
S42   O176  D    
C99   S3    S    
S54   O214  S    
C25   C33   A    
C60   C94   S    
C9    C45   S    
S30   O140  D    
C124  S28   S    
C53   O25   A    
C11   C47   S    
S63   O239  D    
S48   O196  S    
C64   C90   S    
C12   C48   S    
S6    O70   S    
C13   C41   S    
C45   O13   A    
C120  S24   S    
C132  S52   S    
C128  S32   S    
O42   Zn2   S    
N8    N12   A    
C137  H1    S    
O235  H69   S    
C116  S20   S    
S44   O184  S    
O3    Zn13  S    
S57   O221  D    
S22   O117  D    
C5    C17   S    
C25   S61   S    
C98   C103  A    
O175  H49   S    
O52   Zn8   S    
C53   C81   S    
O85   H19   S    
C16   N14   A    
S17   O102  D    
C62   O34   A    
C113  S17   S    
C56   O28   A    
O4    Zn6   S    
C136  S56   S    
C58   O30   A    
C57   O47   A    
C68   C69   A    
S69   O258  D    
S56   O219  D    
S66   O249  D    
C47   O17   A    
C10   C130  A    
C9    C131  A    
S18   O104  D    
O184  H52   S    
S25   O126  D    
C83   C99   A    
S72   O266  D    
S45   O186  D    
S52   O206  D    
C4    O12   A    
S72   O268  S    
C125  S29   S    
S21   O114  D    
S41   O174  D    
C79   C122  S    
C127  S31   S    
O14   Zn2   S    
S66   O250  S    
S43   O179  D    
C68   C84   A    
C130  S50   S    
S1    O55   S    
S33   O151  S    
O88   H20   S    
S46   O188  D    
O67   H13   S    
S55   O217  S    
S30   O142  S    
S31   O144  D    
O61   H11   S    
C94   C110  A    
S15   O95   D    
C71   C114  S    
C119  S39   S    
S68   O254  D    
O47   Zn5   S    
C62   O52   A    
C14   N10   A    
O21   Zn9   S    
S71   O263  D    
C104  S8    S    
C79   C95   A    
O82   H18   S    
O45   Zn7   S    
C11   C135  A    
C134  C142  A    
C65   C81   A    
C66   C71   A    
S14   O94   S    
S2    O56   D    
S11   O85   S    
S27   O132  D    
C8    C20   S    
C23   S59   S    
C1    C38   S    
O49   Zn7   S    
C71   C87   A    
O3    Zn7   S    
C3    C40   S    
C26   S62   S    
O4    Zn14  S    
S67   O252  D    
O41   Zn3   S    
C34   C40   A    
S4    O62   D    
O25   Zn11  S    
N5    N9    A    
S23   O119  D    
C45   O15   A    
S4    O63   D    
O142  H38   S    
O24   Zn12  S    
S54   O212  D    
S49   O198  D    
C53   O43   A    
S20   O111  D    
S32   O146  D    
S57   O223  S    
O148  H40   S    
O145  H39   S    
C132  C140  A    
C133  C141  A    
S52   O208  S    
C64   O50   A    
C19   N7    A    
S5    O67   S    
S36   O159  D    
S65   O247  S    
O253  H75   S    
S43   O181  S    
C73   C89   A    
S19   O107  D    
C136  C144  A    
S7    O72   D    
S26   O129  D    
C77   C93   A    
O37   Zn3   S    
S51   O205  S    
C6    C140  A    
O106  H26   S    
C50   O22   A    
C97   C104  A    
C90   C106  A    
C27   C43   A    
S47   O193  S    
C49   O21   A    
O187  H53   S    
C28   C36   A    
S50   O200  D    
C29   C37   A    
N4    N16   A    
O73   H15   S    
N2    N14   A    
C8    C142  A    
C123  S43   S    
S44   O182  D    
S26   O130  S    
C55   O27   A    
S56   O220  S    
C51   O23   A    
C105  S9    S    
S13   O89   D    
C22   S58   S    
C35   C39   A    
S27   O131  D    
C142  H6    S    
O244  H72   S    
C140  H4    S    
S43   O180  D    
S37   O161  D    
C141  H5    S    
S55   O215  D    
C22   C42   A    
O211  H61   S    
C56   O42   A    
C96   C112  A    
S15   O97   S    
C139  H3    S    
O214  H62   S    
C33   C39   A    
O94   H22   S    
S68   O256  S    
C52   O38   A    
S12   O86   D    
S63   O240  D    
S48   O195  D    
O35   Zn13  S    
S49   O199  S    
C123  S27   S    
C11   C133  A    
S24   O123  D    
O33   Zn15  S    
O34   Zn14  S    
S59   O227  D    
S1    O54   D    
C116  C117  S    
S53   O209  D    
C52   O24   A    
C131  S51   S    
S20   O110  D    
C3    O11   A    
O169  H47   S    
O55   H9    S    
C58   C96   S    
C61   O33   A    
C115  S19   S    
C26   C34   A    
O1    Zn1   S    
O3    Zn5   S    
C59   O31   A    
O223  H65   S    
C62   C92   S    
C10   C46   S    
S35   O155  D    
C32   C38   A    
C80   C96   A    
O46   Zn8   S    
O70   H14   S    
S16   O99   D    
C50   C88   S    
C14   C42   S    
C2    O8    A    
S69   O259  S    
O181  H51   S    
C112  S16   S    
C57   C93   S    
S56   O218  D    
S38   O165  D    
C59   C95   S    
S32   O148  S    
C72   C88   A    
C61   C89   S    
O238  H70   S    
S65   O246  D    
S34   O153  D    
C6    C18   S    
S39   O169  S    
C116  S36   S    
C19   N5    A    
S47   O191  D    
C49   C85   S    
C36   C40   A    
C76   C77   A    
S49   O197  D    
S44   O183  D    
C36   S72   S    
C115  S35   S    
O196  H56   S    
O265  H79   S    
S6    O69   D    
C128  S48   S    
C27   S63   S    
S61   O233  D    
C134  S54   S    
O36   Zn16  S    
S5    O66   D    
C6    C138  A    
C48   O18   A    
O217  H63   S    
C68   C117  S    
S23   O120  D    
S34   O154  S    
O160  H44   S    
O18   Zn6   S    
C4    C39   S    
O232  H68   S    
O8    Zn10  S    
O190  H54   S    
C8    C144  A    
O51   Zn5   S    
S71   O264  D    
C125  S45   S    
S29   O137  D    
S58   O225  D    
S10   O82   S    
C129  S49   S    
S64   O242  D    
C109  S13   S    
S9    O78   D    
S11   O83   D    
S13   O91   S    
O2    Zn4   S    
C122  S42   S    
S42   O177  D    
O64   H12   S    
C70   C86   A    
S37   O163  S    
C85   C101  A    
O16   Zn4   S    
S14   O92   D    
O247  H73   S    
S30   O141  D    
C120  S40   S    
S12   O88   S    
O32   Zn16  S    
S60   O231  D    
C100  S4    S    
S58   O226  S    
S19   O109  S    
S3    O59   D    
C13   N9    A    
C9    C129  A    
S50   O201  D    
C55   O41   A    
S53   O211  S    
O103  H25   S    
S42   O178  S    
C3    O9    A    
S15   O96   D    
C126  S30   S    
C95   C111  A    
C2    O6    A    
C2    C37   S    
O1    Zn3   S    
C81   C97   A    
C16   N16   A    
C135  C143  A    
C107  C110  A    
S41   O175  S    
S52   O207  D    
S17   O101  D    
C75   C78   A    
S1    O53   D    
N6    N10   A    
O172  H48   S    
S69   O257  D    
C93   C109  A    
C114  S18   S    
O27   Zn9   S    
C31   S67   S    
O118  H30   S    
O226  H66   S    
C55   C83   S    
C58   O48   A    
C124  C125  S    
C130  C138  A    
