data_mof_unit_43519.cif
_audit_creation_date              2012-12-10T21:07:48-0500
_audit_creation_method            fapswitch 2.2
_symmetry_space_group_name_H-M    P1
_symmetry_Int_Tables_number       1
_space_group_crystal_system       triclinic
_cell_length_a                    8.559621
_cell_length_b                    17.329592
_cell_length_c                    16.990001
_cell_angle_alpha                 89.21373
_cell_angle_beta                  98.540226
_cell_angle_gamma                 94.451817
_cell_volume                      2484.7375128

loop_
_atom_site_label
_atom_site_type_symbol
_atom_type_description
_atom_site_fract_x
_atom_site_fract_y
_atom_site_fract_z
_atom_type_partial_charge
C1    C     C_R   0.498163 0.352662 0.500322 0.937046
C2    C     C_R   0.382941 0.455954 0.244710 -0.140688
C3    C     C_R   0.616270 0.549098 0.840150 0.238254
C4    C     C_R   0.378533 0.452832 0.160043 0.353140
C5    C     C_R   0.500570 0.504730 0.876265 -0.138104
C6    C     C_R   0.500066 0.493008 0.124261 -0.136085
C7    C     C_1   0.501806 0.501116 0.964185 0.121784
C8    C     C_1   0.499157 0.496223 0.036356 0.182524
C9    C     C_R   0.201159 0.500185 0.479191 0.978403
C10   C     C_R   0.799027 0.501291 0.520788 0.978247
C11   C     C_2   0.035821 0.498653 0.468142 -0.307326
C12   C     C_R   0.495893 0.646872 0.499165 0.938878
C13   C     C_2   0.964671 0.505761 0.531676 -0.290131
C14   C     C_R   0.454729 0.848768 0.564406 0.444886
C15   C     C_R   0.428842 0.149410 0.422846 0.451123
C16   C     C_R   0.496473 0.772850 0.564979 -0.224334
C17   C     C_R   0.474998 0.228166 0.428435 -0.190470
C18   C     C_R   0.464333 0.728248 0.495900 -0.131367
C19   C     C_R   0.471833 0.268363 0.498965 -0.137669
C20   C     C_R   0.385322 0.758872 0.425750 -0.170688
C21   C     C_R   0.424583 0.229062 0.565029 -0.162300
C22   C     C_R   0.336110 0.833933 0.424142 -0.082761
C23   C     C_1   0.353883 0.960022 0.489993 0.209498
C24   C     C_R   0.370696 0.151013 0.559883 -0.093989
C25   C     C_R   0.373845 0.879328 0.493786 -0.097060
C26   C     C_R   0.375324 0.110943 0.488635 -0.093679
C27   C     C_2   0.244151 0.862651 0.349648 0.966515
C28   C     C_2   0.306633 0.113544 0.628872 0.979008
C29   C     C_2   0.251746 0.420560 0.863134 1.112958
C30   C     C_2   0.764929 0.563567 0.138780 1.079777
C31   C     C_2   0.753979 0.579298 0.722365 1.092186
C32   C     C_2   0.255167 0.414356 0.280569 1.124204
C33   C     C_1   0.354145 0.028766 0.488084 0.213659
C34   C     C_R   0.382127 0.461024 0.826501 -0.224299
C35   C     C_R   0.623548 0.533480 0.174103 -0.244415
C36   C     C_R   0.384163 0.456607 0.742684 0.461762
C37   C     C_R   0.617093 0.542007 0.257101 0.459970
C38   C     C_R   0.616856 0.543650 0.755931 -0.105529
H1    H     H_    0.972706 0.489824 0.408240 0.216103
H2    H     H_    0.147000 0.035899 0.667749 0.392489
H3    H     H_    0.025937 0.420215 0.884054 0.368581
H4    H     H_    0.891597 0.655450 0.100050 0.395429
H5    H     H_    0.156835 0.269951 0.722120 0.401632
H6    H     H_    0.815525 0.734954 0.274681 0.402189
H7    H     H_    0.845548 0.667272 0.660540 0.346781
H8    H     H_    0.027039 0.410408 0.298363 0.342267
H9    H     H_    0.849374 0.512217 0.960880 0.357876
H10   H     H_    0.015522 0.321402 0.102456 0.406316
H11   H     H_    0.027710 0.515656 0.591457 0.231345
H12   H     H_    0.554535 0.748419 0.619411 0.243370
H13   H     H_    0.512506 0.258425 0.377476 0.221232
H14   H     H_    0.355628 0.722935 0.373113 0.216861
H15   H     H_    0.422801 0.259926 0.619760 0.244867
H16   H     H_    0.615102 0.018848 0.681940 0.404070
H17   H     H_    0.525371 0.992265 0.303666 0.403925
H18   H     H_    0.079003 0.932079 0.298449 0.390381
N1    N     N_R   0.500040 0.500030 0.707230 -0.202123
N2    N     N_R   0.499960 0.499970 0.292770 -0.209520
O1    O     O_R   0.500000 0.389130 0.566570 -0.571725
O2    O     O_2   0.605448 0.859926 0.715745 -0.206234
O3    O     O_3   0.608371 0.987166 0.633301 -0.553473
O4    O     O_2   0.272879 0.071726 0.297091 -0.245420
O5    O     O_2   0.508664 0.153745 0.274689 -0.223064
O6    O     O_3   0.549389 0.024763 0.352101 -0.545482
O7    O     O_2   0.259364 0.835613 0.285319 -0.556850
O8    O     O_R   0.136341 0.918733 0.352926 -0.754292
O9    O     O_2   0.357697 0.135583 0.696563 -0.553038
O10   O     O_R   0.183850 0.054930 0.616376 -0.749128
O11   O     O_2   0.269807 0.357491 0.894703 -0.504544
O12   O     O_R   0.500000 0.610870 0.433430 -0.564830
O13   O     O_R   0.108449 0.454693 0.860519 -0.681406
O14   O     O_2   0.859691 0.518572 0.123892 -0.550571
O15   O     O_R   0.789241 0.642382 0.122357 -0.663583
O16   O     O_2   0.075159 0.412585 0.700221 -0.292120
O17   O     O_2   0.236741 0.370424 0.606342 -0.307987
O18   O     O_3   0.256192 0.302028 0.740371 -0.519836
O19   O     O_2   0.760892 0.630143 0.392363 -0.284164
O20   O     O_2   0.922122 0.596918 0.294530 -0.310170
O21   O     O_3   0.719461 0.699704 0.259002 -0.479920
O22   O     O_2   0.880458 0.549760 0.735467 -0.548450
O23   O     O_R   0.499990 0.389100 0.433480 -0.620175
O24   O     O_R   0.742546 0.648477 0.679751 -0.774782
O25   O     O_2   0.273894 0.350578 0.310349 -0.597982
O26   O     O_R   0.108467 0.445885 0.275157 -0.717137
O27   O     O_2   0.828549 0.675935 0.852417 -0.178885
O28   O     O_2   0.673725 0.651525 0.960275 -0.228910
O29   O     O_3   0.901342 0.563272 0.949214 -0.445578
O30   O     O_2   0.146518 0.448035 0.036340 -0.268192
O31   O     O_2   0.308797 0.337075 0.056418 -0.221750
O32   O     O_3   0.091575 0.347940 0.145023 -0.494710
O33   O     O_R   0.500010 0.610900 0.566520 -0.607829
O34   O     O_R   0.271750 0.500010 0.550980 -0.571214
O35   O     O_R   0.728250 0.499990 0.449020 -0.582495
O36   O     O_R   0.271740 0.499980 0.417890 -0.625291
O37   O     O_R   0.728260 0.500020 0.582110 -0.621864
O38   O     O_2   0.356578 0.922164 0.682934 -0.255970
S1    S     S_3+6 0.505994 0.904073 0.652840 0.075333
S2    S     S_3+6 0.437937 0.100501 0.332850 0.081583
S3    S     S_3+6 0.235712 0.386917 0.692137 0.034031
S4    S     S_3+6 0.758283 0.615661 0.305847 0.059108
S5    S     S_3+6 0.755902 0.613420 0.900749 0.109352
S6    S     S_3+6 0.228733 0.395640 0.097480 0.090088
Zn1   Zn    Zn3+2 0.500010 0.500020 0.588860 1.053806
Zn2   Zn    Zn3+2 0.499990 0.499980 0.411140 1.048757

loop_
_geom_bond_atom_site_label_1
_geom_bond_atom_site_label_2
_ccdc_geom_bond_type
O31   S6    D    
C12   O33   A    
H7    O24   S    
C17   H13   S    
C31   O22   D    
O18   S3    S    
C31   O24   S    
C30   C35   S    
O4    S2    D    
C28   O10   S    
C16   H12   S    
O5    S2    D    
C1    O1    A    
O12   Zn2   S    
C1    O23   A    
C6    C35   A    
O35   Zn2   S    
O19   S4    D    
C2    C32   S    
O32   S6    S    
O34   Zn1   S    
O29   S5    S    
C3    C38   A    
C23   C33   T    
C22   C25   A    
C4    S6    S    
C18   C20   A    
C37   N2    A    
H3    O13   S    
C3    S5    S    
O6    S2    S    
O36   Zn2   S    
H10   O32   S    
C5    C34   A    
N1    Zn1   S    
C9    O34   A    
O37   Zn1   S    
C29   O11   D    
H17   O6    S    
C32   O26   S    
C1    C19   S    
O21   S4    S    
C7    C8    T    
C28   O9    D    
C4    C6    A    
O2    S1    D    
C5    C7    S    
C30   O15   S    
C15   C26   A    
C6    C8    S    
C10   O35   A    
C29   C34   S    
H9    O29   S    
C2    C4    A    
C27   O7    D    
C38   N1    A    
C26   C33   S    
C30   O14   D    
O38   S1    D    
O17   S3    D    
C11   H1    S    
C9    C11   S    
C13   H11   S    
C20   C22   A    
C36   N1    A    
C22   C27   S    
O20   S4    D    
C14   C16   A    
N2    Zn2   S    
C15   S2    S    
O27   S5    D    
C14   S1    S    
H5    O18   S    
C15   C17   A    
C32   O25   D    
C12   O12   A    
H4    O15   S    
C35   C37   A    
H6    O21   S    
O3    S1    S    
C24   C28   S    
O33   Zn1   S    
C3    C5    A    
C10   C13   S    
O30   S6    D    
C2    N2    A    
O16   S3    D    
H16   O3    S    
C31   C38   S    
O1    Zn1   S    
C20   H14   S    
C27   O8    S    
C21   H15   S    
C11   C13   D    
C24   C26   A    
C10   O37   A    
H18   O8    S    
C17   C19   A    
H8    O26   S    
C36   S3    S    
C34   C36   A    
C23   C25   S    
C14   C25   A    
C16   C18   A    
H2    O10   S    
C21   C24   A    
C12   C18   S    
C29   O13   S    
O28   S5    D    
C9    O36   A    
C37   S4    S    
C19   C21   A    
O23   Zn2   S    
