data_mof_unit_20498.cif
_audit_creation_date              2012-12-11T14:21:07-0500
_audit_creation_method            fapswitch 2.2
_symmetry_space_group_name_H-M    P1
_symmetry_Int_Tables_number       1
_space_group_crystal_system       triclinic
_cell_length_a                    11.550455
_cell_length_b                    11.497098
_cell_length_c                    19.528963
_cell_angle_alpha                 90.587802
_cell_angle_beta                  90.101943
_cell_angle_gamma                 60.102919
_cell_volume                      2248.12542511

loop_
_atom_site_label
_atom_site_type_symbol
_atom_type_description
_atom_site_fract_x
_atom_site_fract_y
_atom_site_fract_z
_atom_type_partial_charge
C1    C     C_R   0.640461 0.117660 0.599160 0.549056
C2    C     C_1   0.641316 0.703554 0.667886 0.001837
C3    C     C_1   0.126878 0.198317 0.859305 0.002841
C4    C     C_1   0.171082 0.170362 0.727611 -0.032172
C5    C     C_1   0.150070 0.181987 0.798889 -0.031710
C6    C     C_1   0.194721 0.161216 0.667242 -0.000216
C7    C     C_1   0.678675 0.190721 0.860851 0.002805
C8    C     C_1   0.658427 0.167479 0.729018 -0.032131
C9    C     C_1   0.665662 0.180640 0.800364 -0.031739
C10   C     C_1   0.652842 0.150165 0.668563 0.002162
C11   C     C_R   0.664677 0.669747 0.193736 -0.020102
C12   C     C_R   0.612490 0.745769 0.598538 0.541094
C13   C     C_R   0.539577 0.717397 0.225079 0.022181
C14   C     C_R   0.537733 0.689368 0.294178 0.023596
C15   C     C_R   0.773599 0.625072 0.305199 -0.021763
C16   C     C_R   0.780709 0.622296 0.234033 -0.128883
C17   C     C_R   0.419228 0.774193 0.187276 -0.072247
C18   C     C_R   0.305958 0.777933 0.214224 -0.122728
C19   C     C_R   0.309465 0.731247 0.279864 -0.150191
C20   C     C_R   0.424773 0.684677 0.319145 -0.093374
C21   C     C_R   0.648117 0.669400 0.335732 0.003499
C22   C     C_R   0.170682 0.182013 0.184798 -0.008974
C23   C     C_R   0.240467 0.145543 0.598065 0.546708
C24   C     C_R   0.244091 0.241508 0.208906 0.025135
C25   C     C_R   0.276143 0.232832 0.279280 0.024444
C26   C     C_R   0.201214 0.069234 0.292845 -0.149629
C27   C     C_R   0.151639 0.095024 0.226785 -0.157506
C28   C     C_R   0.277573 0.317981 0.165230 -0.090504
C29   C     C_R   0.308959 0.410580 0.192236 -0.118557
C30   C     C_R   0.320181 0.418285 0.262367 -0.150229
C31   C     C_R   0.315149 0.324417 0.304688 -0.106987
C32   C     C_R   0.261100 0.138525 0.320888 -0.003512
C33   C     C_R   0.671815 0.186342 0.194229 0.002724
C34   C     C_R   0.648421 0.111908 0.402918 0.536303
C35   C     C_R   0.736673 0.053725 0.218649 0.027764
C36   C     C_R   0.763463 0.033646 0.288964 0.040428
C37   C     C_R   0.614492 0.271792 0.310646 -0.166940
C38   C     C_R   0.616597 0.294454 0.240953 -0.138972
C39   C     C_R   0.790579 0.941340 0.173773 -0.083431
C40   C     C_R   0.893776 0.818071 0.195229 -0.117201
C41   C     C_R   0.939644 0.804155 0.262053 -0.145857
C42   C     C_R   0.873836 0.909256 0.309127 -0.090800
C43   C     C_R   0.682280 0.141147 0.335117 -0.000892
C44   C     C_R   0.082134 0.230787 0.928643 0.542113
C45   C     C_R   0.617660 0.733920 0.403515 0.536044
C46   C     C_R   0.683881 0.604518 0.929530 0.542182
C47   C     C_R   0.708349 0.206347 0.930206 0.541393
C48   C     C_R   0.088350 0.232849 0.123353 0.534067
C49   C     C_R   0.682251 0.614690 0.124861 0.529426
C50   C     C_R   0.706632 0.210468 0.126220 0.530729
C51   C     C_R   0.300977 0.116585 0.393524 0.556597
C52   C     C_1   0.670452 0.646520 0.860139 0.003037
C53   C     C_1   0.654898 0.683389 0.728355 -0.032419
C54   C     C_1   0.663560 0.666582 0.799657 -0.032097
Cr1   Cr    Cr6+3 0.404720 0.198220 0.499960 0.989726
Cr2   Cr    Cr6+3 0.698290 0.897110 0.500380 1.000967
Cr3   Cr    Cr6+3 0.396970 0.904720 0.499610 1.016718
Cr4   Cr    Cr6+3 0.926180 0.151990 0.028120 1.020282
Cr5   Cr    Cr6+3 0.921330 0.451820 0.027470 1.013558
Cr6   Cr    Cr6+3 0.626260 0.446870 0.028710 1.018088
H1    H     H_    0.325657 0.475484 0.158880 0.122832
H2    H     H_    0.345369 0.489217 0.283927 0.109666
H3    H     H_    0.340790 0.330637 0.356639 0.169456
H4    H     H_    0.560126 0.355879 0.345437 0.107394
H5    H     H_    0.759814 0.951009 0.120733 0.121447
H6    H     H_    0.574209 0.396877 0.223551 0.148552
H7    H     H_    0.941628 0.735013 0.159282 0.115086
H8    H     H_    0.025516 0.711121 0.277649 0.096217
H9    H     H_    0.917297 0.893761 0.359507 0.135237
H10   H     H_    0.414935 0.808735 0.135434 0.122897
H11   H     H_    0.878338 0.576894 0.210051 0.145685
H12   H     H_    0.216514 0.814207 0.183650 0.113642
H13   H     H_    0.222759 0.731173 0.300577 0.098573
H14   H     H_    0.425343 0.642513 0.368504 0.127916
H15   H     H_    0.183408 0.001992 0.323694 0.148873
H16   H     H_    0.274599 0.310656 0.110056 0.131921
H17   H     H_    0.092122 0.051498 0.209736 0.144925
O1    O     O_R   0.267740 0.231960 0.575440 -0.511346
O2    O     O_R   0.685970 0.784660 0.430010 -0.500818
O3    O     O_R   0.502530 0.767000 0.423990 -0.536443
O4    O     O_R   0.288330 0.026350 0.429250 -0.497315
O5    O     O_3   0.499990 0.000020 0.499980 -0.256628
O6    O     O_R   0.821500 0.119340 0.952830 -0.508848
O7    O     O_R   0.037130 0.162530 0.957360 -0.495061
O8    O     O_R   0.056440 0.344740 0.951340 -0.509881
O9    O     O_R   0.797900 0.560360 0.957470 -0.494829
O10   O     O_R   0.596130 0.579390 0.952730 -0.507490
O11   O     O_R   0.639060 0.321160 0.958670 -0.494823
O12   O     O_R   0.527280 0.186640 0.570530 -0.492333
O13   O     O_R   0.821240 0.124200 0.104370 -0.519785
O14   O     O_R   0.036890 0.167040 0.097840 -0.503063
O15   O     O_R   0.056180 0.349610 0.102880 -0.527772
O16   O     O_R   0.797660 0.564870 0.097950 -0.508606
O17   O     O_R   0.595880 0.584250 0.104270 -0.519586
O18   O     O_R   0.638830 0.325670 0.099150 -0.504066
O19   O     O_3   0.824590 0.350230 0.028100 -0.243756
O20   O     O_R   0.728090 0.003450 0.576380 -0.504909
O21   O     O_R   0.682970 0.789190 0.570490 -0.499417
O22   O     O_R   0.499290 0.771880 0.575530 -0.506454
O23   O     O_R   0.285330 0.030870 0.569730 -0.486615
O24   O     O_R   0.270980 0.227080 0.423890 -0.553607
O25   O     O_R   0.530280 0.182120 0.430050 -0.527644
O26   O     O_R   0.731330 0.998570 0.424830 -0.530079
C55   C     C_3   0.900636 0.574630 0.346864 -0.245968
C56   C     C_3   0.923116 0.460869 0.395763 -0.289408
C57   C     C_3   0.992934 0.465962 0.461240 -0.404398
H18   H     H_    0.084968 0.469385 0.448847 0.168747
H19   H     H_    0.925254 0.556664 0.491940 0.153385
H20   H     H_    0.019716 0.375829 0.492416 0.171131
H21   H     H_    0.827734 0.466400 0.410679 0.153882
H22   H     H_    0.985112 0.362545 0.369492 0.176363
H23   H     H_    0.989476 0.535245 0.312697 0.129022
H24   H     H_    0.898032 0.660028 0.375112 0.172358

loop_
_geom_bond_atom_site_label_1
_geom_bond_atom_site_label_2
_ccdc_geom_bond_type
C25   C31   A    
C22   C48   S    
C56   H21   S    
C26   C32   A    
C41   C42   A    
C36   C42   A    
C35   C36   A    
Cr2   O21   S    
C2    C12   S    
Cr6   O11   S    
C53   C54   S    
Cr1   O25   S    
C26   C27   A    
C29   C30   A    
Cr2   O2    S    
C14   C21   A    
C28   C29   A    
C30   C31   A    
C50   O18   A    
C57   H18   S    
C15   C16   A    
Cr3   O22   S    
C46   C52   S    
C18   C19   A    
Cr4   O19   S    
C12   O22   A    
C50   O13   A    
C38   H6    S    
C8    C9    S    
C48   O14   A    
C47   O6    A    
C49   O17   A    
Cr4   O14   S    
C51   O4    A    
C12   O21   A    
C25   C32   A    
C23   O23   A    
C56   H22   S    
C17   H10   S    
C13   C14   A    
C39   H5    S    
Cr3   O3    S    
C16   H11   S    
Cr2   O20   S    
C55   C56   S    
Cr6   O10   S    
C52   C54   T    
C26   H15   S    
C41   H8    S    
C21   C45   S    
C18   H12   S    
C29   H1    S    
C3    C44   S    
C34   C43   S    
C14   C20   A    
C19   H13   S    
C24   C25   A    
C4    C6    T    
C1    O20   A    
C39   C40   A    
C55   H23   S    
Cr1   O1    S    
C27   H17   S    
C33   C50   S    
Cr3   O23   S    
C40   H7    S    
C42   H9    S    
C7    C47   S    
C37   C43   A    
C35   C39   A    
Cr5   O8    S    
C32   C51   S    
C37   C38   A    
C11   C49   S    
Cr4   O7    S    
C11   C16   A    
C17   C18   A    
C20   H14   S    
C45   O2    A    
C34   O25   A    
Cr1   O5    S    
Cr4   O13   S    
Cr6   O19   S    
C40   C41   A    
C22   C27   A    
C30   H2    S    
C15   C55   S    
C22   C24   A    
Cr5   O19   S    
C44   O8    A    
C28   H16   S    
C3    C5    T    
C37   H4    S    
C46   O10   A    
C7    C9    T    
C1    O12   A    
C1    C10   S    
C24   C28   A    
Cr2   O26   S    
C4    C5    S    
C44   O7    A    
C2    C53   T    
Cr2   O5    S    
C51   O24   A    
C31   H3    S    
C56   C57   S    
Cr1   O24   S    
C33   C38   A    
C13   C17   A    
C47   O11   A    
C19   C20   A    
Cr5   O9    S    
Cr1   O12   S    
Cr4   O6    S    
C11   C13   A    
C57   H19   S    
C6    C23   S    
C34   O26   A    
C33   C35   A    
C45   O3    A    
Cr3   O4    S    
Cr5   O15   S    
C23   O1    A    
C55   H24   S    
Cr6   O18   S    
C15   C21   A    
C8    C10   T    
C48   O15   A    
Cr3   O5    S    
C36   C43   A    
Cr5   O16   S    
C49   O16   A    
C46   O9    A    
C57   H20   S    
Cr6   O17   S    
