data_mof_unit_54791.cif
_audit_creation_date              2012-10-26T18:52:31-0400
_audit_creation_method            fapswitch 2.2
_symmetry_space_group_name_H-M    P1
_symmetry_Int_Tables_number       1
_space_group_crystal_system       triclinic
_cell_length_a                    10.733492
_cell_length_b                    14.735263
_cell_length_c                    14.853847
_cell_angle_alpha                 64.784945
_cell_angle_beta                  104.21116
_cell_angle_gamma                 103.012112
_cell_volume                      2040.83688002

loop_
_atom_site_label
_atom_site_type_symbol
_atom_type_description
_atom_site_fract_x
_atom_site_fract_y
_atom_site_fract_z
_atom_type_partial_charge
C1    C     C_R   0.477766 0.119690 0.312530 0.542978
C2    C     C_R   0.462178 0.360343 0.077940 -0.022062
C3    C     C_R   0.419736 0.320633 0.001958 0.060589
C4    C     C_R   0.260265 0.999308 0.501437 0.562542
C5    C     C_R   0.481270 0.466981 0.050788 0.040605
C6    C     C_R   0.470705 0.532936 0.946997 0.034555
C7    C     C_R   0.427544 0.490346 0.873462 -0.147592
C8    C     C_R   0.401644 0.386406 0.900709 -0.085960
C9    C     C_R   0.507065 0.509753 0.123830 -0.128416
C10   C     C_R   0.528325 0.613697 0.096528 -0.129827
C11   C     C_R   0.527039 0.679052 0.995908 0.048860
C12   C     C_3   0.878855 0.998564 0.504051 0.031142
C13   C     C_R   0.500381 0.639468 0.920245 0.035677
C14   C     C_R   0.551947 0.784004 0.970089 -0.124881
C15   C     C_R   0.551225 0.850542 0.869681 -0.126696
C16   C     C_R   0.521464 0.880316 0.687397 0.547163
C17   C     C_R   0.506254 0.708088 0.820338 -0.123329
C18   C     C_R   0.723611 0.285921 0.664987 0.337135
C19   C     C_R   0.685063 0.203177 0.637584 0.059908
C20   C     C_R   0.515953 0.284944 0.510797 0.225380
C21   C     C_R   0.541663 0.367152 0.543561 -0.037748
C22   C     C_R   0.653864 0.369008 0.617072 0.028399
C23   C     C_3   0.919833 0.892832 0.574294 -0.174950
C24   C     C_R   0.465214 0.449001 0.504238 0.028513
C25   C     C_R   0.515514 0.539103 0.523163 0.019111
C26   C     C_R   0.632349 0.539282 0.591933 -0.154196
C27   C     C_R   0.696968 0.454557 0.640575 -0.083744
C28   C     C_R   0.740236 0.998831 0.502049 0.561506
C29   C     C_R   0.336571 0.441276 0.452898 -0.135103
C30   C     C_R   0.268992 0.523961 0.404805 -0.125325
C31   C     C_R   0.322987 0.616052 0.412497 0.040722
C32   C     C_R   0.444592 0.624419 0.474822 0.005190
C33   C     C_R   0.252978 0.698555 0.362104 -0.137810
C34   C     C_3   0.967856 0.080914 0.540304 -0.036259
C35   C     C_R   0.300990 0.788142 0.376271 0.073279
C36   C     C_R   0.487359 0.717710 0.486878 0.039196
C37   C     C_3   0.042066 0.020116 0.395815 -0.234394
C38   C     C_3   0.899199 0.022712 0.395822 -0.268616
C39   C     C_3   0.065532 0.894508 0.578230 0.246684
C40   C     C_3   0.110398 0.082396 0.536683 -0.272869
C41   C     C_3   0.122518 0.998708 0.503078 0.039397
C42   C     C_R   0.460028 0.187269 0.205181 -0.065843
C43   C     C_R   0.528141 0.812658 0.794340 -0.003106
C44   C     C_R   0.395772 0.215305 0.028448 0.381151
C45   C     C_R   0.414445 0.149177 0.129596 -0.093775
C46   C     C_R   0.486315 0.291809 0.178764 -0.158485
Cu1   Cu    Cu3+1 0.465900 0.918260 0.475680 0.966643
Cu2   Cu    Cu3+1 0.534100 0.081740 0.524320 0.965042
F1    F     F_    0.353512 0.176247 0.956564 -0.634825
F2    F     F_    0.828597 0.284526 0.738293 -0.635885
F3    F     F_    0.080379 0.815737 0.555716 -0.629760
H1    H     H_    0.047115 0.960507 0.370054 0.176148
H2    H     H_    0.082676 0.093884 0.341136 0.104860
H3    H     H_    0.408212 0.535189 0.793614 0.119509
H4    H     H_    0.507422 0.465139 0.203027 0.102259
H5    H     H_    0.571169 0.814595 0.027589 0.120292
H6    H     H_    0.784002 0.457482 0.695310 0.190010
H7    H     H_    0.576187 0.729720 0.535560 0.113674
H8    H     H_    0.245124 0.850843 0.340088 0.131564
H9    H     H_    0.171997 0.514906 0.363175 0.113879
H10   H     H_    0.737266 0.138415 0.675889 0.169436
H11   H     H_    0.872060 0.098843 0.343653 0.115146
H12   H     H_    0.118390 0.881835 0.656197 0.117901
H13   H     H_    0.674461 0.602905 0.612419 0.101340
H14   H     H_    0.283133 0.370519 0.452548 0.106020
H15   H     H_    0.160040 0.692913 0.314073 0.101044
H16   H     H_    0.835616 0.966770 0.366619 0.145233
H17   H     H_    0.861332 0.835019 0.545542 0.167355
H18   H     H_    0.172575 0.071972 0.611489 0.140296
H19   H     H_    0.146130 0.158128 0.482249 0.109521
H20   H     H_    0.939341 0.156461 0.486794 0.162217
H21   H     H_    0.998316 0.129522 0.655773 0.253748
H22   H     H_    0.997208 0.004047 0.696478 0.229934
H23   H     H_    0.899701 0.869296 0.651649 0.087510
H24   H     H_    0.339645 0.256450 0.428577 0.225521
H25   H     H_    0.437045 0.365080 0.363328 0.199979
H26   H     H_    0.367972 0.357625 0.841562 0.187544
H27   H     H_    0.496352 0.681940 0.761176 0.126464
H28   H     H_    0.568525 0.931310 0.851117 0.148220
H29   H     H_    0.546858 0.643086 0.154924 0.113431
H30   H     H_    0.393676 0.068341 0.148591 0.154211
H31   H     H_    0.528586 0.318023 0.238400 0.153679
N1    N     N_R   0.585360 0.204570 0.560800 -0.248433
N2    N     N_R   0.414550 0.795430 0.439160 -0.235022
N3    N     N_3   0.951752 0.065297 0.641629 -0.618603
N4    N     N_3   0.433679 0.290800 0.417229 -0.573050
O1    O     O_R   0.455060 0.022100 0.338110 -0.518376
O2    O     O_R   0.512640 0.160150 0.379180 -0.466007
O3    O     O_R   0.288900 0.930980 0.479450 -0.443359
O4    O     O_R   0.346480 0.069030 0.520520 -0.517910
O5    O     O_R   0.487360 0.839850 0.620820 -0.501064
O6    O     O_R   0.544940 0.977900 0.661890 -0.509074
O7    O     O_R   0.653520 0.930970 0.479480 -0.529432
O8    O     O_R   0.711100 0.069020 0.520550 -0.477527

loop_
_geom_bond_atom_site_label_1
_geom_bond_atom_site_label_2
_ccdc_geom_bond_type
C44   F1    S    
C1    O1    A    
C14   H5    S    
C39   F3    S    
H21   N3    S    
C7    C8    A    
C39   C41   S    
C2    C46   A    
C12   C23   S    
C26   C27   A    
C29   C30   A    
C40   H19   S    
C12   C28   S    
C34   C40   S    
C32   C36   A    
C35   H8    S    
C19   H10   S    
C36   H7    S    
C5    C6    A    
C11   C14   A    
C4    C41   S    
C28   O8    A    
C18   C19   A    
C42   C46   A    
C26   H13   S    
C24   C29   A    
C46   H31   S    
C15   H28   S    
Cu1   Cu2   S    
C20   N4    S    
Cu2   O2    S    
C9    H4    S    
C9    C10   A    
C37   H2    S    
C1    O2    A    
Cu2   O4    S    
C21   C22   A    
C12   C38   S    
Cu1   O3    S    
C19   N1    A    
C33   H15   S    
C4    O4    A    
C3    C44   A    
C40   H18   S    
C24   C25   A    
C3    C8    A    
C27   H6    S    
C37   H1    S    
C10   H29   S    
C25   C26   A    
C30   H9    S    
C28   O7    A    
C34   N3    S    
Cu1   O1    S    
C23   H17   S    
C17   C43   A    
C5    C9    A    
C37   C38   S    
H24   N4    S    
C31   C32   A    
C31   C33   A    
Cu1   O7    S    
Cu1   N2    S    
C38   H16   S    
C16   C43   S    
H22   N3    S    
Cu2   O8    S    
C29   H14   S    
C40   C41   S    
C16   O6    A    
C22   C27   A    
C8    H26   S    
C21   C24   A    
C2    C5    A    
C23   H23   S    
C12   C34   S    
H25   N4    S    
C44   C45   A    
C18   F2    S    
C4    O3    A    
C18   C22   A    
Cu1   O5    S    
C45   H30   S    
C35   N2    A    
C6    C7    A    
C39   H12   S    
Cu2   N1    S    
C13   C17   A    
C2    C3    A    
C15   C43   A    
C6    C13   A    
C11   C13   A    
C30   C31   A    
C36   N2    A    
C23   C39   S    
C17   H27   S    
C33   C35   A    
C37   C41   S    
C10   C11   A    
C1    C42   S    
C20   C21   A    
C16   O5    A    
Cu2   O6    S    
C20   N1    A    
C14   C15   A    
C7    H3    S    
C34   H20   S    
C42   C45   A    
C38   H11   S    
C25   C32   A    
