data_mof_unit_42962.cif
_audit_creation_date              2012-12-11T18:04:53-0500
_audit_creation_method            fapswitch 2.2
_symmetry_space_group_name_H-M    P1
_symmetry_Int_Tables_number       1
_space_group_crystal_system       triclinic
_cell_length_a                    8.2742
_cell_length_b                    12.83452
_cell_length_c                    22.756515
_cell_angle_alpha                 97.244921
_cell_angle_beta                  88.993515
_cell_angle_gamma                 98.473456
_cell_volume                      2371.17266673

loop_
_atom_site_label
_atom_site_type_symbol
_atom_type_description
_atom_site_fract_x
_atom_site_fract_y
_atom_site_fract_z
_atom_type_partial_charge
Ba1   Ba    Ba6+2 0.856210 0.551220 0.472190 1.660970
Ba2   Ba    Ba6+2 0.333620 0.448870 0.527810 1.682229
C1    C     C_3   0.625555 0.915974 0.298065 0.209836
C2    C     C_R   0.105279 0.600479 0.941758 -0.027903
C3    C     C_R   0.057957 0.599850 0.882122 0.590141
C4    C     C_3   0.121899 0.768129 0.309686 0.317601
C5    C     C_R   0.932715 0.418022 0.878129 0.597172
C6    C     C_R   0.979303 0.415934 0.937650 -0.033613
C7    C     C_R   0.065570 0.507920 0.969625 -0.051518
C8    C     C_R   0.190945 0.691851 0.974331 -0.076947
C9    C     C_R   0.235867 0.691507 0.033275 -0.073662
C10   C     C_R   0.197381 0.599632 0.061725 -0.024303
C11   C     C_R   0.112290 0.507443 0.029730 -0.049898
C12   C     C_3   0.640208 0.822128 0.331383 0.438860
C13   C     C_R   0.942049 0.323874 0.965993 -0.097541
C14   C     C_R   0.989040 0.323223 0.024797 -0.078702
C15   C     C_R   0.074198 0.414791 0.057539 -0.026828
C16   C     C_3   0.091064 0.792544 0.247533 -0.272680
C17   C     C_R   0.122740 0.415474 0.117209 0.590035
C18   C     C_R   0.241897 0.598496 0.121453 0.572558
C19   C     C_2   0.764576 0.494068 0.772903 -0.082446
C20   C     C_3   0.716581 0.499127 0.708812 -0.053903
C21   C     C_1   0.005875 0.531376 0.686779 0.031264
C22   C     C_2   0.051353 0.532101 0.742608 -0.074581
C23   C     C_3   0.527565 0.276357 0.343408 0.696973
C24   C     C_2   0.924483 0.510694 0.789376 0.207425
C25   C     C_R   0.412229 0.551877 0.230601 -0.073523
C26   C     C_R   0.454612 0.561631 0.290713 -0.013145
C27   C     C_R   0.186369 0.474983 0.313986 0.077679
C28   C     C_3   0.198750 0.777685 0.593966 0.310200
C29   C     C_R   0.140382 0.467088 0.253791 -0.095735
C30   C     C_R   0.252059 0.508179 0.211206 0.189032
C31   C     C_2   0.859031 0.490446 0.667564 -0.223598
C32   C     C_R   0.758601 0.178589 0.523048 -0.279251
C33   C     C_R   0.434671 0.810384 0.474274 -0.296291
C34   C     C_3   0.579414 0.242049 0.280109 0.253707
C35   C     C_R   0.407133 0.987844 0.455532 -0.101002
C36   C     C_R   0.344870 0.880362 0.452033 -0.018851
C37   C     C_R   0.580686 0.847166 0.505097 0.084967
C38   C     C_R   0.643881 0.958227 0.510810 -0.071284
C39   C     C_R   0.555798 0.028827 0.485010 -0.085451
C40   C     C_3   0.136823 0.884022 0.605376 0.302190
C41   C     C_R   0.615102 0.139363 0.492003 0.035525
C42   C     C_R   0.851284 0.110636 0.544708 0.024025
C43   C     C_R   0.790877 0.001875 0.541446 -0.092111
C44   C     C_3   0.975080 0.224227 0.404654 0.443502
C45   C     C_3   0.161837 0.218383 0.683409 0.408047
C46   C     C_3   0.961530 0.104383 0.389743 0.225477
C47   C     C_3   0.729722 0.712361 0.650250 0.300929
C48   C     C_3   0.769153 0.761251 0.713855 -0.375449
C49   C     C_3   0.378674 0.993609 0.632039 0.212209
C50   C     C_3   0.262940 0.254231 0.841019 0.218528
C51   C     C_3   0.167537 0.191759 0.746756 0.248422
C52   C     C_3   0.664178 0.219537 0.689677 0.667025
C53   C     C_3   0.671057 0.125098 0.724325 -0.340636
C54   C     C_R   0.340149 0.527040 0.331939 -0.268977
H1    H     H_    0.717198 0.850506 0.371415 -0.025672
H2    H     H_    0.576585 0.978671 0.328576 0.026258
H3    H     H_    0.850854 0.838205 0.714248 0.144975
H4    H     H_    0.832465 0.708389 0.737309 0.080015
H5    H     H_    0.654777 0.775122 0.737885 0.124335
H6    H     H_    0.515236 0.790203 0.345591 -0.079358
H7    H     H_    0.615825 0.346201 0.361436 0.013164
H8    H     H_    0.490165 0.173943 0.259956 0.059418
H9    H     H_    0.580816 0.309460 0.253621 0.003784
H10   H     H_    0.748249 0.948350 0.282057 0.060853
H11   H     H_    0.070435 0.717571 0.216830 0.105500
H12   H     H_    0.007743 0.869529 0.619594 0.059807
H13   H     H_    0.285592 0.224971 0.664127 0.042297
H14   H     H_    0.117119 0.295926 0.684472 0.085620
H15   H     H_    0.040105 0.169738 0.762174 0.049708
H16   H     H_    0.234716 0.122621 0.746682 0.052793
H17   H     H_    0.627820 0.189423 0.643246 -0.014050
H18   H     H_    0.738488 0.066066 0.698378 0.090878
H19   H     H_    0.546769 0.086487 0.734512 0.084520
H20   H     H_    0.027418 0.701889 0.319290 0.089757
H21   H     H_    0.733642 0.151815 0.767522 0.142230
H22   H     H_    0.957779 0.250500 0.044646 0.121481
H23   H     H_    0.137970 0.921517 0.563979 0.007986
H24   H     H_    0.876428 0.251637 0.942692 0.116137
H25   H     H_    0.301280 0.763844 0.056553 0.126072
H26   H     H_    0.503356 0.579570 0.199202 0.122055
H27   H     H_    0.223368 0.764355 0.954357 0.122473
H28   H     H_    0.179279 0.550472 0.754956 0.127592
H29   H     H_    0.669468 0.481544 0.805826 0.103262
H30   H     H_    0.018479 0.429776 0.240471 0.133729
H31   H     H_    0.374653 0.535259 0.378132 0.067260
H32   H     H_    0.244730 0.743427 0.311177 -0.007739
H33   H     H_    0.840358 0.448802 0.622999 0.089031
H34   H     H_    0.855488 0.245599 0.419556 -0.150306
H35   H     H_    0.334686 0.038864 0.436971 0.168429
H36   H     H_    0.860698 0.952870 0.562230 0.094793
H37   H     H_    0.804226 0.262711 0.527158 0.065879
H38   H     H_    0.384593 0.727072 0.471052 0.065436
H39   H     H_    0.981048 0.832428 0.246856 0.135664
H40   H     H_    0.197155 0.845692 0.232215 0.165942
H41   H     H_    0.330726 0.788775 0.584019 -0.055984
H42   H     H_    0.132686 0.733431 0.554505 0.014260
H43   H     H_    0.389542 0.993759 0.583553 0.008935
H44   H     H_    0.473472 0.950683 0.647604 0.058739
H45   H     H_    0.066239 0.250191 0.440590 0.039796
H46   H     H_    0.401081 0.077063 0.651016 0.030541
H47   H     H_    0.104758 0.080360 0.322517 0.336666
H48   H     H_    0.512405 0.947634 0.230704 0.308305
H49   H     H_    0.354326 0.341450 0.381376 0.277605
H50   H     H_    0.762181 0.191107 0.237966 0.306975
H51   H     H_    0.315267 0.326810 0.870176 0.067514
H52   H     H_    0.348913 0.195252 0.840948 0.043014
H53   H     H_    0.143060 0.223746 0.860072 0.031299
H54   H     H_    0.852320 0.303368 0.730730 0.310343
H55   H     H_    0.858736 0.075405 0.358417 0.021806
H56   H     H_    0.934719 0.065871 0.430283 0.032119
H57   H     H_    0.842858 0.689210 0.629132 -0.001520
H58   H     H_    0.633947 0.642138 0.649845 0.032983
N1    N     N_R   0.972108 0.509398 0.850890 -0.420945
N2    N     N_R   0.204157 0.507187 0.149191 -0.425452
O1    O     O_2   0.890290 0.440320 0.360790 -0.463696
O2    O     O_2   0.191347 0.115904 0.544215 -0.503906
O3    O     O_3   0.058625 0.137667 0.649507 -0.627560
O4    O     O_3   0.130840 0.441440 0.431840 -0.517554
O5    O     O_3   0.574800 0.630800 0.528960 -0.482349
O6    O     O_2   0.344900 0.234690 0.472540 -0.456408
O7    O     O_3   0.523935 0.190933 0.376425 -0.636031
O8    O     O_2   0.382947 0.431945 0.705823 -0.473868
O9    O     O_3   0.548208 0.280787 0.716437 -0.591986
O10   O     O_2   0.091689 0.680392 0.858225 -0.593755
O11   O     O_2   0.858240 0.338128 0.850453 -0.617546
O12   O     O_3   0.670244 0.787871 0.621121 -0.644634
O13   O     O_2   0.094566 0.333703 0.140226 -0.595085
O14   O     O_2   0.313474 0.679666 0.148866 -0.584509
O15   O     O_3   0.672400 0.637930 0.395560 -0.486638
O16   O     O_2   0.790496 0.556084 0.291969 -0.507970
O17   O     O_3   0.020780 0.270331 0.353395 -0.563596
O18   O     O_3   0.715044 0.746690 0.294422 -0.593841
O19   O     O_2   0.844800 0.765340 0.527490 -0.502360
O20   O     O_3   0.090520 0.693800 0.424220 -0.510782
O21   O     O_2   0.008671 0.883450 0.458797 -0.483388
O22   O     O_3   0.223894 0.950550 0.651783 -0.619897
O23   O     O_3   0.111398 0.859012 0.350020 -0.563454
O24   O     O_3   0.109069 0.077031 0.365803 -0.680000
O25   O     O_3   0.520145 0.883041 0.249692 -0.692642
O26   O     O_3   0.371348 0.303566 0.341668 -0.780735
O27   O     O_3   0.735350 0.212079 0.280064 -0.736936
O28   O     O_3   0.245198 0.281224 0.783585 -0.623240
O29   O     O_3   0.819919 0.278699 0.689000 -0.792234
O30   O     O_2   0.299410 0.559720 0.639240 -0.460739
O31   O     O_3   0.058870 0.558650 0.568170 -0.508091
O32   O     O_3   0.517310 0.362160 0.604450 -0.486280
O33   O     O_3   0.174570 0.729603 0.645885 -0.614819
O34   O     O_3   0.614910 0.369290 0.471050 -0.496368
O35   O     O_3   0.099190 0.306290 0.575790 -0.487505
P1    P     P_3+3 0.057140 0.408270 0.369700 1.047989
P2    P     P_3+3 0.667360 0.749400 0.544670 0.969122
P3    P     P_3+3 0.139345 0.829992 0.421937 0.970235
P4    P     P_3+3 0.132580 0.591820 0.630310 0.988313
P5    P     P_3+3 0.052493 0.168106 0.576806 0.963901
P6    P     P_3+3 0.658354 0.622151 0.318046 0.960237
P7    P     P_3+3 0.527914 0.234473 0.452836 0.953977
P8    P     P_3+3 0.544089 0.395495 0.681880 1.000922

loop_
_geom_bond_atom_site_label_1
_geom_bond_atom_site_label_2
_ccdc_geom_bond_type
C17   O13   D    
C47   H57   S    
C19   C24   D    
Ba2   O34   S    
Ba2   P4    S    
C21   P4    S    
C40   O22   S    
C16   H40   S    
C23   O26   S    
C1    O25   S    
C32   H37   S    
C41   P7    S    
C26   C54   A    
H50   O27   S    
C9    H25   S    
C49   H46   S    
C28   H41   S    
O3    P5    S    
O5    P2    S    
C37   P2    S    
C48   H3    S    
C50   H53   S    
C34   O27   S    
C22   C24   S    
C53   H21   S    
C33   H38   S    
C20   P8    S    
Ba2   O32   S    
C13   C14   A    
C12   H6    S    
O8    P8    D    
C8    H27   S    
C49   H44   S    
C4    H32   S    
Ba1   P1    S    
Ba1   Ba2   S    
C23   H7    S    
C5    N1    Am   
C4    O23   S    
O15   P6    S    
C43   H36   S    
C7    C11   A    
C24   N1    S    
C45   H13   S    
C53   H18   S    
O30   P4    D    
C29   C30   A    
C50   H51   S    
C14   C15   A    
C21   C31   D    
C3    O10   D    
C21   C22   D    
O2    P5    D    
Ba1   O20   S    
O31   P4    S    
C47   O12   S    
C1    H2    S    
C45   C51   S    
C53   H19   S    
C45   O3    S    
C47   H58   S    
C40   H23   S    
C29   H30   S    
C19   C20   S    
C3    N1    Am   
C40   H12   S    
C16   H39   S    
C39   C41   A    
O17   P1    S    
C52   O9    S    
C19   H29   S    
Ba2   O6    S    
C49   H43   S    
C38   C43   A    
C4    C16   S    
C44   H45   S    
C44   C46   S    
O4    P1    S    
C35   H35   S    
C42   P5    S    
C5    C6    A    
C33   C36   A    
C32   C42   A    
H49   O26   S    
C18   N2    Am   
Ba2   O4    S    
C34   H9    S    
C6    C7    A    
C54   H31   S    
C12   O18   S    
O23   P3    S    
C16   H11   S    
Ba1   O4    S    
C33   C37   A    
C12   H1    S    
C45   H14   S    
C35   C36   A    
C31   H33   S    
C52   H17   S    
O20   P3    S    
C13   H24   S    
C46   O24   S    
C10   C18   A    
O6    P7    D    
Ba1   O34   S    
Ba1   O1    S    
O35   P5    S    
C30   N2    S    
Ba1   P2    S    
C23   O7    S    
O33   P4    S    
C1    C12   S    
O12   P2    S    
C52   O29   S    
C38   C39   A    
C46   H56   S    
C6    C13   A    
C50   O28   S    
Ba1   O31   S    
C1    H10   S    
C36   P3    S    
C2    C8    A    
H54   O29   S    
C37   C38   A    
C42   C43   A    
Ba2   O5    S    
Ba2   O35   S    
C20   C31   S    
C52   C53   S    
O34   P7    S    
O7    P7    S    
C25   C30   A    
C25   H26   S    
C32   C41   A    
C18   O14   D    
C2    C3    A    
Ba1   O15   S    
C9    C10   A    
O9    P8    S    
C4    H20   S    
C44   H34   S    
C27   C54   A    
Ba2   O30   S    
C46   H55   S    
C28   H42   S    
O16   P6    D    
O19   P2    D    
C11   C15   A    
C51   O28   S    
C48   H4    S    
Ba2   O31   S    
C27   C29   A    
C22   H28   S    
H47   O24   S    
C27   P1    S    
C17   N2    Am   
C26   P6    S    
C15   C17   A    
O21   P3    D    
O1    P1    D    
C14   H22   S    
C35   C39   A    
Ba1   O5    S    
C8    C9    A    
C23   C34   S    
C49   O22   S    
O18   P6    S    
C10   C11   A    
C50   H52   S    
C47   C48   S    
Ba1   O19   S    
C25   C26   A    
C48   H5    S    
H48   O25   S    
C28   C40   S    
C5    O11   D    
C2    C7    A    
C34   H8    S    
C51   H16   S    
O32   P8    S    
C28   O33   S    
C44   O17   S    
C51   H15   S    
