data_mof_unit_6987.cif
_audit_creation_date              2012-12-10T17:48:40-0500
_audit_creation_method            fapswitch 2.2
_symmetry_space_group_name_H-M    P1
_symmetry_Int_Tables_number       1
_space_group_crystal_system       triclinic
_cell_length_a                    15.714844
_cell_length_b                    10.732333
_cell_length_c                    9.996547
_cell_angle_alpha                 87.068044
_cell_angle_beta                  89.498884
_cell_angle_gamma                 93.573051
_cell_volume                      1680.38656937

loop_
_atom_site_label
_atom_site_type_symbol
_atom_type_description
_atom_site_fract_x
_atom_site_fract_y
_atom_site_fract_z
_atom_type_partial_charge
C1    C     C_R   0.502752 0.259434 0.503594 0.853825
C2    C     C_3   0.947833 0.460315 0.635451 0.550815
C3    C     C_3   0.917493 0.509236 0.496670 0.046160
C4    C     C_3   0.956830 0.644259 0.464709 0.518157
C5    C     C_3   0.055752 0.642765 0.455206 -0.115431
C6    C     C_1   0.825901 0.507917 0.496855 0.039887
C7    C     C_1   0.174930 0.506042 0.498212 -0.061328
C8    C     C_1   0.250123 0.504003 0.499806 -0.167552
C9    C     C_R   0.481484 0.088134 0.757448 -0.183884
C10   C     C_R   0.440266 0.016261 0.861985 -0.270740
C11   C     C_R   0.393935 0.905912 0.835513 -0.201249
C12   C     C_R   0.338718 0.500621 0.500295 0.928315
C13   C     C_R   0.399045 0.858283 0.709259 0.644840
C14   C     C_R   0.448992 0.924061 0.606889 -0.053962
C15   C     C_R   0.478127 0.047966 0.624794 0.040790
C16   C     C_R   0.501525 0.124088 0.508494 -0.117351
C17   C     C_R   0.507544 0.071098 0.383900 -0.252555
C18   C     C_R   0.492440 0.944832 0.370750 0.139826
C19   C     C_R   0.472153 0.869120 0.487975 -0.134394
C20   C     C_R   0.361523 0.389914 0.149459 -0.094177
C21   C     C_R   0.280944 0.396889 0.095143 -0.262446
C22   C     C_R   0.274421 0.428623 0.959490 -0.137248
C23   C     C_R   0.490914 0.738306 0.496258 0.929750
C24   C     C_R   0.346453 0.414632 0.877957 0.300536
C25   C     C_R   0.427909 0.452109 0.933374 -0.074891
C26   C     C_R   0.431756 0.445264 0.077069 0.074278
C27   C     C_R   0.565681 0.556089 0.065203 0.034186
C28   C     C_R   0.566159 0.551936 0.922899 0.646772
C29   C     C_R   0.661408 0.501350 0.499333 0.902192
C30   C     C_3   0.045860 0.464161 0.636917 -0.446655
C31   C     C_3   0.045702 0.419543 0.387359 -0.011011
C32   C     C_3   0.946924 0.421067 0.389244 -0.670763
C33   C     C_1   0.750439 0.505003 0.497820 -0.131760
C34   C     C_3   0.083536 0.507568 0.496439 0.176979
H1    H     H_    0.921889 0.362275 0.656124 0.064259
H2    H     H_    0.069983 0.525049 0.715595 0.206309
H3    H     H_    0.932376 0.679844 0.366624 0.039047
H4    H     H_    0.524168 0.128870 0.294257 0.170555
H5    H     H_    0.516388 0.172761 0.783892 0.182901
H6    H     H_    0.440615 0.049895 0.962122 0.160574
H7    H     H_    0.355098 0.855896 0.912827 0.156623
H8    H     H_    0.066582 0.371393 0.670308 0.146922
H9    H     H_    0.367865 0.345154 0.247074 0.189124
H10   H     H_    0.224398 0.372108 0.155575 0.144661
H11   H     H_    0.211089 0.426391 0.917575 0.153091
H12   H     H_    0.066850 0.463841 0.288283 0.124878
H13   H     H_    0.916283 0.325637 0.408711 0.225875
H14   H     H_    0.924806 0.454159 0.288740 0.192601
H15   H     H_    0.070937 0.658196 0.346208 0.064893
N1    N     N_R   0.499210 0.498800 0.142780 -0.148163
N2    N     N_R   0.499180 0.498720 0.857170 -0.178239
O1    O     O_R   0.500000 0.316780 0.614690 -0.671189
O2    O     O_R   0.499990 0.316750 0.385360 -0.632905
O3    O     O_R   0.377150 0.500020 0.614720 -0.578229
O4    O     O_R   0.377140 0.499990 0.385380 -0.646409
O5    O     O_R   0.500010 0.683250 0.614640 -0.546506
O6    O     O_R   0.500000 0.683220 0.385310 -0.644220
O7    O     O_R   0.622860 0.500010 0.614620 -0.530049
O8    O     O_R   0.622850 0.499980 0.385280 -0.637104
Zn1   Zn    Zn3+2 0.500010 0.500020 0.653130 1.020508
Zn2   Zn    Zn3+2 0.499990 0.499980 0.346870 0.915681
F1    F     F_    0.918190 0.530772 0.736632 -0.613482
F2    F     F_    0.352010 0.751466 0.685328 -0.695391
C35   C     C_3   0.496851 0.897675 0.230193 -0.365835
C36   C     C_3   0.411008 0.837731 0.187713 -0.789230
H16   H     H_    0.421397 0.778802 0.101794 0.240854
H17   H     H_    0.379202 0.777376 0.269112 0.271990
H18   H     H_    0.367468 0.911652 0.157936 0.228753
H19   H     H_    0.515161 0.974694 0.155017 0.180008
H20   H     H_    0.548422 0.833359 0.222037 0.205160
C37   C     C_3   0.638281 0.631562 0.125817 -0.324367
C38   C     C_3   0.720271 0.561745 0.128206 -0.759216
H21   H     H_    0.708706 0.465828 0.174392 0.255277
H22   H     H_    0.745547 0.554768 0.025007 0.299544
H23   H     H_    0.769325 0.613241 0.187018 0.226688
H24   H     H_    0.650231 0.721530 0.066467 0.206961
H25   H     H_    0.621742 0.659309 0.226486 0.235680
C39   C     C_3   0.338042 0.292379 0.807722 -0.386961
C40   C     C_3   0.249224 0.251652 0.757267 -0.953298
H26   H     H_    0.206303 0.218292 0.842255 0.264580
H27   H     H_    0.220987 0.329871 0.700955 0.267021
H28   H     H_    0.254263 0.173068 0.690034 0.260938
H29   H     H_    0.379341 0.295459 0.721612 0.262979
H30   H     H_    0.357277 0.218011 0.879721 0.204023
F3    F     F_    0.632086 0.608722 0.849894 -0.637333
C41   C     C_3   0.078759 0.286014 0.380314 -0.353326
C42   C     C_3   0.058643 0.193294 0.499527 -0.832486
H31   H     H_    0.107707 0.204392 0.577511 0.248642
H32   H     H_    0.994431 0.202546 0.542883 0.255097
H33   H     H_    0.061215 0.096526 0.465950 0.243335
H34   H     H_    0.050746 0.244157 0.289816 0.205191
H35   H     H_    0.148872 0.293075 0.363178 0.188410
C43   C     C_3   0.105530 0.757941 0.513094 -0.311478
C44   C     C_3   0.112959 0.759767 0.665277 -0.703815
H36   H     H_    0.137064 0.854555 0.692365 0.225138
H37   H     H_    0.050432 0.738379 0.716138 0.314932
H38   H     H_    0.160102 0.693606 0.702011 0.252505
H39   H     H_    0.171281 0.766349 0.470051 0.196430
H40   H     H_    0.074883 0.843829 0.476908 0.211018
F4    F     F_    0.931253 0.724104 0.559999 -0.610335

loop_
_geom_bond_atom_site_label_1
_geom_bond_atom_site_label_2
_ccdc_geom_bond_type
C2    H1    S    
C42   H31   S    
C43   C44   S    
C3    C6    S    
C7    C8    T    
O3    Zn1   S    
C41   H34   S    
C26   N1    A    
C37   H24   S    
C28   N2    A    
O7    Zn1   S    
C15   C16   A    
C29   C33   S    
C9    H5    S    
C10   H6    S    
C18   C19   A    
C1    O2    A    
O1    Zn1   S    
O2    Zn2   S    
C39   H29   S    
C29   O8    A    
C16   C17   A    
C36   H17   S    
C31   H12   S    
C35   H20   S    
C9    C10   A    
C43   H40   S    
C27   N1    A    
C31   C41   S    
C21   C22   A    
C32   H14   S    
C5    H15   S    
C3    C32   S    
C38   H23   S    
O8    Zn2   S    
C30   C34   S    
C23   O5    A    
C24   C25   A    
C38   H22   S    
C40   H27   S    
C41   C42   S    
C4    C5    S    
C44   H38   S    
C25   C26   A    
O5    Zn1   S    
C19   C23   S    
C25   N2    A    
C21   H10   S    
C31   C32   S    
C13   F2    S    
C8    C12   S    
C36   H18   S    
C5    C34   S    
C20   C21   A    
C17   C18   A    
C31   C34   S    
C1    C16   S    
C35   H19   S    
C29   O7    A    
C44   H37   S    
C24   C39   S    
C42   H32   S    
C32   H13   S    
C22   C24   A    
C3    C4    S    
C37   H25   S    
C20   H9    S    
C27   C37   S    
C23   O6    A    
C39   C40   S    
C14   C19   A    
C38   H21   S    
C40   H28   S    
C5    C43   S    
O6    Zn2   S    
C6    C33   T    
C30   H2    S    
C2    C30   S    
C35   C36   S    
C4    F4    S    
C2    C3    S    
C9    C15   A    
C37   C38   S    
C41   H35   S    
C11   C13   A    
C18   C35   S    
C20   C26   A    
O4    Zn2   S    
C7    C34   S    
C11   H7    S    
C17   H4    S    
C44   H36   S    
C1    O1    A    
C12   O4    A    
C10   C11   A    
C40   H26   S    
C39   H30   S    
C22   H11   S    
C4    H3    S    
C36   H16   S    
C42   H33   S    
C28   F3    S    
N1    Zn2   S    
C14   C15   A    
C30   H8    S    
N2    Zn1   S    
C13   C14   A    
C43   H39   S    
C12   O3    A    
C2    F1    S    
C27   C28   A    
