data_mof_unit_62817.cif
_audit_creation_date              2012-12-10T17:09:48-0500
_audit_creation_method            fapswitch 2.2
_symmetry_space_group_name_H-M    P1
_symmetry_Int_Tables_number       1
_space_group_crystal_system       triclinic
_cell_length_a                    21.657783
_cell_length_b                    21.619523
_cell_length_c                    22.033548
_cell_angle_alpha                 119.042172
_cell_angle_beta                  120.183013
_cell_angle_gamma                 88.858108
_cell_volume                      7445.9381223

loop_
_atom_site_label
_atom_site_type_symbol
_atom_type_description
_atom_site_fract_x
_atom_site_fract_y
_atom_site_fract_z
_atom_type_partial_charge
Br1   Br    Br    0.908819 0.222395 0.090304 -0.532480
Br2   Br    Br    0.130127 0.814531 0.909884 -0.524552
Br3   Br    Br    0.457528 0.040634 0.308291 -0.527174
Br4   Br    Br    0.541919 0.959323 0.691501 -0.529128
Br5   Br    Br    0.670992 0.398477 0.579646 -0.475429
Br6   Br    Br    0.326969 0.598348 0.416228 -0.473384
Br7   Br    Br    0.583027 0.403809 0.689023 -0.469709
Br8   Br    Br    0.417736 0.596204 0.311007 -0.467526
C1    C     C_R   0.496769 0.117268 0.494274 0.919308
C2    C     C_3   0.213731 0.706838 0.917711 0.251236
C3    C     C_3   0.803705 0.215373 0.049405 0.138269
C4    C     C_3   0.224788 0.790653 0.950756 0.123786
C5    C     C_3   0.753347 0.167142 0.951865 -0.404314
C6    C     C_3   0.275316 0.838058 0.048225 -0.405209
C7    C     C_1   0.836460 0.338847 0.173841 -0.069096
C8    C     C_1   0.166063 0.660970 0.826178 -0.024971
C9    C     C_1   0.663108 0.166821 0.825902 -0.062216
C10   C     C_1   0.337489 0.832861 0.173998 -0.056700
C11   C     C_1   0.625760 0.128992 0.750849 -0.116545
C12   C     C_R   0.503216 0.882724 0.505705 0.919490
C13   C     C_1   0.374377 0.870837 0.249075 -0.119582
C14   C     C_R   0.410423 0.115697 0.335972 0.227498
C15   C     C_R   0.589168 0.884340 0.664037 0.229184
C16   C     C_R   0.581061 0.083237 0.661933 0.930242
C17   C     C_R   0.418942 0.916732 0.338040 0.930279
C18   C     C_R   0.348919 0.113320 0.267669 -0.136746
C19   C     C_R   0.650592 0.886781 0.732445 -0.138220
C20   C     C_R   0.324872 0.175789 0.279132 -0.171710
C21   C     C_R   0.674738 0.824379 0.721100 -0.175085
C22   C     C_R   0.366551 0.242687 0.357115 -0.130920
C23   C     C_1   0.874536 0.376186 0.248921 -0.155628
C24   C     C_R   0.633222 0.757469 0.643111 -0.129872
C25   C     C_R   0.430701 0.246654 0.426008 0.033223
C26   C     C_R   0.569129 0.753422 0.574108 0.033762
C27   C     C_R   0.445616 0.180492 0.418122 0.046453
C28   C     C_R   0.554160 0.819543 0.581911 0.046092
C29   C     C_R   0.495022 0.182935 0.492700 -0.116801
C30   C     C_R   0.504939 0.817063 0.507272 -0.117195
C31   C     C_R   0.532975 0.249734 0.570848 -0.228213
C32   C     C_R   0.467205 0.750263 0.429123 -0.228758
C33   C     C_R   0.527777 0.315941 0.576737 0.331244
C34   C     C_1   0.126514 0.623777 0.751092 -0.162019
C35   C     C_R   0.472416 0.684073 0.423277 0.330962
C36   C     C_R   0.481018 0.314810 0.502482 -0.200485
C37   C     C_R   0.518950 0.685235 0.497580 -0.201851
C38   C     C_R   0.752644 0.503473 0.443107 -0.202544
C39   C     C_R   0.248020 0.498567 0.558381 -0.201575
C40   C     C_R   0.754200 0.467589 0.615788 0.270392
C41   C     C_R   0.244557 0.529511 0.381832 0.270879
C42   C     C_R   0.818090 0.506004 0.507599 -0.070851
C43   C     C_R   0.182108 0.494245 0.492853 -0.068882
C44   C     C_R   0.880831 0.501451 0.501381 0.857693
C45   C     C_3   0.708030 0.211903 0.917326 0.242325
C46   C     C_R   0.119302 0.498690 0.498901 0.859367
C47   C     C_R   0.919204 0.419494 0.337847 0.888211
C48   C     C_R   0.080756 0.580512 0.662166 0.886268
C49   C     C_R   0.620726 0.495353 0.500213 0.909359
C50   C     C_R   0.379262 0.504666 0.499785 0.908450
C51   C     C_R   0.491151 0.380754 0.500997 0.944723
C52   C     C_R   0.508744 0.619278 0.499013 0.943891
C53   C     C_R   0.753057 0.488454 0.563366 0.029427
C54   C     C_R   0.246430 0.510208 0.435686 0.030404
C55   C     C_R   0.888976 0.516785 0.643103 -0.152805
C56   C     C_3   0.293314 0.787573 0.082547 0.264152
C57   C     C_R   0.110386 0.480439 0.355734 -0.144681
C58   C     C_R   0.889442 0.507296 0.701369 -0.189601
C59   C     C_R   0.109318 0.488379 0.296296 -0.174153
C60   C     C_R   0.822186 0.480124 0.686090 -0.139053
C61   C     C_R   0.176242 0.515490 0.310911 -0.141825
C62   C     C_R   0.688169 0.497826 0.440729 -0.200496
C63   C     C_R   0.312398 0.504128 0.560566 -0.199642
C64   C     C_R   0.687604 0.490823 0.500339 -0.092938
C65   C     C_R   0.312373 0.509341 0.499678 -0.092696
C66   C     C_R   0.820686 0.504459 0.571852 0.064456
C67   C     C_3   0.704322 0.282470 0.047157 -0.037229
C68   C     C_R   0.179006 0.494240 0.427604 0.060080
C69   C     C_3   0.656607 0.235020 0.949058 -0.373414
C70   C     C_3   0.337278 0.738679 0.051765 -0.457309
C71   C     C_3   0.763164 0.282486 0.950760 -0.398817
C72   C     C_3   0.219270 0.736670 0.047746 -0.389536
C73   C     C_3   0.809737 0.331191 0.047878 -0.416068
C74   C     C_3   0.174492 0.685983 0.950945 -0.425449
C75   C     C_3   0.675255 0.258147 0.086923 -0.405293
C76   C     C_3   0.641704 0.174901 0.042910 -0.814981
C77   C     C_3   0.341494 0.708695 0.927311 -0.401829
C78   C     C_3   0.292340 0.692495 0.953710 -0.049043
C79   C     C_3   0.310433 0.657638 0.833897 -0.852733
C80   C     C_3   0.789669 0.292472 0.082219 0.229781
H1    H     H_    0.822972 0.464797 0.726473 0.178636
H2    H     H_    0.433123 0.749714 0.372088 0.162757
H3    H     H_    0.321368 0.063746 0.204952 0.170513
H4    H     H_    0.678010 0.936356 0.795145 0.165230
H5    H     H_    0.276499 0.173495 0.226416 0.165026
H6    H     H_    0.723064 0.826729 0.773896 0.160931
H7    H     H_    0.347563 0.290824 0.363457 0.155638
H8    H     H_    0.652311 0.709395 0.636853 0.154824
H9    H     H_    0.638578 0.499495 0.392370 0.171513
H10   H     H_    0.362365 0.503750 0.609772 0.171904
H11   H     H_    0.751461 0.505365 0.394263 0.151819
H12   H     H_    0.174898 0.529603 0.269439 0.178936
H13   H     H_    0.249613 0.498053 0.608113 0.152234
H14   H     H_    0.942205 0.533972 0.654244 0.143335
H15   H     H_    0.057366 0.463314 0.345034 0.145870
H16   H     H_    0.941951 0.516418 0.755526 0.157330
H17   H     H_    0.056550 0.478111 0.241650 0.161286
H18   H     H_    0.697803 0.338998 0.066123 0.133021
H19   H     H_    0.282763 0.632847 0.931575 0.165275
H20   H     H_    0.624783 0.268223 0.925566 0.157764
H21   H     H_    0.348268 0.700355 0.073642 0.177166
H22   H     H_    0.801311 0.266946 0.929517 0.202606
H23   H     H_    0.787801 0.147373 0.926147 0.215061
H24   H     H_    0.185384 0.770764 0.066451 0.201823
H25   H     H_    0.731973 0.314756 0.925235 0.182676
H26   H     H_    0.230759 0.702071 0.074426 0.180442
H27   H     H_    0.798496 0.385829 0.068792 0.168064
H28   H     H_    0.169663 0.627259 0.931632 0.166574
H29   H     H_    0.870334 0.342767 0.073266 0.224360
H30   H     H_    0.116500 0.690243 0.923265 0.222959
H31   H     H_    0.714531 0.116865 0.929853 0.164140
H32   H     H_    0.328228 0.872829 0.070011 0.172744
H33   H     H_    0.582863 0.155338 0.988528 0.255801
H34   H     H_    0.247785 0.876719 0.074074 0.214325
H35   H     H_    0.673726 0.141287 0.021001 0.250682
H36   H     H_    0.640873 0.164782 0.087365 0.254852
H37   H     H_    0.720264 0.280678 0.153599 0.214282
H38   H     H_    0.631014 0.284490 0.088647 0.211057
H39   H     H_    0.285389 0.599538 0.809108 0.255553
H40   H     H_    0.268517 0.677148 0.797382 0.263725
H41   H     H_    0.356440 0.659029 0.825058 0.256262
H42   H     H_    0.353399 0.767310 0.946733 0.214128
H43   H     H_    0.396476 0.700635 0.961988 0.221298
H44   H     H_    0.790902 0.187488 0.074451 0.143313
H45   H     H_    0.251735 0.806283 0.926593 0.134994
H46   H     H_    0.614113 0.184734 0.920962 0.205856
H47   H     H_    0.393009 0.774807 0.081533 0.185820
H48   H     H_    0.567246 0.250270 0.627852 0.162788
O1    O     O_R   0.448260 0.091600 0.499990 -0.627926
O2    O     O_R   0.448270 0.908380 0.500020 -0.579667
O3    O     O_R   0.509690 0.061420 0.622860 -0.584070
O4    O     O_R   0.490310 0.938580 0.377140 -0.583759
O5    O     O_R   0.613170 0.061430 0.622850 -0.623028
O6    O     O_R   0.386830 0.938570 0.377150 -0.623728
O7    O     O_R   0.908550 0.551730 0.500000 -0.616311
O8    O     O_R   0.091450 0.448270 0.500000 -0.616065
O9    O     O_R   0.908530 0.448300 0.500020 -0.613325
O10   O     O_R   0.091470 0.551700 0.499980 -0.612843
O11   O     O_R   0.938770 0.490290 0.377130 -0.626874
O12   O     O_R   0.551740 0.908400 0.500010 -0.627730
O13   O     O_R   0.061230 0.509710 0.622870 -0.628461
O14   O     O_R   0.938740 0.386860 0.377150 -0.600078
O15   O     O_R   0.061260 0.613140 0.622850 -0.594488
O16   O     O_R   0.626330 0.534680 0.569330 -0.619503
O17   O     O_R   0.373670 0.465320 0.430670 -0.617862
O18   O     O_R   0.556960 0.465330 0.430620 -0.618128
O19   O     O_R   0.443040 0.534670 0.569380 -0.619617
O20   O     O_R   0.534700 0.443070 0.569370 -0.545643
O21   O     O_R   0.465300 0.556930 0.430630 -0.544870
O22   O     O_R   0.465330 0.373710 0.430660 -0.625784
O23   O     O_R   0.534670 0.626290 0.569340 -0.627120
O24   O     O_R   0.551730 0.091620 0.499980 -0.579588
Zn1   Zn    Zn3+2 0.430910 0.999990 0.500010 1.027240
Zn2   Zn    Zn3+2 0.569090 0.000010 0.499990 1.028340
Zn3   Zn    Zn3+2 0.000200 0.569060 0.499990 0.995221
Zn4   Zn    Zn3+2 0.999800 0.430940 0.500010 0.989580
Zn5   Zn    Zn3+2 0.546330 0.546310 0.592620 1.039339
Zn6   Zn    Zn3+2 0.453670 0.453690 0.407380 1.043634

loop_
_geom_bond_atom_site_label_1
_geom_bond_atom_site_label_2
_ccdc_geom_bond_type
C46   O8    A    
C38   H11   S    
C37   C52   S    
C44   O9    A    
C39   H13   S    
C9    C45   S    
O17   Zn6   S    
C19   C21   A    
C10   C13   T    
C58   C60   A    
C17   O6    A    
Br1   C3    S    
C52   O23   A    
Br2   C4    S    
C3    H44   S    
O6    Zn1   S    
C79   H39   S    
O16   Zn5   S    
C73   H27   S    
C31   C33   A    
C77   C78   S    
C76   H35   S    
C14   C27   A    
C57   C68   A    
C6    H34   S    
C27   C29   A    
C21   C24   A    
C42   C66   A    
C21   H6    S    
C51   O22   A    
C36   C51   S    
O4    Zn2   S    
C49   O16   A    
C73   H29   S    
C12   O2    A    
C34   C48   S    
C1    O1    A    
C67   C75   S    
C32   C35   A    
C78   H19   S    
C57   C59   A    
C42   C44   S    
C12   O12   A    
C54   C65   A    
C15   C19   A    
C18   C20   A    
C70   H21   S    
C70   H47   S    
C3    C80   S    
C71   H22   S    
C62   H9    S    
C46   O10   A    
C70   C78   S    
C55   C58   A    
O5    Zn2   S    
Br6   C41   S    
C30   C32   A    
C41   C61   A    
O8    Zn4   S    
C56   C72   S    
O9    Zn4   S    
C54   C68   A    
C75   H37   S    
C55   H14   S    
O7    Zn3   S    
C79   H40   S    
Br5   C40   S    
C5    C45   S    
C31   H48   S    
C77   C79   S    
C16   O3    A    
C29   C31   A    
C63   H10   S    
C44   O7    A    
C58   H16   S    
O3    Zn1   S    
C17   O4    A    
C52   O21   A    
C72   C74   S    
O13   Zn4   S    
Br4   C15   S    
C59   H17   S    
C39   C43   A    
C1    O24   A    
C76   H33   S    
C2    C74   S    
O23   Zn5   S    
C20   H5    S    
C59   C61   A    
O24   Zn2   S    
C45   C69   S    
C22   H7    S    
C50   O17   A    
C77   H42   S    
C12   C30   S    
C47   O11   A    
C75   C76   S    
C16   O5    A    
C6    C56   S    
C72   H24   S    
C1    C29   S    
C60   H1    S    
C19   H4    S    
C26   C37   A    
C40   C60   A    
C48   O15   A    
C67   C69   S    
C39   C63   A    
C2    C4    S    
C23   C47   S    
C53   C64   A    
C24   H8    S    
C4    C6    S    
O15   Zn3   S    
C4    H45   S    
C71   H25   S    
C33   C36   A    
C69   H46   S    
C74   H30   S    
C75   H38   S    
C9    C11   T    
C8    C34   T    
O22   Zn6   S    
C47   O14   A    
C63   C65   A    
C5    H31   S    
C13   C17   S    
C2    C78   S    
C41   C54   A    
C22   C25   A    
C45   C71   S    
C25   C36   A    
C56   C70   S    
C69   H20   S    
C72   H26   S    
O21   Zn6   S    
C62   C64   A    
C51   O20   A    
C7    C23   T    
C55   C66   A    
C53   C66   A    
C76   H36   S    
O14   Zn4   S    
O10   Zn3   S    
C38   C42   A    
C71   C73   S    
C6    H32   S    
C43   C46   S    
O12   Zn2   S    
C79   H41   S    
C20   C22   A    
C11   C16   S    
C18   H3    S    
C74   H28   S    
C35   C37   A    
C2    C8    S    
C77   H43   S    
O1    Zn1   S    
C3    C5    S    
C10   C56   S    
C40   C53   A    
O20   Zn5   S    
O19   Zn5   S    
Br8   C35   S    
C28   C30   A    
C25   C27   A    
O2    Zn1   S    
C26   C28   A    
Br7   C33   S    
C49   C64   S    
C38   C62   A    
C73   C80   S    
C50   O19   A    
C61   H12   S    
C67   C80   S    
C67   H18   S    
C5    H23   S    
C15   C28   A    
C14   C18   A    
C43   C68   A    
C57   H15   S    
O18   Zn6   S    
Br3   C14   S    
O11   Zn3   S    
C32   H2    S    
C48   O13   A    
C49   O18   A    
C50   C65   S    
C24   C26   A    
C7    C80   S    
