data_mof_unit_58978.cif
_audit_creation_date              2012-12-10T17:17:24-0500
_audit_creation_method            fapswitch 2.2
_symmetry_space_group_name_H-M    P1
_symmetry_Int_Tables_number       1
_space_group_crystal_system       triclinic
_cell_length_a                    10.19242
_cell_length_b                    10.755076
_cell_length_c                    12.293385
_cell_angle_alpha                 90.500718
_cell_angle_beta                  109.27218
_cell_angle_gamma                 96.165479
_cell_volume                      1263.32548989

loop_
_atom_site_label
_atom_site_type_symbol
_atom_type_description
_atom_site_fract_x
_atom_site_fract_y
_atom_site_fract_z
_atom_type_partial_charge
C1    C     C_R   0.054589 0.733125 0.496950 0.934409
C2    C     C_R   0.428395 0.527556 0.992427 0.088833
C3    C     C_R   0.353703 0.561635 0.880755 0.090896
C4    C     C_R   0.575296 0.532801 0.024265 0.083756
C5    C     C_R   0.646982 0.590403 0.953013 0.178921
C6    C     C_R   0.571482 0.639993 0.849988 -0.245822
C7    C     C_R   0.426398 0.625930 0.814166 -0.198984
C8    C     C_R   0.652778 0.480484 0.124686 -0.241912
C9    C     C_R   0.869176 0.557854 0.094376 -0.202276
C10   C     C_R   0.207937 0.528320 0.837691 -0.114939
C11   C     C_2   0.093375 0.867005 0.508134 -0.380332
C12   C     C_R   0.135232 0.516572 0.713820 0.850695
C13   C     C_2   0.023292 0.936037 0.555555 -0.110428
C14   C     C_2   0.928314 0.135188 0.531369 -0.011148
C15   C     C_2   0.037617 0.069537 0.548400 -0.201890
C16   C     C_2   0.432636 0.512380 0.508664 -0.114387
C17   C     C_2   0.567149 0.488520 0.490136 -0.105624
C18   C     C_R   0.950025 0.267179 0.511239 0.899387
C19   C     C_R   0.866212 0.489273 0.286059 0.880214
C20   C     C_R   0.793567 0.599875 0.987471 -0.193207
C21   C     C_R   0.797533 0.501359 0.163929 -0.055904
C22   C     C_R   0.134912 0.488552 0.912335 -0.190191
C23   C     C_R   0.207485 0.473169 0.027711 -0.146951
C24   C     C_R   0.353027 0.489465 0.067443 -0.178102
H1    H     H_    0.982272 0.575737 0.125198 0.156063
H2    H     H_    0.945813 0.893225 0.591096 0.210800
H3    H     H_    0.172881 0.909110 0.474281 0.165285
H4    H     H_    0.564464 0.414575 0.428542 0.165050
H5    H     H_    0.435212 0.587392 0.569067 0.160998
H6    H     H_    0.684697 0.622810 0.602888 0.162962
H7    H     H_    0.315476 0.376177 0.398107 0.163782
H8    H     H_    0.624378 0.687958 0.796230 0.142824
H9    H     H_    0.849465 0.644761 0.934402 0.142306
H10   H     H_    0.602978 0.427686 0.177567 0.142348
H11   H     H_    0.022305 0.465036 0.880670 0.165280
H12   H     H_    0.403487 0.474474 0.157613 0.130309
H13   H     H_    0.151185 0.442921 0.085460 0.146329
H14   H     H_    0.371500 0.667177 0.734392 0.158333
H15   H     H_    0.138648 0.113298 0.547689 0.182908
N1    N     N_2   0.313640 0.446500 0.454900 -0.190719
N2    N     N_2   0.686360 0.553430 0.545150 -0.184599
O1    O     O_R   0.936910 0.692950 0.509080 -0.596494
O2    O     O_R   0.138320 0.658600 0.480130 -0.612529
O3    O     O_R   0.002900 0.525670 0.675280 -0.613065
O4    O     O_R   0.204310 0.491320 0.646330 -0.602729
O5    O     O_R   0.861680 0.341400 0.519870 -0.579201
O6    O     O_R   0.063090 0.307050 0.490920 -0.618844
O7    O     O_R   0.795690 0.508680 0.353670 -0.602863
O8    O     O_R   0.997100 0.474330 0.324720 -0.612373
Zn1   Zn    Zn3+2 0.865520 0.522940 0.519330 0.962476
Zn2   Zn    Zn3+2 0.134480 0.477060 0.480670 0.941993
I1    I     I_    0.725734 0.056251 0.528069 -0.401643

loop_
_geom_bond_atom_site_label_1
_geom_bond_atom_site_label_2
_ccdc_geom_bond_type
N2    Zn1   S    
C2    C4    A    
C23   C24   A    
H6    N2    S    
C6    C7    A    
C23   H13   S    
N1    Zn2   S    
O5    Zn1   S    
C9    C20   A    
C6    H8    S    
C1    C11   S    
C11   H3    S    
C4    C8    A    
C15   H15   S    
C18   O6    A    
O7    Zn1   S    
C2    C3    A    
C9    H1    S    
C12   O3    A    
C3    C10   A    
C8    H10   S    
C10   C22   A    
C22   H11   S    
C11   C13   D    
O2    Zn2   S    
C24   H12   S    
C10   C12   S    
O1    Zn1   S    
C20   H9    S    
C18   O5    A    
C19   C21   S    
C7    H14   S    
C16   N1    D    
C8    C21   A    
C3    C7    A    
C13   C15   S    
C2    C24   A    
C5    C6    A    
C17   N2    D    
C13   H2    S    
C16   C17   S    
O4    Zn2   S    
C9    C21   A    
C1    O1    A    
H7    N1    S    
O3    Zn1   S    
C5    C20   A    
C14   C18   S    
C14   C15   D    
C4    C5    A    
O6    Zn2   S    
C19   O7    A    
C16   H5    S    
C22   C23   A    
C17   H4    S    
C19   O8    A    
C1    O2    A    
C14   I1    S    
C12   O4    A    
O8    Zn2   S    
