data_mof_unit_35782.cif
_audit_creation_date              2012-10-26T20:32:03-0400
_audit_creation_method            fapswitch 2.2
_symmetry_space_group_name_H-M    P1
_symmetry_Int_Tables_number       1
_space_group_crystal_system       triclinic
_cell_length_a                    10.627171
_cell_length_b                    10.828255
_cell_length_c                    9.557449
_cell_angle_alpha                 90.287473
_cell_angle_beta                  89.645469
_cell_angle_gamma                 90.155974
_cell_volume                      1099.77230585

loop_
_atom_site_label
_atom_site_type_symbol
_atom_type_description
_atom_site_fract_x
_atom_site_fract_y
_atom_site_fract_z
_atom_type_partial_charge
C1    C     C_R   0.497306 0.262409 0.499652 0.545558
C2    C     C_R   0.479977 0.937488 0.625109 0.023599
C3    C     C_3   0.563773 0.933302 0.749888 -0.276346
C4    C     C_R   0.259299 0.500005 0.500473 0.550630
C5    C     C_3   0.562854 0.073374 0.749286 -0.263662
C6    C     C_R   0.608406 0.521616 0.073021 0.160523
C7    C     C_R   0.395940 0.466231 0.074706 -0.020510
C8    C     C_R   0.395874 0.466426 0.926176 -0.019454
C9    C     C_R   0.608674 0.520640 0.925789 0.162089
C10   C     C_3   0.689830 0.632830 0.919415 -0.281409
C11   C     C_3   0.688062 0.635057 0.078286 -0.277036
C12   C     C_3   0.960551 0.495343 0.367016 -0.115848
C13   C     C_R   0.497851 0.737727 0.500156 0.545321
C14   C     C_R   0.740697 0.499787 0.499590 0.549150
C15   C     C_3   0.039510 0.504066 0.633491 -0.114626
C16   C     C_3   0.957249 0.400404 0.569752 -0.123856
C17   C     C_3   0.877632 0.499530 0.498837 0.046115
C18   C     C_3   0.957585 0.603178 0.562511 -0.126881
C19   C     C_3   0.042715 0.599066 0.430723 -0.124488
C20   C     C_3   0.042426 0.396280 0.438031 -0.126949
C21   C     C_3   0.122366 0.499958 0.501558 0.047090
C22   C     C_R   0.479485 0.064612 0.624548 0.020893
C23   C     C_R   0.484241 0.129398 0.498897 0.005472
C24   C     C_R   0.471298 0.063767 0.372496 -0.166849
C25   C     C_R   0.471832 0.934964 0.372921 -0.167073
C26   C     C_R   0.485272 0.870940 0.499753 0.005903
Cu1   Cu    Cu3+1 0.499990 0.499980 0.640670 0.929326
Cu2   Cu    Cu3+1 0.500010 0.500020 0.359330 0.926266
H1    H     H_    0.919074 0.319156 0.626478 0.104586
H2    H     H_    0.919586 0.687721 0.613407 0.100039
H3    H     H_    0.080776 0.680337 0.373955 0.107959
H4    H     H_    0.926368 0.490771 0.257683 0.108298
H5    H     H_    0.080340 0.311672 0.387222 0.104151
H6    H     H_    0.467181 0.111209 0.273136 0.134593
H7    H     H_    0.467952 0.886320 0.273730 0.132085
H8    H     H_    0.515046 0.893777 0.842729 0.133289
H9    H     H_    0.784301 0.612522 0.874410 0.123932
H10   H     H_    0.637232 0.715878 0.123067 0.144677
H11   H     H_    0.657814 0.893601 0.725333 0.126655
H12   H     H_    0.513556 0.114152 0.841393 0.139459
H13   H     H_    0.656222 0.114826 0.724610 0.135930
H14   H     H_    0.311009 0.439982 0.129785 0.119020
H15   H     H_    0.310910 0.440521 0.871795 0.115454
H16   H     H_    0.640961 0.712312 0.872109 0.141958
H17   H     H_    0.781853 0.617425 0.124509 0.119560
H18   H     H_    0.074367 0.507672 0.742711 0.107246
N1    N     N_R   0.500800 0.500930 0.147930 -0.231502
N2    N     N_R   0.500800 0.500890 0.852020 -0.231107
O1    O     O_R   0.500000 0.319640 0.618810 -0.498718
O2    O     O_R   0.500010 0.319680 0.381230 -0.506231
O3    O     O_R   0.316850 0.499950 0.618770 -0.514518
O4    O     O_R   0.316860 0.499990 0.381190 -0.514085
O5    O     O_R   0.499990 0.680320 0.618770 -0.497857
O6    O     O_R   0.500000 0.680360 0.381190 -0.508309
O7    O     O_R   0.683140 0.500010 0.618810 -0.505653
O8    O     O_R   0.683150 0.500050 0.381230 -0.503856

loop_
_geom_bond_atom_site_label_1
_geom_bond_atom_site_label_2
_ccdc_geom_bond_type
Cu1   N2    S    
C12   C17   S    
C11   H10   S    
C14   O8    A    
C23   C24   A    
Cu1   O5    S    
Cu2   N1    S    
C2    C22   A    
C18   H2    S    
C1    O2    A    
C15   C18   S    
C9    C10   S    
C8    H15   S    
C16   C20   S    
C25   C26   A    
C19   H3    S    
C12   C20   S    
C6    C9    A    
C8    N2    A    
C2    C3    S    
Cu2   O8    S    
C24   C25   A    
C3    H11   S    
C7    C8    A    
C2    C26   A    
C7    H14   S    
C12   H4    S    
C4    C21   S    
Cu2   O4    S    
C14   C17   S    
C1    O1    A    
C3    H8    S    
C4    O4    A    
C10   H9    S    
C20   H5    S    
C12   C19   S    
C19   C21   S    
C25   H7    S    
C14   O7    A    
C1    C23   S    
C13   O5    A    
Cu1   O7    S    
C13   C26   S    
C11   H17   S    
C6    N1    A    
C4    O3    A    
C10   H16   S    
C15   C16   S    
C15   C21   S    
C20   C21   S    
C9    N2    A    
C17   C18   S    
C13   O6    A    
C10   C11   S    
C5    H12   S    
C6    C11   S    
Cu2   O6    S    
C22   C23   A    
C18   C19   S    
C5    H13   S    
C15   H18   S    
C3    C5    S    
C16   H1    S    
Cu2   O2    S    
C24   H6    S    
C5    C22   S    
Cu1   O1    S    
Cu1   O3    S    
C16   C17   S    
Cu1   Cu2   S    
C7    N1    A    
