data_mof_unit_28631.cif
_audit_creation_date              2012-12-11T15:12:14-0500
_audit_creation_method            fapswitch 2.2
_symmetry_space_group_name_H-M    P1
_symmetry_Int_Tables_number       1
_space_group_crystal_system       triclinic
_cell_length_a                    31.117254
_cell_length_b                    22.503886
_cell_length_c                    18.036424
_cell_angle_alpha                 90.179017
_cell_angle_beta                  124.573054
_cell_angle_gamma                 89.970535
_cell_volume                      10399.6617287

loop_
_atom_site_label
_atom_site_type_symbol
_atom_type_description
_atom_site_fract_x
_atom_site_fract_y
_atom_site_fract_z
_atom_type_partial_charge
C1    C     C_R   0.544831 0.586370 0.741541 -0.144453
C2    C     C_R   0.269441 0.693148 0.475537 0.003789
C3    C     C_R   0.374143 0.190094 0.125825 0.032557
C4    C     C_R   0.809874 0.185092 0.948675 0.016854
C5    C     C_R   0.128153 0.695076 0.884469 0.035485
C6    C     C_R   0.190020 0.185148 0.053228 0.016844
C7    C     C_R   0.874101 0.690184 0.125608 0.032499
C8    C     C_R   0.232693 0.662752 0.952379 -0.024059
C9    C     C_R   0.701687 0.192047 0.868725 -0.055308
C10   C     C_R   0.767888 0.661514 0.052073 -0.024005
C11   C     C_R   0.298630 0.190847 0.135770 -0.055022
C12   C     C_R   0.732693 0.162760 0.952088 -0.024110
C13   C     C_R   0.242156 0.357110 0.495992 0.023589
C14   C     C_R   0.201634 0.692039 0.869020 -0.055302
C15   C     C_R   0.267915 0.161424 0.052200 -0.024002
C16   C     C_R   0.798627 0.690890 0.135675 -0.054970
C17   C     C_R   0.721467 0.200942 0.815878 0.021559
C18   C     C_R   0.207723 0.644670 0.995719 0.004006
C19   C     C_R   0.278030 0.201483 0.186994 0.020039
C20   C     C_R   0.793740 0.642000 0.010773 0.005071
C21   C     C_R   0.221316 0.700817 0.815999 0.021521
C22   C     C_R   0.707616 0.144549 0.995189 0.004255
C23   C     C_R   0.778038 0.701525 0.186917 0.019934
C24   C     C_R   0.735923 0.699278 0.548388 0.026597
C25   C     C_R   0.293816 0.141832 0.011017 0.005155
C26   C     C_R   0.775911 0.206702 0.858205 0.133647
C27   C     C_R   0.153127 0.649055 0.948592 0.167477
C28   C     C_R   0.223637 0.208172 0.143211 0.134281
C29   C     C_R   0.848635 0.644297 0.060633 0.168329
C30   C     C_R   0.275750 0.706539 0.858162 0.133693
C31   C     C_R   0.652988 0.148719 0.947760 0.167365
C32   C     C_R   0.723651 0.708236 0.143154 0.134361
C33   C     C_R   0.348714 0.144153 0.060939 0.168170
C34   C     C_R   0.576348 0.609279 0.424861 -0.152064
C35   C     C_R   0.248030 0.855256 0.476837 0.022727
C36   C     C_R   0.406605 0.415982 0.575729 -0.155804
C37   C     C_R   0.424783 0.609809 0.575816 -0.122099
C38   C     C_R   0.592818 0.415444 0.423522 -0.155130
C39   C     C_R   0.076302 0.109309 0.424858 -0.152062
C40   C     C_R   0.906628 0.915932 0.575734 -0.155849
C41   C     C_R   0.924762 0.109798 0.575812 -0.122007
C42   C     C_R   0.092806 0.915418 0.423518 -0.155157
C43   C     C_R   0.383425 0.586113 0.258834 -0.137499
C44   C     C_R   0.605942 0.391185 0.708489 -0.131440
C45   C     C_R   0.616707 0.585971 0.741669 -0.135365
C46   C     C_R   0.769387 0.193176 0.475391 0.003710
C47   C     C_R   0.394652 0.390344 0.293498 -0.130324
C48   C     C_R   0.883425 0.086130 0.258843 -0.137452
C49   C     C_R   0.106004 0.891260 0.708705 -0.131567
C50   C     C_R   0.116708 0.085977 0.741663 -0.135399
C51   C     C_R   0.894646 0.890353 0.293466 -0.130290
C52   C     C_R   0.596805 0.603695 0.790532 0.065925
C53   C     C_R   0.422699 0.357305 0.268441 0.059500
C54   C     C_R   0.403424 0.603845 0.210230 0.064646
C55   C     C_R   0.578180 0.358838 0.734752 0.059832
C56   C     C_R   0.096807 0.103710 0.790521 0.065894
C57   C     C_R   0.741876 0.857053 0.495014 0.023658
C58   C     C_R   0.922693 0.857326 0.268393 0.059505
C59   C     C_R   0.903426 0.103882 0.210251 0.064619
C60   C     C_R   0.078273 0.858978 0.735101 0.059846
C61   C     C_R   0.612642 0.641270 0.500515 0.073152
C62   C     C_R   0.358656 0.400992 0.501293 0.066092
C63   C     C_R   0.388350 0.641820 0.500800 0.065845
C64   C     C_R   0.640425 0.399596 0.497308 0.066455
C65   C     C_R   0.112594 0.141312 0.500501 0.073050
C66   C     C_R   0.858688 0.900913 0.501296 0.066240
C67   C     C_R   0.888329 0.141807 0.500789 0.065881
C68   C     C_R   0.235759 0.198980 0.547400 0.026530
C69   C     C_R   0.140403 0.899540 0.497301 0.066443
C70   C     C_R   0.672583 0.304899 0.496980 -0.245843
C71   C     C_R   0.351636 0.740165 0.472287 -0.276233
C72   C     C_R   0.331489 0.307388 0.517971 -0.244605
C73   C     C_R   0.639320 0.742307 0.503226 -0.260921
C74   C     C_R   0.172575 0.804846 0.496986 -0.245941
C75   C     C_R   0.851684 0.240178 0.472420 -0.276229
C76   C     C_R   0.831760 0.807445 0.518947 -0.245033
C77   C     C_R   0.139645 0.242310 0.504232 -0.260932
C78   C     C_R   0.677389 0.365516 0.494092 0.063826
C79   C     C_R   0.739806 0.292720 0.471761 -0.046787
C80   C     C_R   0.352679 0.682150 0.498435 0.082006
C81   C     C_R   0.321024 0.367163 0.502689 0.065968
C82   C     C_R   0.648476 0.682056 0.504435 0.058770
C83   C     C_R   0.177363 0.865463 0.494062 0.063773
C84   C     C_R   0.852653 0.182137 0.498403 0.081977
C85   C     C_R   0.821048 0.867120 0.502712 0.066183
C86   C     C_R   0.148446 0.182054 0.504375 0.058726
C87   C     C_R   0.711401 0.391604 0.476637 -0.032619
C88   C     C_R   0.313727 0.658728 0.505602 -0.021293
C89   C     C_R   0.278904 0.393825 0.497180 -0.030616
C90   C     C_R   0.274083 0.755116 0.469211 -0.032326
C91   C     C_R   0.695405 0.659813 0.522462 -0.035381
C92   C     C_R   0.211341 0.891550 0.476525 -0.032586
C93   C     C_R   0.813642 0.158707 0.505402 -0.021277
C94   C     C_R   0.778636 0.893763 0.496239 -0.030710
C95   C     C_R   0.195121 0.159685 0.521455 -0.035281
C96   C     C_3   0.815254 0.439532 0.523514 -0.357088
C97   C     C_3   0.871886 0.434556 0.605580 -0.942447
C98   C     C_3   0.206111 0.605233 0.415548 -0.355833
C99   C     C_3   0.157134 0.603262 0.318974 -0.890250
C100  C     C_3   0.166082 0.431135 0.406674 -0.350327
C101  C     C_R   0.256759 0.296955 0.523430 -0.043855
C102  C     C_3   0.114777 0.413407 0.318656 -0.941666
C103  C     C_3   0.807685 0.623854 0.647491 -0.323424
C104  C     C_3   0.853166 0.636716 0.744872 -0.912925
C105  C     C_3   0.315135 0.939531 0.523165 -0.357403
C106  C     C_3   0.371800 0.934621 0.605140 -0.942230
C107  C     C_3   0.705955 0.105347 0.415125 -0.355873
C108  C     C_3   0.656972 0.103498 0.318551 -0.890426
C109  C     C_3   0.665559 0.930517 0.403846 -0.350323
C110  C     C_3   0.614605 0.912210 0.315642 -0.941944
C111  C     C_3   0.307329 0.122936 0.644772 -0.323684
C112  C     C_R   0.466958 0.390389 0.293588 -0.130496
C113  C     C_R   0.722981 0.760039 0.528384 -0.043034
C114  C     C_3   0.353165 0.135180 0.742103 -0.912984
C115  C     C_3   0.351283 0.866531 0.425920 -0.366231
C116  C     C_3   0.328971 0.849045 0.328438 -0.915050
C117  C     C_3   0.640396 0.180056 0.455713 -0.329552
C118  C     C_3   0.588670 0.201009 0.371179 -0.904449
C119  C     C_3   0.619818 0.871720 0.495970 -0.367818
C120  C     C_3   0.633227 0.870048 0.591676 -0.916587
C121  C     C_3   0.372333 0.189945 0.595645 -0.313723
C122  C     C_3   0.419778 0.221002 0.676981 -0.919230
C123  C     C_3   0.851472 0.366576 0.426343 -0.366243
C124  C     C_R   0.239781 0.792674 0.471722 -0.046896
C125  C     C_3   0.829207 0.349171 0.328850 -0.915027
C126  C     C_3   0.140468 0.679969 0.455915 -0.329805
C127  C     C_3   0.088729 0.700844 0.371334 -0.904235
C128  C     C_3   0.120919 0.371775 0.499378 -0.367860
C129  C     C_3   0.134828 0.369421 0.595378 -0.916515
C130  C     C_3   0.872969 0.690516 0.598627 -0.313642
C131  C     C_3   0.920104 0.722099 0.679766 -0.919635
C132  C     C_3   0.797887 0.235250 0.809014 -0.322187
C133  C     C_3   0.759800 0.260968 0.714867 -0.913668
C134  C     C_3   0.124430 0.606210 0.971498 -0.345802
C135  C     C_R   0.774094 0.255151 0.469225 -0.032298
C136  C     C_3   0.134986 0.541424 0.960658 -0.918546
C137  C     C_3   0.201624 0.239810 0.190506 -0.323537
C138  C     C_3   0.239775 0.270226 0.281484 -0.905103
C139  C     C_3   0.876932 0.599673 0.039085 -0.346674
C140  C     C_3   0.863332 0.535611 0.046645 -0.921628
C141  C     C_3   0.297652 0.734993 0.808798 -0.322148
C142  C     C_3   0.259499 0.760600 0.714603 -0.913881
C143  C     C_3   0.624290 0.105677 0.970405 -0.345933
C144  C     C_3   0.635187 0.040966 0.959894 -0.918549
C145  C     C_3   0.701677 0.739979 0.190434 -0.323500
C146  C     C_R   0.756690 0.797081 0.523428 -0.043778
C147  C     C_3   0.739869 0.770636 0.281187 -0.904961
C148  C     C_3   0.377066 0.099461 0.039604 -0.346650
C149  C     C_3   0.363482 0.035433 0.047335 -0.921541
C150  C     C_R   0.223075 0.259870 0.528397 -0.043062
C151  C     C_R   0.699710 0.267405 0.476792 0.070451
C152  C     C_R   0.314404 0.779061 0.464081 0.080947
C153  C     C_R   0.303223 0.272482 0.538460 0.063899
C154  C     C_R   0.675239 0.782624 0.509610 0.080650
C155  C     C_R   0.199714 0.767350 0.476827 0.070584
C156  C     C_R   0.455342 0.586517 0.258923 -0.140781
C157  C     C_R   0.814462 0.279089 0.464220 0.080950
C158  C     C_R   0.803425 0.772695 0.539459 0.063884
C159  C     C_R   0.175608 0.282577 0.510670 0.080656
C160  C     C_R   0.791655 0.378900 0.480327 0.121327
C161  C     C_R   0.221769 0.668439 0.454151 0.099846
C162  C     C_R   0.192474 0.378361 0.470839 0.115168
C163  C     C_R   0.787752 0.679419 0.587742 0.109081
C164  C     C_R   0.291554 0.878871 0.480081 0.121442
C165  C     C_R   0.721682 0.168505 0.453911 0.099855
C166  C     C_R   0.691966 0.878148 0.468858 0.115180
C167  C     C_R   0.533442 0.391350 0.708004 -0.130644
C168  C     C_R   0.287433 0.178878 0.585836 0.109283
C169  C     C_R   0.318435 0.841049 0.456802 0.175756
C170  C     C_R   0.687829 0.205699 0.461706 0.156654
C171  C     C_R   0.663079 0.843717 0.491601 0.175907
C172  C     C_R   0.320415 0.214339 0.573788 0.149196
C173  C     C_R   0.818549 0.341084 0.457071 0.175734
C174  C     C_R   0.187882 0.705629 0.461861 0.156699
C175  C     C_R   0.163728 0.343788 0.493721 0.175997
C176  C     C_R   0.820800 0.714789 0.575752 0.149476
C177  C     C_R   0.372759 0.628540 0.118467 0.112419
C178  C     C_R   0.044832 0.086382 0.741536 -0.144474
C179  C     C_R   0.592552 0.300193 0.779963 0.117303
C180  C     C_R   0.627470 0.628496 0.882627 0.111901
C181  C     C_R   0.409051 0.297412 0.226341 0.115707
C182  C     C_R   0.872775 0.128637 0.118518 0.112406
C183  C     C_R   0.092700 0.800439 0.780597 0.117389
C184  C     C_R   0.127474 0.128523 0.882610 0.111891
C185  C     C_R   0.909042 0.797449 0.226250 0.115690
C186  C     C_R   0.365784 0.687944 0.000046 0.023948
C187  C     C_R   0.583103 0.225031 0.866832 0.013011
C188  C     C_R   0.633992 0.687240 0.001723 0.024201
C189  C     C_R   0.966952 0.890406 0.293557 -0.130484
C190  C     C_R   0.420706 0.218434 0.146387 0.016880
C191  C     C_R   0.865888 0.188060 0.000189 0.023958
C192  C     C_R   0.083477 0.725634 0.868152 0.012780
C193  C     C_R   0.133991 0.187336 0.001641 0.024202
C194  C     C_R   0.920657 0.718538 0.146159 0.016924
C195  C     C_R   0.396005 0.662242 0.085814 -0.215915
C196  C     C_R   0.565152 0.275987 0.812991 -0.216630
C197  C     C_R   0.604023 0.661626 0.915621 -0.214770
C198  C     C_R   0.438172 0.270511 0.198415 -0.213349
C199  C     C_R   0.896062 0.162337 0.085941 -0.215872
C200  C     C_R   0.955341 0.086532 0.258930 -0.140735
C201  C     C_R   0.065493 0.776515 0.814166 -0.216819
C202  C     C_R   0.104030 0.161719 0.915544 -0.214788
C203  C     C_R   0.938141 0.770586 0.198251 -0.213346
C204  C     C_R   0.319029 0.620854 0.065044 -0.252484
C205  C     C_R   0.635977 0.269927 0.795192 -0.241222
C206  C     C_R   0.681229 0.621013 0.936374 -0.251885
C207  C     C_R   0.364705 0.268356 0.209215 -0.241981
C208  C     C_R   0.819040 0.120981 0.065036 -0.252437
C209  C     C_R   0.135992 0.770009 0.795551 -0.241186
C210  C     C_R   0.181229 0.120990 0.936403 -0.251876
C211  C     C_R   0.033494 0.891442 0.708202 -0.130604
C212  C     C_R   0.864713 0.768376 0.209151 -0.241946
C213  C     C_R   0.286844 0.655802 0.988894 0.072121
C214  C     C_R   0.653515 0.216853 0.844534 0.061378
C215  C     C_R   0.713351 0.655561 0.013637 0.071769
C216  C     C_R   0.347503 0.214401 0.161715 0.060725
C217  C     C_R   0.786882 0.155899 0.988817 0.072107
C218  C     C_R   0.153552 0.716996 0.845056 0.061396
C219  C     C_R   0.213363 0.155518 0.013693 0.071807
C220  C     C_R   0.847495 0.714445 0.161596 0.060712
C221  C     C_R   0.625627 0.609554 0.575389 -0.139424
C222  C     C_R   0.748093 0.355298 0.476971 0.022759
C223  C     C_R   0.356044 0.416349 0.425859 -0.157962
C224  C     C_R   0.374290 0.609515 0.425402 -0.140363
C225  C     C_R   0.643489 0.415214 0.573451 -0.161389
C226  C     C_R   0.125625 0.109562 0.575379 -0.139362
C227  C     C_R   0.856054 0.916318 0.425857 -0.157891
C228  C     C_R   0.874281 0.109506 0.425396 -0.140439
C229  C     C_R   0.143474 0.915173 0.573451 -0.161288
C230  C     C_R   0.309774 0.684968 0.948635 0.016852
C231  C     C_R   0.627980 0.194710 0.883578 0.035308
C232  C     C_R   0.690020 0.685149 0.053218 0.016869
H1    H     H_    0.520299 0.585212 0.766259 0.089036
H2    H     H_    0.302746 0.586932 0.083617 0.122301
H3    H     H_    0.820164 0.068499 0.512913 0.100829
H4    H     H_    0.809861 0.971210 0.563088 0.109262
H5    H     H_    0.777295 0.975962 0.449582 0.091188
H6    H     H_    0.193370 0.070925 0.542199 0.102381
H7    H     H_    0.169972 0.089896 0.434624 0.111207
H8    H     H_    0.874596 0.402081 0.654349 0.266277
H9    H     H_    0.898623 0.420713 0.586719 0.256545
H10   H     H_    0.885402 0.478521 0.639490 0.252790
H11   H     H_    0.812202 0.470839 0.473316 0.182072
H12   H     H_    0.795362 0.460501 0.551596 0.207607
H13   H     H_    0.340280 0.290691 0.225182 0.120351
H14   H     H_    0.121230 0.602166 0.317850 0.264356
H15   H     H_    0.156077 0.641770 0.279568 0.261379
H16   H     H_    0.157114 0.561844 0.285229 0.240849
H17   H     H_    0.236553 0.584811 0.410248 0.192281
H18   H     H_    0.201525 0.576056 0.460149 0.167621
H19   H     H_    0.121501 0.375684 0.286513 0.263206
H20   H     H_    0.084354 0.400619 0.329390 0.256189
H21   H     H_    0.099634 0.451638 0.271531 0.255517
H22   H     H_    0.159849 0.468328 0.440105 0.182428
H23   H     H_    0.189584 0.448878 0.383547 0.211094
H24   H     H_    0.697505 0.587335 0.917275 0.121896
H25   H     H_    0.891107 0.633296 0.753014 0.264660
H26   H     H_    0.849066 0.681291 0.766861 0.263767
H27   H     H_    0.853835 0.603034 0.790456 0.242286
H28   H     H_    0.777243 0.605154 0.654329 0.196574
H29   H     H_    0.818146 0.588346 0.617526 0.172415
H30   H     H_    0.398502 0.920828 0.586181 0.256494
H31   H     H_    0.385293 0.978599 0.639016 0.252974
H32   H     H_    0.374592 0.902138 0.653971 0.266290
H33   H     H_    0.312007 0.970819 0.472884 0.182012
H34   H     H_    0.295282 0.960493 0.551323 0.207630
H35   H     H_    0.159256 0.790677 0.775829 0.120035
H36   H     H_    0.621071 0.102415 0.317435 0.264356
H37   H     H_    0.655954 0.142050 0.279249 0.261431
H38   H     H_    0.656903 0.062115 0.284689 0.240879
H39   H     H_    0.736372 0.084929 0.409751 0.192364
H40   H     H_    0.701342 0.076111 0.459642 0.167683
H41   H     H_    0.621797 0.874329 0.284371 0.263220
H42   H     H_    0.583989 0.899412 0.325892 0.256235
H43   H     H_    0.599460 0.950149 0.267989 0.255421
H44   H     H_    0.658869 0.967900 0.436399 0.182766
H45   H     H_    0.689276 0.948166 0.381095 0.210938
H46   H     H_    0.802735 0.087079 0.083596 0.122286
H47   H     H_    0.390926 0.131727 0.749608 0.264764
H48   H     H_    0.349414 0.179607 0.764937 0.263701
H49   H     H_    0.353931 0.101197 0.787425 0.242448
H50   H     H_    0.277012 0.104192 0.651905 0.196667
H51   H     H_    0.317393 0.087621 0.613953 0.172485
H52   H     H_    0.329194 0.800172 0.320557 0.262671
H53   H     H_    0.288253 0.865410 0.283341 0.260935
H54   H     H_    0.352878 0.869434 0.307281 0.252716
H55   H     H_    0.352114 0.915688 0.427604 0.204019
H56   H     H_    0.392535 0.852089 0.471037 0.180817
H57   H     H_    0.840307 0.790692 0.225178 0.120344
H58   H     H_    0.580316 0.247981 0.377178 0.254242
H59   H     H_    0.589306 0.196914 0.310503 0.259861
H60   H     H_    0.556121 0.173514 0.361130 0.248345
H61   H     H_    0.640450 0.130940 0.455977 0.191760
H62   H     H_    0.641872 0.191743 0.516934 0.165216
H63   H     H_    0.637172 0.823786 0.615765 0.264467
H64   H     H_    0.670405 0.894165 0.638387 0.260449
H65   H     H_    0.601744 0.892056 0.593080 0.251910
H66   H     H_    0.613709 0.919121 0.476526 0.204188
H67   H     H_    0.581852 0.849452 0.448318 0.180076
H68   H     H_    0.197482 0.087274 0.917321 0.121880
H69   H     H_    0.425847 0.266160 0.660250 0.252502
H70   H     H_    0.415358 0.225116 0.733604 0.262241
H71   H     H_    0.455448 0.194761 0.699788 0.249172
H72   H     H_    0.376089 0.141643 0.608998 0.190149
H73   H     H_    0.373978 0.193639 0.535944 0.163590
H74   H     H_    0.829391 0.300304 0.320876 0.262682
H75   H     H_    0.788508 0.365589 0.283721 0.260937
H76   H     H_    0.853171 0.369563 0.307812 0.252698
H77   H     H_    0.852347 0.415731 0.428128 0.204020
H78   H     H_    0.892707 0.352087 0.471496 0.180783
H79   H     H_    0.531967 0.299007 0.803850 0.117056
H80   H     H_    0.080363 0.747835 0.377208 0.254240
H81   H     H_    0.089356 0.696650 0.310661 0.259847
H82   H     H_    0.056194 0.673369 0.361380 0.248340
H83   H     H_    0.140558 0.630854 0.456277 0.191831
H84   H     H_    0.141930 0.691704 0.517108 0.165245
H85   H     H_    0.138612 0.322987 0.618757 0.264424
H86   H     H_    0.172217 0.393171 0.642084 0.260484
H87   H     H_    0.103684 0.391453 0.597746 0.251921
H88   H     H_    0.115003 0.419316 0.480717 0.204165
H89   H     H_    0.082764 0.349858 0.451781 0.180099
H90   H     H_    0.437996 0.668014 0.126217 0.112961
H91   H     H_    0.925959 0.767221 0.662604 0.252489
H92   H     H_    0.915477 0.726401 0.736133 0.262319
H93   H     H_    0.955969 0.696103 0.703117 0.249202
H94   H     H_    0.876911 0.642310 0.612728 0.190128
H95   H     H_    0.874889 0.693796 0.539173 0.163630
H96   H     H_    0.739909 0.224873 0.664263 0.262545
H97   H     H_    0.731129 0.291017 0.713831 0.257205
H98   H     H_    0.781905 0.287503 0.695179 0.251866
H99   H     H_    0.821962 0.273927 0.849892 0.197423
H100  H     H_    0.822697 0.202306 0.803855 0.193500
H101  H     H_    0.472657 0.292001 0.210403 0.114182
H102  H     H_    0.124128 0.533466 0.891177 0.261174
H103  H     H_    0.176550 0.529564 0.009277 0.257762
H104  H     H_    0.111126 0.511668 0.972802 0.250366
H105  H     H_    0.136013 0.614184 0.041400 0.195939
H106  H     H_    0.081611 0.610843 0.924871 0.201698
H107  H     H_    0.260112 0.237023 0.336359 0.265743
H108  H     H_    0.268175 0.298413 0.278845 0.254543
H109  H     H_    0.217635 0.299528 0.298230 0.249890
H110  H     H_    0.176513 0.276643 0.146097 0.196649
H111  H     H_    0.177841 0.207844 0.199759 0.193161
H112  H     H_    0.497197 0.378267 0.284590 0.092161
H113  H     H_    0.561993 0.666832 0.875319 0.113389
H114  H     H_    0.872221 0.527718 0.114804 0.261405
H115  H     H_    0.821621 0.525538 0.995583 0.257921
H116  H     H_    0.887016 0.504457 0.035864 0.250405
H117  H     H_    0.867198 0.607652 0.970386 0.195377
H118  H     H_    0.919711 0.602185 0.087946 0.203202
H119  H     H_    0.239584 0.724443 0.664119 0.262466
H120  H     H_    0.230847 0.790684 0.713568 0.257254
H121  H     H_    0.281554 0.787072 0.694749 0.251948
H122  H     H_    0.321731 0.773705 0.849547 0.197425
H123  H     H_    0.322448 0.702017 0.803657 0.193476
H124  H     H_    0.032468 0.799721 0.805352 0.117134
H125  H     H_    0.624714 0.033040 0.890644 0.261242
H126  H     H_    0.676740 0.029279 0.008998 0.257723
H127  H     H_    0.611209 0.011060 0.971564 0.250382
H128  H     H_    0.635629 0.113665 0.040160 0.195918
H129  H     H_    0.581471 0.110077 0.923462 0.201781
H130  H     H_    0.760281 0.737592 0.336280 0.265867
H131  H     H_    0.768212 0.798736 0.278259 0.254404
H132  H     H_    0.717751 0.800058 0.297841 0.249862
H133  H     H_    0.676461 0.776698 0.145860 0.196611
H134  H     H_    0.678006 0.708036 0.199994 0.193158
H135  H     H_    0.938054 0.168087 0.126392 0.112968
H136  H     H_    0.372260 0.027676 0.115449 0.261400
H137  H     H_    0.321798 0.025297 0.996155 0.257934
H138  H     H_    0.387263 0.004234 0.036855 0.250381
H139  H     H_    0.367372 0.107334 0.970907 0.195474
H140  H     H_    0.419840 0.102017 0.088515 0.203155
H141  H     H_    0.972616 0.792091 0.210221 0.114135
H142  H     H_    0.062005 0.166986 0.875184 0.113408
H143  H     H_    0.656262 0.619432 0.644671 0.103206
H144  H     H_    0.321999 0.415731 0.357081 0.096930
H145  H     H_    0.343357 0.619288 0.356367 0.104636
H146  H     H_    0.677594 0.414043 0.642123 0.098101
H147  H     H_    0.156278 0.119433 0.644654 0.103281
H148  H     H_    0.479931 0.585528 0.234303 0.087896
H149  H     H_    0.822005 0.915704 0.357083 0.096867
H150  H     H_    0.843346 0.119274 0.356360 0.104619
H151  H     H_    0.177576 0.913981 0.642125 0.098126
H152  H     H_    0.561187 0.619216 0.355586 0.099122
H153  H     H_    0.418975 0.415044 0.645145 0.097323
H154  H     H_    0.440396 0.619943 0.645303 0.101595
H155  H     H_    0.580251 0.414579 0.353992 0.093119
H156  H     H_    0.061130 0.119253 0.355582 0.099079
H157  H     H_    0.918994 0.914992 0.645147 0.097376
H158  H     H_    0.940368 0.119929 0.645297 0.101533
H159  H     H_    0.503184 0.379609 0.717150 0.091265
H160  H     H_    0.080240 0.914555 0.353989 0.093093
H161  H     H_    0.342883 0.585726 0.235431 0.081968
H162  H     H_    0.642659 0.379801 0.719040 0.090974
H163  H     H_    0.657287 0.585443 0.765256 0.081136
H164  H     H_    0.358347 0.378654 0.284235 0.091074
H165  H     H_    0.842881 0.085753 0.235436 0.081968
H166  H     H_    0.142760 0.879902 0.719383 0.090987
H167  H     H_    0.157289 0.085451 0.765251 0.081189
H168  H     H_    0.858335 0.878666 0.284180 0.091064
H169  H     H_    0.645158 0.288171 0.510596 0.148319
H170  H     H_    0.020300 0.085234 0.766256 0.089064
H171  H     H_    0.382497 0.754778 0.465912 0.147847
H172  H     H_    0.364005 0.289982 0.518405 0.148354
H173  H     H_    0.602481 0.756285 0.490629 0.146180
H174  H     H_    0.145163 0.788119 0.510633 0.148385
H175  H     H_    0.882588 0.254791 0.466161 0.147842
H176  H     H_    0.864500 0.790022 0.520091 0.148379
H177  H     H_    0.103011 0.256379 0.492394 0.146181
H178  H     H_    0.415951 0.751598 0.014687 0.104620
H179  H     H_    0.418250 0.687470 0.967703 0.100191
H180  H     H_    0.564150 0.247381 0.953688 0.109498
H181  H     H_    0.997188 0.878295 0.284543 0.092150
H182  H     H_    0.520304 0.203036 0.867452 0.103604
H183  H     H_    0.582832 0.748869 0.988803 0.103859
H184  H     H_    0.581810 0.683769 0.034609 0.100599
H185  H     H_    0.445203 0.235670 0.065927 0.107894
H186  H     H_    0.485855 0.192438 0.156048 0.104751
H187  H     H_    0.916109 0.251687 0.014959 0.104616
H188  H     H_    0.918415 0.187558 0.967981 0.100186
H189  H     H_    0.065133 0.748445 0.955670 0.109616
H190  H     H_    0.020933 0.704112 0.869812 0.103401
H191  H     H_    0.082897 0.249130 0.988547 0.103916
H192  H     H_    0.979927 0.085551 0.234306 0.087868
H193  H     H_    0.081720 0.184100 0.034345 0.100534
H194  H     H_    0.945110 0.735852 0.065656 0.107919
H195  H     H_    0.985784 0.692584 0.155716 0.104733
H196  H     H_    0.658623 0.224037 0.688662 0.106845
H197  H     H_    0.669246 0.150359 0.708016 0.107007
H198  H     H_    0.267837 0.663053 0.127381 0.114827
H199  H     H_    0.244259 0.590409 0.107451 0.095599
H200  H     H_    0.340172 0.225953 0.314299 0.110206
H201  H     H_    0.329094 0.152132 0.296749 0.106859
H202  H     H_    0.735380 0.662122 0.878916 0.115145
H203  H     H_    0.003253 0.879739 0.717406 0.091206
H204  H     H_    0.757575 0.589101 0.897030 0.095316
H205  H     H_    0.158351 0.723744 0.688801 0.106820
H206  H     H_    0.169069 0.650099 0.708360 0.107030
H207  H     H_    0.767554 0.163130 0.126888 0.114808
H208  H     H_    0.744101 0.090450 0.107098 0.095577
H209  H     H_    0.840194 0.725939 0.314242 0.110362
H210  H     H_    0.829064 0.652131 0.296637 0.106891
H211  H     H_    0.235533 0.161815 0.879064 0.115031
H212  H     H_    0.257688 0.088760 0.897457 0.095367
H213  H     H_    0.667921 0.458355 0.390919 0.107168
H214  H     H_    0.659367 0.290759 0.775858 0.120032
H215  H     H_    0.707505 0.478494 0.500651 0.098642
H216  H     H_    0.297726 0.597618 0.572897 0.101081
H217  H     H_    0.320390 0.568538 0.513466 0.100865
H218  H     H_    0.310606 0.470972 0.564712 0.109320
H219  H     H_    0.277600 0.476220 0.451181 0.091084
H220  H     H_    0.694058 0.571106 0.544174 0.102145
H221  H     H_    0.670814 0.589585 0.436497 0.111322
H222  H     H_    0.167821 0.958295 0.390827 0.107191
H223  H     H_    0.207477 0.978427 0.500557 0.098574
H224  H     H_    0.797542 0.097507 0.572457 0.101043
N1    N     N_R   0.532970 0.559900 0.665210 -0.037390
N2    N     N_R   0.402100 0.440070 0.454470 -0.035820
N3    N     N_R   0.402100 0.559930 0.454470 -0.042814
N4    N     N_R   0.597900 0.440070 0.545530 -0.035561
N5    N     N_R   0.097900 0.059930 0.545530 -0.042945
N6    N     N_R   0.902100 0.940070 0.454470 -0.035833
N7    N     N_R   0.902100 0.059930 0.454470 -0.042829
N8    N     N_R   0.097900 0.940070 0.545530 -0.035566
N9    N     N_R   0.567170 0.559950 0.454460 -0.040579
N10   N     N_R   0.432830 0.440050 0.545540 -0.036645
N11   N     N_R   0.432830 0.559950 0.545540 -0.043625
N12   N     N_R   0.467030 0.440100 0.334790 -0.040183
N13   N     N_R   0.567170 0.440050 0.454460 -0.036334
N14   N     N_R   0.067170 0.059950 0.454460 -0.040628
N15   N     N_R   0.932830 0.940050 0.545540 -0.036635
N16   N     N_R   0.932830 0.059950 0.545540 -0.043612
N17   N     N_R   0.067170 0.940050 0.454460 -0.036340
N18   N     N_R   0.421470 0.559970 0.334770 -0.036632
N19   N     N_R   0.578530 0.440030 0.665230 -0.039506
N20   N     N_R   0.578530 0.559970 0.665230 -0.036551
N21   N     N_R   0.421470 0.440030 0.334770 -0.039859
N22   N     N_R   0.921470 0.059970 0.334770 -0.036630
N23   N     N_R   0.467030 0.559900 0.334790 -0.036255
N24   N     N_R   0.078530 0.940030 0.665230 -0.039483
N25   N     N_R   0.078530 0.059970 0.665230 -0.036548
N26   N     N_R   0.921470 0.940030 0.334770 -0.039862
N27   N     N_3   0.393185 0.717898 0.968758 -0.238093
N28   N     N_3   0.560154 0.210666 0.914529 -0.234034
N29   N     N_3   0.606254 0.715327 0.033956 -0.238288
N30   N     N_3   0.446664 0.200501 0.105064 -0.233919
N31   N     N_3   0.893346 0.218001 0.968998 -0.238105
N32   N     N_3   0.060845 0.711616 0.916481 -0.233992
N33   N     N_3   0.106240 0.215569 0.033744 -0.238300
N34   N     N_R   0.532970 0.440100 0.665210 -0.039896
N35   N     N_3   0.946588 0.700654 0.104768 -0.233891
N36   N     N_3   0.687515 0.191664 0.720103 -0.207551
N37   N     N_3   0.235326 0.635176 0.091094 -0.218445
N38   N     N_3   0.311068 0.193674 0.283078 -0.204466
N39   N     N_3   0.767311 0.633592 0.915294 -0.217946
N40   N     N_3   0.187286 0.691420 0.720261 -0.207569
N41   N     N_3   0.735092 0.135187 0.090573 -0.218410
N42   N     N_3   0.811066 0.693689 0.282996 -0.204354
N43   N     N_3   0.267437 0.133267 0.915580 -0.217985
N44   N     N_3   0.705086 0.452804 0.450113 -0.227245
N45   N     N_R   0.032970 0.059900 0.665210 -0.037394
N46   N     N_3   0.323428 0.603862 0.553813 -0.221450
N47   N     N_3   0.277077 0.457266 0.503523 -0.232887
N48   N     N_3   0.699833 0.598665 0.504098 -0.230703
N49   N     N_3   0.205006 0.952742 0.449973 -0.227222
N50   N     N_3   0.823255 0.103762 0.553397 -0.221394
N51   N     N_3   0.776540 0.957232 0.501817 -0.232883
N52   N     N_3   0.199160 0.098612 0.502262 -0.230752
N53   N     N_R   0.967030 0.940100 0.334790 -0.040182
N54   N     N_R   0.967030 0.059900 0.334790 -0.036250
N55   N     N_R   0.032970 0.940100 0.665210 -0.039885
N56   N     N_R   0.597900 0.559930 0.545530 -0.042928
Ni1   Ni    Ni4+2 0.483030 0.500000 0.604430 0.209579
Ni2   Ni    Ni4+2 0.516970 0.500000 0.395570 0.207466
Ni3   Ni    Ni4+2 0.983030 0.000000 0.604430 0.209612
Ni4   Ni    Ni4+2 0.016970 0.000000 0.395570 0.207421
Ni5   Ni    Ni4+2 0.587400 0.500000 0.604430 0.206728
Ni6   Ni    Ni4+2 0.412600 0.500000 0.395570 0.207807
Ni7   Ni    Ni4+2 0.087400 0.000000 0.604430 0.206755
Ni8   Ni    Ni4+2 0.912600 0.000000 0.395570 0.207774

loop_
_geom_bond_atom_site_label_1
_geom_bond_atom_site_label_2
_ccdc_geom_bond_type
N6    N15   A    
C160  C222  A    
C196  H79   S    
C126  C127  S    
C7    C29   A    
C73   C82   A    
C74   C83   A    
C178  H170  S    
C66   C85   S    
C126  H84   S    
C41   C67   A    
N7    Ni8   S    
N17   Ni4   S    
C14   C21   A    
C108  H37   S    
C181  C207  A    
C228  N7    A    
C61   C82   S    
C54   C156  A    
C187  C196  A    
C10   C215  A    
C181  C198  A    
C143  C144  S    
C147  H130  S    
C165  C170  A    
C148  H140  S    
C125  H74   S    
C136  H104  S    
C96   H12   S    
C204  H2    S    
H224  N50   S    
C110  H42   S    
C11   C15   A    
C117  C170  S    
C1    H1    S    
C31   C231  A    
C66   C227  A    
H208  N41   S    
C229  N8    A    
C189  H181  S    
C56   C184  S    
C126  C174  S    
C11   C216  A    
C47   C53   A    
C187  C231  A    
C75   C157  A    
C36   H153  S    
C39   C65   A    
C4    C191  A    
C87   N44   S    
C224  H145  S    
N2    N10   A    
C100  H22   S    
C214  C231  A    
C140  H114  S    
C37   C63   A    
C48   H165  S    
C133  H96   S    
C38   C64   A    
N12   N21   A    
C68   C95   A    
C150  C159  A    
C28   C137  S    
C183  C201  A    
C65   C86   S    
C224  N3    A    
C90   C152  A    
N21   Ni6   S    
C50   N25   A    
C57   C166  A    
C212  C220  A    
H3    N50   S    
N4    N13   A    
C34   C61   A    
C82   C91   A    
C215  C232  A    
C117  H61   S    
C104  H27   S    
C113  C146  A    
C59   C182  S    
C5    C192  A    
C43   C54   A    
N22   Ni8   S    
C71   C152  A    
N54   Ni4   S    
C194  N35   S    
C42   N17   A    
C94   N51   S    
C106  H32   S    
C103  H29   S    
C105  C164  S    
C92   N49   S    
C99   H14   S    
C32   C232  A    
C49   C60   A    
C166  C171  A    
C77   C159  A    
C197  H113  S    
C34   H152  S    
C62   C81   S    
C205  C214  A    
C111  H50   S    
C118  H59   S    
N25   Ni7   S    
C119  H66   S    
C79   C222  A    
C149  H137  S    
C21   C30   A    
C208  C217  A    
C35   C124  A    
C128  C175  S    
C121  H73   S    
C177  C195  A    
C229  H151  S    
C107  H40   S    
C122  H70   S    
C27   C134  S    
C182  C199  A    
C141  H123  S    
C98   H17   S    
C139  C140  S    
C186  C230  A    
H178  N27   S    
C102  H21   S    
C125  H76   S    
C130  C131  S    
C80   C88   A    
C10   C16   A    
C161  C174  A    
C44   C55   A    
C44   N19   A    
C193  N33   S    
C207  C216  A    
C123  H78   S    
C182  C208  A    
C84   C93   A    
C22   N41   S    
C31   C143  S    
N45   Ni3   S    
C109  C166  S    
C142  H119  S    
C98   C99   S    
C14   C218  A    
C167  H159  S    
C227  N6    A    
N16   Ni3   S    
C76   C85   A    
C140  H116  S    
N24   N55   A    
C119  C171  S    
C145  H133  S    
C78   C87   A    
C148  H139  S    
C107  C165  S    
C135  C157  A    
C46   C165  A    
C178  N45   A    
C103  H28   S    
C144  H125  S    
N53   Ni4   S    
C128  C129  S    
H206  N40   S    
C70   H169  S    
C56   C178  A    
N10   Ni1   S    
C30   C141  S    
H188  N31   S    
H187  N31   S    
C112  H112  S    
N9    N56   A    
C133  H97   S    
C75   C84   A    
C15   C25   A    
C38   N13   A    
C105  H33   S    
C115  C116  S    
C12   C22   A    
C106  H30   S    
C50   H167  S    
C2    C90   A    
C108  H36   S    
C106  H31   S    
C73   H173  S    
C97   H10   S    
C5    C27   A    
C6    C28   A    
C211  N55   A    
C147  H131  S    
C74   C155  A    
H189  N32   S    
C107  C108  S    
C131  H92   S    
C129  H86   S    
C147  H132  S    
N19   N34   A    
C228  H150  S    
C207  H13   S    
H199  N37   S    
H202  N39   S    
C1    C52   A    
C43   H161  S    
N24   Ni7   S    
C63   C80   S    
N25   N45   A    
C225  N4    A    
C102  H19   S    
C138  H107  S    
C120  H64   S    
C86   C95   A    
C115  H55   S    
H210  N42   S    
C132  H99   S    
C162  C175  A    
N5    Ni7   S    
C45   C52   A    
H219  N47   S    
C50   C56   A    
C210  C219  A    
C36   N10   A    
C73   C154  A    
C167  N34   A    
C69   C229  A    
C59   C200  A    
H217  N46   S    
H213  N44   S    
C116  H53   S    
C134  H105  S    
C104  H26   S    
C7    C194  A    
C19   C28   A    
C114  H47   S    
C156  N23   A    
C7    C220  A    
C68   C168  A    
C155  C174  A    
C127  H81   S    
C16   C23   A    
C57   C94   A    
C202  H142  S    
C112  N12   A    
C39   H156  S    
C99   H15   S    
H182  N28   S    
C45   H163  S    
C37   H154  S    
C48   C59   A    
C42   H160  S    
C158  C176  A    
H191  N33   S    
C64   C78   S    
C70   C151  A    
C119  H67   S    
C203  H141  S    
C109  H45   S    
H209  N42   S    
C146  C158  A    
H194  N35   S    
H221  N48   S    
C18   N37   S    
C108  H38   S    
C117  C118  S    
C38   H155  S    
C223  N2    A    
N9    Ni2   S    
N18   Ni6   S    
C205  H214  S    
C153  C172  A    
N12   Ni2   S    
C41   H158  S    
C154  C171  A    
C16   C220  A    
C9    C12   A    
C210  H68   S    
C120  H65   S    
C109  H44   S    
C68   C150  A    
C110  H43   S    
C121  C172  S    
C13   C162  A    
C124  C155  A    
C41   N16   A    
C100  C162  S    
C72   H172  S    
C15   C219  A    
C212  H57   S    
C25   C33   A    
C190  N30   S    
C206  C215  A    
N34   Ni1   S    
C226  N5    A    
N13   Ni2   S    
C55   C167  A    
C113  C154  A    
N14   Ni4   S    
C179  C205  A    
N3    Ni6   S    
N18   N23   A    
H195  N35   S    
C137  H111  S    
C23   N42   S    
C127  H80   S    
C200  H192  S    
C11   C19   A    
N8    Ni7   S    
H193  N33   S    
H183  N29   S    
C34   N9    A    
C36   C62   A    
C123  C125  S    
C3    C33   A    
H4    N51   S    
C188  N29   S    
C101  C150  A    
H216  N46   S    
C128  H89   S    
C160  C173  A    
N15   Ni3   S    
C221  H143  S    
C39   N14   A    
C131  H93   S    
C46   C135  A    
C130  H94   S    
H223  N49   S    
C128  H88   S    
C95   N52   S    
C201  H124  S    
H190  N32   S    
C192  C201  A    
C20   N39   S    
C40   H157  S    
C72   C81   A    
C81   C89   A    
C35   C92   A    
H180  N28   S    
C60   C183  S    
N22   N54   A    
C40   C66   A    
C57   C146  A    
C58   C185  S    
C187  N28   S    
C118  H60   S    
C55   C179  S    
N2    Ni6   S    
C40   N15   A    
C126  H83   S    
C145  C147  S    
C179  C196  A    
H196  N36   S    
N55   Ni3   S    
C121  H72   S    
C186  N27   S    
C107  H39   S    
C122  H71   S    
C21   N40   S    
C120  H63   S    
C191  N31   S    
C8    C213  A    
C3    C190  A    
C141  H122  S    
C98   H18   S    
H5    N51   S    
C189  N53   A    
H204  N39   S    
C3    C216  A    
C8    C18   A    
C193  C202  A    
C200  N54   A    
C199  H135  S    
C125  H75   S    
C136  H103  S    
C96   H11   S    
C33   C148  S    
C110  H41   S    
C114  H49   S    
C5    C218  A    
C115  H56   S    
H179  N27   S    
C123  H77   S    
C51   C58   A    
C121  C122  S    
H205  N40   S    
C142  H120  S    
N5    N14   A    
N11   Ni1   S    
C116  H52   S    
C24   C163  A    
C209  C218  A    
N26   Ni8   S    
C12   C217  A    
C98   C161  S    
C190  C198  A    
N8    N17   A    
C209  H35   S    
C37   N11   A    
C72   C153  A    
C77   H177  S    
C90   C124  A    
C74   H174  S    
C75   H175  S    
N23   Ni2   S    
C4    C26   A    
C119  C120  S    
C184  C210  A    
C225  H146  S    
C32   C145  S    
C9    C214  A    
C79   C135  A    
C105  C106  S    
C123  C173  S    
C144  H127  S    
C35   C164  A    
C54   C177  S    
C117  H62   S    
C23   C32   A    
C185  C203  A    
C221  N56   A    
C109  C110  S    
C152  C169  A    
H222  N49   S    
C188  C197  A    
N7    N16   A    
C65   C226  A    
C111  C114  S    
C60   C211  A    
C61   C221  A    
C97   H9    S    
C168  C172  A    
C103  C104  S    
C118  H58   S    
H212  N43   S    
C111  C168  S    
C188  C232  A    
C6    C193  A    
C131  H91   S    
C213  C230  A    
C157  C173  A    
C149  H138  S    
C129  H85   S    
H200  N38   S    
C70   C78   A    
C122  H69   S    
N20   Ni5   S    
N19   Ni5   S    
C115  C169  S    
C206  H24   S    
C49   H166  S    
C143  H129  S    
C51   N26   A    
C208  H46   S    
C83   C92   A    
C76   C158  A    
C102  H20   S    
C17   C26   A    
C138  H108  S    
C191  C199  A    
C49   N24   A    
C132  H100  S    
C43   N18   A    
C93   N50   S    
C139  H118  S    
C192  N32   S    
C17   N36   S    
C91   N48   S    
C44   H162  S    
C180  C197  A    
H6    N52   S    
H7    N52   S    
N26   N53   A    
C132  C133  S    
C138  H109  S    
C116  H54   S    
C134  H106  S    
C211  H203  S    
C195  H90   S    
C140  H115  S    
H197  N36   S    
C114  H48   S    
C145  H134  S    
C67   C84   S    
C227  H149  S    
C159  C175  A    
N56   Ni5   S    
C164  C169  A    
C48   N22   A    
C180  C206  A    
C163  C176  A    
C2    C161  A    
C71   C80   A    
N1    Ni1   S    
C20   C29   A    
C29   C139  S    
C177  C204  A    
C223  H144  S    
C184  C202  A    
C22   C31   A    
C88   N46   S    
C87   C222  A    
C186  C195  A    
C148  C149  S    
H211  N43   S    
H198  N37   S    
C133  H98   S    
C45   N20   A    
C134  C136  S    
C156  H148  S    
C130  C176  S    
C105  H34   S    
C51   H168  S    
N6    Ni8   S    
C204  C213  A    
C42   C69   A    
H185  N30   S    
C198  H101  S    
C71   H171  S    
C52   C180  S    
C69   C83   S    
C53   C181  S    
C143  H128  S    
C85   C94   A    
C101  C153  A    
C1    N1    A    
C96   C97   S    
C139  H117  S    
C58   C189  A    
C100  C102  S    
C185  C212  A    
C62   C223  A    
C136  H102  S    
H186  N30   S    
C129  H87   S    
C53   C112  A    
C9    C17   A    
C96   C160  S    
C77   C86   A    
H218  N47   S    
C226  H147  S    
C2    C88   A    
C19   N38   S    
C76   H176  S    
C13   C101  A    
C100  H23   S    
C24   C91   A    
C26   C132  S    
C79   C151  A    
C97   H8    S    
C8    C14   A    
C13   C89   A    
C63   C224  A    
C18   C27   A    
N1    N20   A    
C47   H164  S    
N4    Ni5   S    
C137  H110  S    
C183  C209  A    
C137  C138  S    
C103  C163  S    
C130  H95   S    
C30   C230  A    
C47   N21   A    
C64   C225  A    
C141  C142  S    
C46   C93   A    
C10   C20   A    
C67   C228  A    
C194  C203  A    
C144  H126  S    
C104  H25   S    
C25   N43   S    
H215  N44   S    
C6    C219  A    
C24   C113  A    
C149  H136  S    
C111  H51   S    
C127  H82   S    
C142  H121  S    
N3    N11   A    
C4    C217  A    
C151  C170  A    
H184  N29   S    
H207  N41   S    
C99   H16   S    
H220  N48   S    
C89   N47   S    
H201  N38   S    
