data_mof_unit_49769.cif
_audit_creation_date              2013-03-05T16:04:56-0500
_audit_creation_method            fapswitch 2.2
_symmetry_space_group_name_H-M    P1
_symmetry_Int_Tables_number       1
_space_group_crystal_system       triclinic
_cell_length_a                    22.867292
_cell_length_b                    20.493965
_cell_length_c                    15.045251
_cell_angle_alpha                 90.235634
_cell_angle_beta                  100.105449
_cell_angle_gamma                 91.067122
_cell_volume                      6940.04668858

loop_
_atom_site_label
_atom_site_type_symbol
_atom_site_description
_atom_site_fract_x
_atom_site_fract_y
_atom_site_fract_z
_atom_type_partial_charge
O1    O     O_R   0.541320 0.066090 0.608930 -0.557459
O2    O     O_R   0.458680 0.933910 0.391070 -0.574523
O3    O     O_R   0.458680 0.066090 0.391070 -0.585179
O4    O     O_R   0.541320 0.933910 0.608930 -0.616300
O5    O     O_R   0.041320 0.566090 0.608930 -0.557452
O6    O     O_R   0.958680 0.433910 0.391070 -0.574507
O7    O     O_R   0.958680 0.566090 0.391070 -0.585223
O8    O     O_R   0.041320 0.433910 0.608930 -0.616340
O9    O     O_R   0.572880 0.066110 0.470280 -0.538890
O10   O     O_R   0.427120 0.933890 0.529720 -0.598728
O11   O     O_R   0.427120 0.066110 0.529720 -0.528686
O12   O     O_R   0.572880 0.933890 0.470280 -0.590283
O13   O     O_R   0.072880 0.566110 0.470280 -0.538921
O14   O     O_R   0.927120 0.433890 0.529720 -0.598921
O15   O     O_R   0.927120 0.566110 0.529720 -0.528465
O16   O     O_R   0.072880 0.433890 0.470280 -0.590267
C1    C     C_R   0.573947 0.090382 0.551737 0.965576
C2    C     C_R   0.429535 0.907041 0.450856 0.859092
C3    C     C_R   0.425403 0.088963 0.447201 0.937317
C4    C     C_R   0.574651 0.912296 0.553321 0.861195
C5    C     C_R   0.073940 0.590387 0.551733 0.965685
C6    C     C_R   0.929526 0.407049 0.450848 0.859103
C7    C     C_R   0.925406 0.588969 0.447207 0.937514
C8    C     C_R   0.074661 0.412315 0.553333 0.861215
Zn1   Zn    Zn3+2 0.478910 1.000000 0.592580 1.078836
Zn2   Zn    Zn3+2 0.521090 0.000000 0.407420 1.089446
Zn3   Zn    Zn3+2 0.978910 0.500000 0.592580 1.078854
Zn4   Zn    Zn3+2 0.021090 0.500000 0.407420 1.089443
C9    C     C_R   0.614577 0.859247 0.585320 -0.222024
C10   C     C_R   0.379188 0.137524 0.414216 -0.207345
C11   C     C_R   0.402257 0.840474 0.434265 -0.264374
C12   C     C_R   0.617773 0.143879 0.581728 -0.212314
C13   C     C_R   0.114626 0.359322 0.585385 -0.221915
C14   C     C_R   0.879197 0.637543 0.414227 -0.207331
C15   C     C_R   0.902229 0.340498 0.434222 -0.264265
C16   C     C_R   0.117737 0.643911 0.581712 -0.212287
C17   C     C_R   0.683130 0.806611 0.705165 -0.136080
C18   C     C_R   0.307398 0.181946 0.290212 -0.120808
C19   C     C_R   0.360082 0.750834 0.333297 -0.129159
C20   C     C_R   0.667073 0.218599 0.699252 -0.125679
C21   C     C_R   0.183269 0.306838 0.705262 -0.136042
C22   C     C_R   0.807491 0.682062 0.290191 -0.120842
C23   C     C_R   0.859987 0.250931 0.333173 -0.129263
C24   C     C_R   0.166975 0.718705 0.699188 -0.125684
C25   C     C_R   0.644961 0.858302 0.675651 0.257707
C26   C     C_R   0.361812 0.150956 0.321128 0.239354
C27   C     C_R   0.387908 0.812915 0.346980 0.232658
C28   C     C_R   0.615225 0.183122 0.658295 0.256579
C29   C     C_R   0.145045 0.358470 0.675701 0.257743
C30   C     C_R   0.861907 0.651080 0.321155 0.239266
C31   C     C_R   0.887829 0.312999 0.346909 0.232705
C32   C     C_R   0.115151 0.683181 0.658242 0.256536
C33   C     C_R   0.621229 0.808023 0.526169 -0.114471
C34   C     C_R   0.347231 0.165184 0.476312 -0.096794
C35   C     C_R   0.392424 0.801804 0.508107 -0.080755
C36   C     C_R   0.662407 0.157177 0.531162 -0.090296
C37   C     C_R   0.121285 0.308062 0.526306 -0.114569
C38   C     C_R   0.847169 0.665121 0.476292 -0.096719
C39   C     C_R   0.892429 0.301786 0.508038 -0.080943
C40   C     C_R   0.162383 0.657205 0.531170 -0.090496
C41   C     C_R   0.671591 0.769088 0.547563 0.101407
C42   C     C_R   0.288988 0.186965 0.446192 0.004122
C43   C     C_R   0.348915 0.751590 0.492307 0.098379
C44   C     C_R   0.716673 0.184564 0.574974 0.002449
C45   C     C_R   0.171685 0.269189 0.547710 0.101420
C46   C     C_R   0.788934 0.686899 0.446101 0.004002
C47   C     C_R   0.848918 0.251575 0.492226 0.098465
C48   C     C_R   0.216629 0.684625 0.574994 0.002485
C49   C     C_R   0.697126 0.762144 0.640019 0.056509
C50   C     C_R   0.270674 0.199670 0.352890 0.066875
C51   C     C_R   0.338419 0.721002 0.405996 0.046837
C52   C     C_R   0.718342 0.218618 0.657556 0.063756
C53   C     C_R   0.197271 0.262338 0.640162 0.056519
C54   C     C_R   0.770694 0.699690 0.352809 0.066896
C55   C     C_R   0.838372 0.221044 0.405874 0.046918
C56   C     C_R   0.218260 0.718723 0.657531 0.063818
C57   C     C_R   0.700932 0.741853 0.480456 0.110894
C58   C     C_R   0.250781 0.202448 0.508212 0.049003
C59   C     C_R   0.311326 0.735120 0.555570 0.105994
C60   C     C_R   0.766378 0.187156 0.530494 0.043039
C61   C     C_R   0.201011 0.241932 0.480603 0.110899
C62   C     C_R   0.750671 0.702321 0.508064 0.048940
C63   C     C_R   0.811361 0.235063 0.555519 0.105927
C64   C     C_R   0.266355 0.687197 0.530558 0.043044
C65   C     C_R   0.261367 0.180320 0.598018 -0.175743
C66   C     C_R   0.686795 0.759063 0.388815 -0.084806
C67   C     C_R   0.770357 0.145125 0.457850 -0.161089
C68   C     C_R   0.311844 0.769934 0.636742 -0.089848
C69   C     C_R   0.761182 0.680097 0.597823 -0.175895
C70   C     C_R   0.186815 0.259080 0.388945 -0.084805
C71   C     C_R   0.270371 0.645124 0.457975 -0.161023
C72   C     C_R   0.811919 0.269828 0.636740 -0.089751
C73   C     C_R   0.236584 0.211354 0.663868 -0.128619
C74   C     C_R   0.719261 0.736160 0.325983 -0.128978
C75   C     C_R   0.805525 0.162259 0.395269 -0.121424
C76   C     C_R   0.267944 0.759417 0.688902 -0.140302
C77   C     C_R   0.736382 0.711099 0.663684 -0.128561
C78   C     C_R   0.219236 0.236133 0.326088 -0.128904
C79   C     C_R   0.305575 0.662214 0.395424 -0.121412
C80   C     C_R   0.768044 0.259284 0.688935 -0.140178
H1    H     H_    0.250136 0.196448 0.733171 0.199683
H2    H     H_    0.705682 0.751939 0.257176 0.196733
H3    H     H_    0.803706 0.131042 0.336796 0.204609
H4    H     H_    0.270862 0.788536 0.749649 0.191234
H5    H     H_    0.749880 0.696123 0.732967 0.199680
H6    H     H_    0.205613 0.251862 0.257266 0.196729
H7    H     H_    0.303787 0.630959 0.336996 0.204620
H8    H     H_    0.770992 0.288369 0.749718 0.191255
H9    H     H_    0.291715 0.141841 0.619643 0.231901
H10   H     H_    0.651865 0.792370 0.364104 0.196640
H11   H     H_    0.742713 0.101595 0.445295 0.232347
H12   H     H_    0.344430 0.807604 0.659870 0.202588
H13   H     H_    0.791490 0.641569 0.619399 0.231834
H14   H     H_    0.151869 0.292370 0.364234 0.196558
H15   H     H_    0.242734 0.601586 0.445444 0.232345
H16   H     H_    0.844515 0.307487 0.659879 0.202549
N1    N     N_R   0.549130 0.000000 0.284090 -0.161884
N2    N     N_R   0.450870 0.000000 0.715910 -0.179894
N3    N     N_R   0.049130 0.500000 0.284090 -0.161900
N4    N     N_R   0.950870 0.500000 0.715910 -0.179902
C81   C     C_R   0.628298 0.989071 0.200856 -0.280851
C82   C     C_R   0.370615 0.019483 0.792631 -0.302115
C83   C     C_R   0.128282 0.489070 0.200830 -0.280807
C84   C     C_R   0.870599 0.519399 0.792624 -0.301963
C85   C     C_R   0.607252 0.985764 0.281648 0.487858
C86   C     C_R   0.391421 0.004184 0.714317 0.486809
C87   C     C_R   0.107247 0.485754 0.281630 0.487835
C88   C     C_R   0.891416 0.504118 0.714318 0.486876
C89   C     C_R   0.510110 0.012205 0.207470 0.050501
C90   C     C_R   0.491345 0.008068 0.792045 0.012119
C91   C     C_R   0.010103 0.512220 0.207481 0.050392
C92   C     C_R   0.991339 0.508114 0.792045 0.012080
C93   C     C_R   0.528550 0.010871 0.122518 0.014753
C94   C     C_R   0.473024 0.022831 0.874222 0.031633
C95   C     C_R   0.028532 0.510896 0.122518 0.014659
C96   C     C_R   0.973005 0.522860 0.874219 0.031601
C97   C     C_R   0.589700 0.003664 0.121952 0.033517
C98   C     C_R   0.411065 0.026939 0.873140 0.044406
C99   C     C_R   0.089679 0.503683 0.121939 0.033502
C100  C     C_R   0.911045 0.526927 0.873131 0.044400
C101  C     C_R   0.489061 0.017914 0.039023 -0.046829
C102  C     C_R   0.513049 0.026141 0.958043 -0.044989
C103  C     C_R   0.989039 0.517960 0.039028 -0.046890
C104  C     C_R   0.013025 0.526190 0.958046 -0.044975
C105  C     C_R   0.575979 0.030989 0.964085 0.299490
C106  C     C_R   0.426464 0.012489 0.032954 0.305665
C107  C     C_R   0.075954 0.531054 0.964090 0.299472
C108  C     C_R   0.926437 0.512569 0.032963 0.305856
C109  C     C_R   0.612758 0.014140 0.043857 -0.167948
C110  C     C_R   0.389147 0.027781 0.953227 -0.159691
C111  C     C_R   0.112736 0.514184 0.043847 -0.167964
C112  C     C_R   0.889123 0.527808 0.953213 -0.159485
H17   H     H_    0.660499 0.014243 0.046882 0.198653
H18   H     H_    0.341471 0.025023 0.950979 0.191972
H19   H     H_    0.160475 0.514292 0.046867 0.198665
H20   H     H_    0.841447 0.525042 0.950964 0.191894
H21   H     H_    0.536865 0.000015 0.786575 0.212764
H22   H     H_    0.465466 0.023791 0.214471 0.206313
H23   H     H_    0.036867 0.500107 0.786575 0.212776
H24   H     H_    0.965468 0.523824 0.214505 0.206321
H25   H     H_    0.674989 0.981049 0.200229 0.187220
H26   H     H_    0.323090 0.020673 0.791615 0.174583
H27   H     H_    0.174972 0.481044 0.200189 0.187247
H28   H     H_    0.823071 0.520542 0.791616 0.174525
N5    N     N_R   0.603546 0.059889 0.894702 0.204482
O17   O     O_R   0.580065 0.110647 0.852371 -0.315059
O18   O     O_R   0.656890 0.043732 0.885193 -0.291721
N6    N     N_R   0.401618 0.969959 0.091759 0.202684
O19   O     O_R   0.350540 0.982884 0.113961 -0.279444
O20   O     O_R   0.419611 0.910125 0.096165 -0.293688
N7    N     N_R   0.103513 0.559998 0.894728 0.204504
O21   O     O_R   0.080014 0.610761 0.852432 -0.314959
O22   O     O_R   0.156861 0.543871 0.885202 -0.291698
N8    N     N_R   0.901568 0.470100 0.091803 0.202513
O23   O     O_R   0.850604 0.483228 0.114253 -0.279637
O24   O     O_R   0.919327 0.410176 0.095953 -0.293613
C113  C     C_2   0.381047 0.192966 0.562162 0.498664
H29   H     H_    0.386267 0.245562 0.569238 0.095917
O25   O     O_2   0.399787 0.158711 0.626677 -0.480971
C114  C     C_2   0.570260 0.787900 0.454280 0.405317
H30   H     H_    0.534667 0.821033 0.430495 0.082073
O26   O     O_2   0.565875 0.732271 0.424055 -0.527357
C115  C     C_2   0.643192 0.174794 0.434511 0.466362
H31   H     H_    0.638975 0.225969 0.416776 0.083294
O27   O     O_2   0.634692 0.133793 0.374425 -0.506672
C116  C     C_2   0.437765 0.801477 0.592624 0.398442
H32   H     H_    0.470427 0.840301 0.608291 0.101892
O28   O     O_2   0.441577 0.754923 0.643642 -0.531847
C117  C     C_2   0.880915 0.692869 0.562213 0.499078
H33   H     H_    0.886126 0.745463 0.569339 0.095838
O29   O     O_2   0.899609 0.658590 0.626721 -0.481033
C118  C     C_2   0.070307 0.287858 0.454480 0.405452
H34   H     H_    0.034686 0.320954 0.430673 0.081757
O30   O     O_2   0.065948 0.232206 0.424336 -0.527259
C119  C     C_2   0.143187 0.674786 0.434502 0.466539
H35   H     H_    0.138925 0.725951 0.416735 0.083302
O31   O     O_2   0.134746 0.633765 0.374439 -0.506629
C120  C     C_2   0.937796 0.301429 0.592522 0.398273
H36   H     H_    0.970441 0.340267 0.608213 0.101827
O32   O     O_2   0.941647 0.254840 0.643478 -0.531779
N9    N     N_R   0.401146 0.137643 0.258816 0.194477
O33   O     O_R   0.453950 0.164630 0.271458 -0.369461
O34   O     O_R   0.381578 0.107323 0.183080 -0.385173
N10   N     N_R   0.639259 0.911296 0.736039 0.212790
O35   O     O_R   0.613721 0.901720 0.805754 -0.420264
O36   O     O_R   0.655129 0.970193 0.717068 -0.322425
N11   N     N_R   0.557636 0.196784 0.680095 0.229145
O37   O     O_R   0.512860 0.202472 0.614394 -0.406895
O38   O     O_R   0.551048 0.215627 0.760288 -0.304677
N12   N     N_R   0.399385 0.848565 0.270897 0.217431
O39   O     O_R   0.452022 0.846604 0.249447 -0.356473
O40   O     O_R   0.354456 0.867775 0.212243 -0.268195
N13   N     N_R   0.901341 0.637914 0.258937 0.194595
O41   O     O_R   0.954166 0.664862 0.271875 -0.369331
O42   O     O_R   0.881878 0.607741 0.183045 -0.385195
N14   N     N_R   0.139314 0.411496 0.736023 0.212817
O43   O     O_R   0.113819 0.401937 0.805786 -0.420303
O44   O     O_R   0.155121 0.470395 0.716956 -0.322547
N15   N     N_R   0.057547 0.696788 0.680040 0.229124
O45   O     O_R   0.012746 0.702356 0.614350 -0.406982
O46   O     O_R   0.050951 0.715678 0.760210 -0.304689
N16   N     N_R   0.899251 0.348713 0.270850 0.217390
O47   O     O_R   0.951848 0.346735 0.249255 -0.356481
O48   O     O_R   0.854294 0.368056 0.212364 -0.268284
C121  C     C_2   0.713599 0.805849 0.801015 0.485259
H37   H     H_    0.688989 0.815826 0.854737 0.130721
O49   O     O_2   0.766945 0.796984 0.820716 -0.529968
C122  C     C_2   0.290760 0.196496 0.192409 0.509728
H38   H     H_    0.323449 0.217890 0.156327 0.114188
O50   O     O_2   0.241603 0.181600 0.150541 -0.524413
C123  C     C_2   0.349460 0.722616 0.240387 0.523879
H39   H     H_    0.383744 0.727243 0.199110 0.125047
O51   O     O_2   0.301575 0.697954 0.207106 -0.521810
C124  C     C_2   0.666334 0.258699 0.781192 0.538868
H40   H     H_    0.633963 0.296788 0.780538 0.102624
O52   O     O_2   0.701591 0.248703 0.850437 -0.484764
C125  C     C_2   0.213781 0.306174 0.801093 0.485195
H41   H     H_    0.189187 0.316154 0.854833 0.130666
O53   O     O_2   0.267140 0.297384 0.820754 -0.529997
C126  C     C_2   0.790937 0.696724 0.192411 0.509833
H42   H     H_    0.823655 0.718218 0.156466 0.114215
O54   O     O_2   0.741818 0.681825 0.150410 -0.524378
C127  C     C_2   0.849289 0.222794 0.240215 0.523804
H43   H     H_    0.883529 0.227468 0.198864 0.125076
O55   O     O_2   0.801389 0.198143 0.206984 -0.521815
C128  C     C_2   0.166196 0.758848 0.781078 0.538871
H44   H     H_    0.133803 0.796921 0.780361 0.102587
O56   O     O_2   0.201442 0.748904 0.850351 -0.484713
N17   N     N_R   0.350098 0.987401 0.634597 0.226583
O57   O     O_R   0.320694 0.032742 0.587195 -0.384398
O58   O     O_R   0.331233 0.927289 0.622488 -0.430066
N18   N     N_R   0.647631 0.966413 0.360451 0.216273
O59   O     O_R   0.664034 0.007609 0.426228 -0.343261
O60   O     O_R   0.679581 0.915028 0.356257 -0.443148
N19   N     N_R   0.850100 0.487264 0.634622 0.226429
O61   O     O_R   0.820927 0.532595 0.586859 -0.384038
O62   O     O_R   0.831013 0.427207 0.622823 -0.430277
N20   N     N_R   0.147632 0.466396 0.360423 0.216256
O63   O     O_R   0.164028 0.507580 0.426218 -0.343186
O64   O     O_R   0.179591 0.415022 0.356206 -0.443164

loop_
_geom_bond_atom_site_label_1
_geom_bond_atom_site_label_2
_geom_bond_distance
_ccdc_geom_bond_type
O16   Zn4   1.951895 S    
N7    O21   1.297028 A    
N19   O62   1.299188 A    
C47   C63   1.427465 A    
N5    O17   1.297017 A    
O8    C8    1.307729 A    
C17   C49   1.416757 A    
O2    C2    1.325620 A    
N9    O34   1.299854 A    
N9    O33   1.301450 A    
C54   C74   1.404814 A    
N20   O64   1.300397 A    
C46   C62   1.424313 A    
C58   C61   1.412015 A    
Zn2   N1    2.066794 S    
C53   C73   1.397381 A    
C93   C97   1.410350 A    
C96   C100  1.418088 A    
C44   C52   1.416853 A    
Zn1   N2    2.066796 S    
C122  O50   1.220954 D    
O4    Zn1   1.970618 S    
C12   C28   1.412408 A    
C55   C75   1.401328 A    
C5    C16   1.485337 S    
C43   C59   1.427468 A    
N13   O41   1.301480 A    
C98   C110  1.383996 A    
C95   C99   1.410348 A    
C6    C15   1.491009 S    
N7    O22   1.301524 A    
C29   N14   1.435513 S    
O11   C3    1.323109 A    
N17   O57   1.297943 A    
C62   C69   1.408589 A    
C124  O52   1.220847 D    
C90   H21   1.074182 S    
C18   C122  1.486704 S    
C66   H10   1.077191 S    
N14   O44   1.301135 A    
C60   C67   1.405291 A    
C91   C95   1.414749 A    
C115  O27   1.219468 D    
C59   C64   1.409703 A    
C14   C38   1.406706 A    
N6    O20   1.298925 A    
C94   C102  1.422909 A    
C83   H27   1.084981 S    
O11   Zn1   1.951893 S    
C39   C120  1.493166 S    
C13   C29   1.414046 A    
C103  C104  1.430585 A    
C46   C54   1.419311 A    
C83   C99   1.386663 A    
C88   N19   1.427079 S    
C45   C53   1.419813 A    
C42   C50   1.419326 A    
C15   C39   1.414559 A    
C35   C116  1.493194 S    
C81   C97   1.386645 A    
C24   C56   1.423409 A    
C109  H17   1.084601 S    
N8    O23   1.301435 A    
C59   C68   1.409994 A    
C66   C74   1.385902 A    
C127  H43   1.085299 S    
C39   C47   1.407938 A    
C106  C110  1.385318 A    
C65   C73   1.382944 A    
C38   C46   1.410843 A    
C26   N9    1.437122 S    
O6    Zn4   1.932319 S    
C112  H20   1.085227 S    
C41   C57   1.424127 A    
C113  O25   1.220434 D    
C35   C43   1.407926 A    
O16   C8    1.321333 A    
N3    C91   1.355498 A    
C36   C44   1.404758 A    
O13   Zn4   1.915536 S    
O3    C3    1.321930 A    
C120  H36   1.077508 S    
C64   C71   1.405287 A    
C111  H19   1.084589 S    
O14   Zn3   1.915537 S    
N1    C89   1.355474 A    
C19   C123  1.488755 S    
C100  C112  1.383981 A    
C16   C32   1.412439 A    
C24   C128  1.481534 S    
C84   C88   1.382750 A    
C77   H5    1.081330 S    
O15   C7    1.323084 A    
C24   C32   1.421951 A    
O6    C6    1.325579 A    
C17   C121  1.487722 S    
N5    O18   1.301546 A    
C11   C27   1.409609 A    
C125  H41   1.083666 S    
C116  O28   1.221734 D    
O1    Zn1   1.932318 S    
C44   C60   1.416890 A    
C102  C105  1.427472 A    
C97   C109  1.385614 A    
C117  H33   1.085003 S    
C33   C41   1.404583 A    
O4    C4    1.307831 A    
C60   C63   1.409708 A    
C21   C29   1.408335 A    
C89   H22   1.075305 S    
C75   H3    1.080053 S    
O9    Zn2   1.915536 S    
C69   H13   1.073652 S    
C4    C9    1.460936 S    
C85   N18   1.431388 S    
C23   C55   1.414144 A    
C103  C108  1.420565 A    
C128  O56   1.220845 D    
C80   H8    1.080976 S    
C92   H23   1.074194 S    
C14   C30   1.416728 A    
C18   C50   1.418736 A    
N11   O37   1.299734 A    
C48   C64   1.416874 A    
C104  C107  1.427438 A    
C122  H38   1.085291 S    
C69   C77   1.382965 A    
N14   O43   1.300816 A    
C82   C98   1.395064 A    
C37   C118  1.494797 S    
C20   C124  1.481534 S    
C73   H1    1.081337 S    
N15   O45   1.299751 A    
C72   C80   1.392774 A    
C22   C126  1.486681 S    
C21   C125  1.487720 S    
C34   C42   1.410841 A    
C30   N13   1.437148 S    
C23   C127  1.488771 S    
Zn3   N4    2.066796 S    
C51   C79   1.401339 A    
C108  N8    1.424499 S    
O7    Zn4   1.970617 S    
O12   Zn2   1.951895 S    
C68   C76   1.392785 A    
O5    C5    1.326587 A    
C118  O30   1.221511 D    
C82   C86   1.382813 A    
C107  C111  1.388154 A    
C115  H31   1.085101 S    
C107  N7    1.435265 S    
C81   C85   1.385101 A    
N2    C90   1.347881 A    
N15   O46   1.299864 A    
C10   C34   1.406695 A    
N18   O60   1.300390 A    
O15   Zn3   1.951893 S    
C92   C96   1.406828 A    
C7    C14   1.487622 S    
C81   H25   1.084975 S    
O12   C4    1.321320 A    
C38   C117  1.489121 S    
C126  O54   1.220961 D    
C121  H37   1.083667 S    
C87   N20   1.431397 S    
O13   C5    1.316828 A    
O2    Zn2   1.932319 S    
N16   O48   1.299590 A    
C72   H16   1.075976 S    
C74   H2    1.079990 S    
C22   C54   1.418737 A    
C101  C106  1.420506 A    
C22   C30   1.413150 A    
C89   C93   1.414719 A    
C61   C70   1.407731 A    
C105  N5    1.435250 S    
C58   C65   1.408623 A    
O9    C1    1.316821 A    
N6    O19   1.301436 A    
C43   C51   1.419575 A    
C57   C66   1.407730 A    
C113  H29   1.085016 S    
N17   O58   1.299107 A    
N12   O40   1.299644 A    
C86   N17   1.427082 S    
C15   C31   1.409572 A    
C119  O31   1.219467 D    
C47   C55   1.419600 A    
C124  H40   1.084636 S    
C17   C25   1.408379 A    
N19   O61   1.298009 A    
C33   C114  1.494787 S    
C83   C87   1.385096 A    
O8    Zn3   1.970618 S    
C79   H7    1.080052 S    
C114  H30   1.082574 S    
O10   Zn1   1.915537 S    
C19   C27   1.409856 A    
C52   C80   1.407974 A    
C41   C49   1.419810 A    
C20   C28   1.421922 A    
C76   H4    1.080971 S    
C106  N6    1.424617 S    
C128  H44   1.084639 S    
C32   N15   1.443932 S    
C13   C37   1.400939 A    
C114  O26   1.221512 D    
N4    C92   1.347907 A    
O1    C1    1.326618 A    
C84   C100  1.395117 A    
O3    Zn2   1.970617 S    
C108  C112  1.385272 A    
N10   O36   1.301136 A    
C16   C40   1.399482 A    
Zn4   N3    2.066794 S    
C78   H6    1.079988 S    
C94   C98   1.418135 A    
C67   C75   1.383637 A    
N4    C88   1.359753 A    
C2    C11   1.491095 S    
C36   C115  1.491299 S    
C31   N16   1.420579 S    
C48   C56   1.416840 A    
N2    C86   1.359755 A    
C65   H9    1.073566 S    
C8    C13   1.460759 S    
C82   H26   1.084915 S    
C34   C113  1.489131 S    
C10   C26   1.416716 A    
C11   C35   1.414616 A    
C118  H34   1.082593 S    
O14   C6    1.316220 A    
C125  O53   1.220955 D    
N20   O63   1.297666 A    
N13   O42   1.299914 A    
C96   C104  1.422927 A    
C71   C79   1.383640 A    
C101  C102  1.430553 A    
C56   C76   1.407976 A    
C126  H42   1.085324 S    
O5    Zn3   1.932318 S    
C23   C31   1.409835 A    
C42   C58   1.424323 A    
C9    C33   1.401050 A    
C57   C62   1.412031 A    
O10   C2    1.316213 A    
C25   N10   1.435518 S    
O7    C7    1.321988 A    
C37   C45   1.404545 A    
C28   N11   1.443883 S    
C99   C111  1.385627 A    
C95   C103  1.422205 A    
C121  O49   1.220958 D    
C71   H15   1.080218 S    
C70   H14   1.077204 S    
C12   C36   1.399508 A    
C91   H24   1.075276 S    
C90   C94   1.406786 A    
N8    O24   1.298957 A    
C18   C26   1.413071 A    
C123  O51   1.220701 D    
C21   C53   1.416730 A    
C119  H35   1.085100 S    
C68   H12   1.075975 S    
C20   C52   1.423401 A    
C67   H11   1.080208 S    
N10   O35   1.300812 A    
C40   C48   1.404721 A    
C63   C72   1.409992 A    
N12   O39   1.300977 A    
C110  H18   1.085207 S    
C27   N12   1.420619 S    
C9    C25   1.414040 A    
C123  H39   1.085292 S    
N11   O38   1.299863 A    
C1    C12   1.485371 S    
C19   C51   1.414150 A    
C45   C61   1.424093 A    
C120  O32   1.221729 D    
C93   C101  1.422172 A    
C127  O55   1.220700 D    
C117  O29   1.220422 D    
C116  H32   1.077507 S    
C3    C10   1.487558 S    
N1    C85   1.372758 A    
N16   O47   1.301027 A    
C70   C78   1.385831 A    
C105  C109  1.388172 A    
C50   C78   1.404784 A    
C40   C119  1.491287 S    
C49   C77   1.397436 A    
N18   O59   1.297661 A    
C84   H28   1.084975 S    
N3    C87   1.372737 A    
