data_mof_unit_61758.cif
_audit_creation_date              2012-12-10T17:27:30-0500
_audit_creation_method            fapswitch 2.2
_symmetry_space_group_name_H-M    P1
_symmetry_Int_Tables_number       1
_space_group_crystal_system       triclinic
_cell_length_a                    42.663146
_cell_length_b                    29.424508
_cell_length_c                    29.419387
_cell_angle_alpha                 89.999914
_cell_angle_beta                  133.88232
_cell_angle_gamma                 90.001893
_cell_volume                      26618.8581236

loop_
_atom_site_label
_atom_site_type_symbol
_atom_type_description
_atom_site_fract_x
_atom_site_fract_y
_atom_site_fract_z
_atom_type_partial_charge
C1    C     C_R   0.499982 0.585484 0.500000 0.827570
C2    C     C_1   0.835419 0.000238 0.335070 0.095079
C3    C     C_3   0.761111 0.965352 0.233979 -0.036010
C4    C     C_1   0.373530 0.500001 0.373840 -0.123339
C5    C     C_1   0.873530 0.000117 0.373841 -0.123361
C6    C     C_1   0.120243 0.500003 0.119539 -0.184220
C7    C     C_1   0.620243 0.000027 0.119544 -0.184198
C8    C     C_3   0.261023 0.500503 0.301845 0.109448
C9    C     C_3   0.761028 0.995905 0.301637 0.109485
C10   C     C_3   0.289573 0.500023 0.287861 0.083456
C11   C     C_3   0.789573 0.000328 0.287871 0.083456
C12   C     C_2   0.275897 0.579014 0.227725 0.368978
C13   C     C_1   0.158348 0.500008 0.156890 -0.004207
C14   C     C_2   0.275800 0.420085 0.229334 0.390201
C15   C     C_2   0.775729 0.084001 0.236784 0.390231
C16   C     C_2   0.775957 0.925896 0.220753 0.368961
C17   C     C_1   0.658348 0.000106 0.156899 -0.004191
C18   C     C_1   0.499965 0.636533 0.499955 -0.192734
C19   C     C_1   0.499967 0.363467 0.499956 -0.191174
C20   C     C_1   0.999965 0.136533 0.499954 -0.190546
C21   C     C_1   0.999968 0.863467 0.499957 -0.193511
C22   C     C_1   0.499955 0.678856 0.499938 0.011670
C23   C     C_1   0.499957 0.321144 0.499941 0.013071
C24   C     C_1   0.999954 0.178856 0.499938 0.013587
C25   C     C_R   0.499982 0.414516 0.500001 0.829012
C26   C     C_1   0.999958 0.821144 0.499942 0.011045
C27   C     C_1   0.499948 0.729022 0.499936 0.011091
C28   C     C_1   0.499952 0.270977 0.499940 0.012222
C29   C     C_1   0.999947 0.229022 0.499935 0.012531
C30   C     C_1   0.999953 0.770977 0.499941 0.010710
C31   C     C_1   0.499946 0.771345 0.499942 0.009534
C32   C     C_1   0.499951 0.228655 0.499946 0.010435
C33   C     C_1   0.999945 0.271345 0.499941 0.010609
C34   C     C_1   0.999951 0.728655 0.499947 0.009314
C35   C     C_1   0.499947 0.821512 0.499954 0.007556
C36   C     C_R   0.999982 0.085484 0.500000 0.829550
C37   C     C_1   0.499952 0.178488 0.499959 0.008247
C38   C     C_1   0.999946 0.321512 0.499954 0.008345
C39   C     C_1   0.999952 0.678488 0.499960 0.007431
C40   C     C_1   0.499949 0.863835 0.499967 -0.194724
C41   C     C_1   0.499954 0.136165 0.499971 -0.194217
C42   C     C_1   0.999949 0.363835 0.499966 -0.194160
C43   C     C_1   0.999954 0.636165 0.499971 -0.194799
C44   C     C_R   0.418349 0.499997 0.418521 0.867597
C45   C     C_R   0.918349 0.999986 0.418521 0.867346
C46   C     C_1   0.635097 0.499999 0.634759 -0.199522
C47   C     C_R   0.999983 0.914515 0.500001 0.826824
C48   C     C_1   0.135097 0.999999 0.634759 -0.199517
C49   C     C_1   0.676569 0.499999 0.676219 0.016202
C50   C     C_1   0.176569 0.999999 0.676219 0.016209
C51   C     C_1   0.726143 0.499998 0.725861 0.004725
C52   C     C_1   0.226143 0.999998 0.725861 0.004730
C53   C     C_1   0.767617 0.499998 0.767416 0.004818
C54   C     C_1   0.267617 0.999998 0.767416 0.004822
C55   C     C_1   0.817190 0.499998 0.817096 0.016592
C56   C     C_1   0.317190 0.999998 0.817096 0.016597
C57   C     C_1   0.858663 0.499998 0.858657 -0.200731
C58   C     C_3   0.204138 0.500023 0.202058 0.115730
C59   C     C_1   0.358663 0.999998 0.858657 -0.200725
C60   C     C_R   0.994841 0.500000 0.080447 0.826232
C61   C     C_R   0.494841 1.000000 0.080447 0.826210
C62   C     C_R   0.075425 0.500001 0.075521 0.864260
C63   C     C_R   0.575425 0.000003 0.075521 0.864138
C64   C     C_R   0.993226 0.500000 0.907791 0.823966
C65   C     C_R   0.493226 0.000000 0.907791 0.823859
C66   C     C_R   0.909158 0.499999 0.909243 0.809873
C67   C     C_R   0.409158 0.999999 0.909243 0.809870
C68   C     C_R   0.584605 0.500000 0.584494 0.804699
C69   C     C_3   0.704138 0.000216 0.202070 0.115716
C70   C     C_R   0.084605 1.000000 0.584494 0.804694
C71   C     C_R   0.499080 0.000000 0.414037 0.815142
C72   C     C_R   0.999080 0.500000 0.414037 0.815129
C73   C     C_R   0.499956 0.914884 0.499983 0.814629
C74   C     C_R   0.499958 0.085116 0.499985 0.814810
C75   C     C_R   0.999956 0.414884 0.499983 0.814825
C76   C     C_R   0.999958 0.585116 0.499985 0.814617
C77   C     C_R   0.500765 1.000000 0.585892 0.814364
C78   C     C_R   0.000765 0.500000 0.585892 0.814379
C79   C     C_1   0.995585 0.500000 0.132230 -0.200705
C80   C     C_3   0.232069 0.499593 0.186443 -0.343674
C81   C     C_1   0.495585 1.000000 0.132230 -0.200728
C82   C     C_1   0.996213 0.500000 0.175176 0.007225
C83   C     C_1   0.496214 0.000000 0.175177 0.007200
C84   C     C_1   0.996954 0.500000 0.226074 0.008754
C85   C     C_1   0.496954 0.000000 0.226074 0.008753
C86   C     C_1   0.497560 0.000000 0.268998 0.008439
C87   C     C_1   0.997560 0.500000 0.268998 0.008420
C88   C     C_1   0.498231 0.000000 0.319827 0.007236
C89   C     C_1   0.998231 0.500000 0.319827 0.007208
C90   C     C_1   0.498712 0.000000 0.362627 -0.194702
C91   C     C_3   0.732064 0.004681 0.186672 -0.343683
C92   C     C_1   0.998712 0.500000 0.362627 -0.194731
C93   C     C_1   0.994239 0.500000 0.857740 -0.202651
C94   C     C_1   0.494239 1.000000 0.857740 -0.202740
C95   C     C_3   0.232641 0.537145 0.251574 0.073653
C96   C     C_3   0.232670 0.463402 0.252384 0.114191
C97   C     C_3   0.732637 0.034737 0.255625 0.114289
C98   C     C_3   0.732679 0.961374 0.248137 0.073581
C99   C     C_1   0.995406 0.500000 0.816587 0.005936
C100  C     C_1   0.495406 1.000000 0.816587 0.005853
C101  C     C_1   0.996948 0.500000 0.767965 0.007557
C102  C     C_1   0.335418 0.500007 0.335065 0.095032
C103  C     C_1   0.496948 1.000000 0.767965 0.007492
C104  C     C_1   0.498248 0.000000 0.726950 0.007441
C105  C     C_1   0.998248 0.500000 0.726950 0.007492
C106  C     C_1   0.499654 1.000000 0.678188 0.006755
C107  C     C_1   0.999654 0.500000 0.678188 0.006794
C108  C     C_1   0.500523 0.000000 0.636727 -0.195370
C109  C     C_1   0.000523 0.500000 0.636727 -0.195342
C110  C     C_3   0.261080 0.537132 0.237242 -0.035748
C111  C     C_3   0.261045 0.462512 0.237991 -0.001447
C112  C     C_3   0.761008 0.039587 0.241488 -0.001238
Cu1   Cu    Cu3+1 0.500480 0.500000 0.542990 0.971985
Cu2   Cu    Cu3+1 0.958020 0.500000 0.458050 0.970119
Cu3   Cu    Cu3+1 0.541920 0.000000 0.541950 0.968208
Cu4   Cu    Cu3+1 0.041920 0.500000 0.541950 0.968212
Cu5   Cu    Cu3+1 0.000480 0.000000 0.542990 0.972335
Cu6   Cu    Cu3+1 0.499450 0.500000 0.457010 0.993997
Cu7   Cu    Cu3+1 0.999450 0.000000 0.457010 0.993893
Cu8   Cu    Cu3+1 0.993800 0.542460 0.993900 0.967155
Cu9   Cu    Cu3+1 0.993800 0.457540 0.993900 0.970674
Cu10  Cu    Cu3+1 0.493800 0.042460 0.993900 0.970554
Cu11  Cu    Cu3+1 0.493800 0.957540 0.993900 0.967446
Cu12  Cu    Cu3+1 0.458020 1.000000 0.458050 0.970145
H1    H     H_    0.219322 0.499214 0.138320 0.161440
H2    H     H_    0.198758 0.434857 0.270175 0.227960
H3    H     H_    0.743081 0.088897 0.307383 0.236065
H4    H     H_    0.698703 0.058372 0.275790 0.227782
H5    H     H_    0.743159 0.898845 0.285600 0.221564
H6    H     H_    0.698529 0.902604 0.208138 0.216896
H7    H     H_    0.250200 0.502741 0.358953 0.233442
H8    H     H_    0.294888 0.530672 0.386835 0.224645
H9    H     H_    0.750216 0.987446 0.358267 0.233461
H10   H     H_    0.794926 0.961239 0.383685 0.224444
H11   H     H_    0.719311 0.008272 0.138727 0.161453
H12   H     H_    0.251983 0.602410 0.190040 0.066236
H13   H     H_    0.251852 0.396408 0.192172 0.078507
H14   H     H_    0.751762 0.108754 0.201825 0.078562
H15   H     H_    0.752058 0.903824 0.181003 0.066141
H16   H     H_    0.243058 0.596958 0.294590 0.221653
H17   H     H_    0.198432 0.596148 0.216919 0.216910
H18   H     H_    0.243166 0.405704 0.299061 0.235951
N1    N     N_3   0.216190 0.577239 0.258422 -0.584571
N2    N     N_3   0.216258 0.423445 0.259539 -0.586389
N3    N     N_3   0.716189 0.072340 0.266305 -0.586508
N4    N     N_3   0.716271 0.919288 0.251257 -0.584312
N5    N     N_3   0.277197 0.500675 0.364621 -0.583382
N6    N     N_3   0.777208 0.991496 0.364209 -0.583244
O1    O     O_R   0.500410 0.561970 0.536310 -0.563821
O2    O     O_R   0.963790 0.500000 0.401850 -0.557359
O3    O     O_R   0.534640 1.000000 0.472710 -0.558144
O4    O     O_R   0.034640 0.500000 0.472710 -0.558145
O5    O     O_R   0.464530 0.938000 0.464560 -0.557540
O6    O     O_R   0.464530 0.062000 0.464560 -0.557224
O7    O     O_R   0.964530 0.438000 0.464560 -0.557169
O8    O     O_R   0.964530 0.562000 0.464560 -0.557609
O9    O     O_R   0.535390 0.937990 0.535420 -0.558115
O10   O     O_R   0.535390 0.062010 0.535420 -0.558132
O11   O     O_R   0.035390 0.437990 0.535420 -0.558154
O12   O     O_R   0.500410 0.438030 0.536310 -0.562697
O13   O     O_R   0.035390 0.562010 0.535420 -0.558086
O14   O     O_R   0.465290 0.000000 0.527290 -0.557774
O15   O     O_R   0.965290 0.500000 0.527290 -0.557769
O16   O     O_R   0.536150 0.000000 0.598150 -0.557723
O17   O     O_R   0.036150 0.500000 0.598150 -0.557712
O18   O     O_R   0.499540 0.561910 0.463710 -0.557537
O19   O     O_R   0.499540 0.438090 0.463710 -0.557731
O20   O     O_R   0.999540 0.061910 0.463710 -0.558020
O21   O     O_R   0.999540 0.938090 0.463710 -0.557375
O22   O     O_R   0.439190 0.500000 0.475090 -0.584160
O23   O     O_R   0.000410 0.061970 0.536310 -0.562427
O24   O     O_R   0.939190 1.000000 0.475090 -0.583820
O25   O     O_R   0.438320 0.500000 0.402480 -0.558288
O26   O     O_R   0.938320 0.000000 0.402480 -0.558347
O27   O     O_R   0.561610 0.500000 0.597520 -0.558380
O28   O     O_R   0.061610 1.000000 0.597520 -0.558360
O29   O     O_R   0.560740 0.500000 0.524910 -0.558703
O30   O     O_R   0.060740 0.000000 0.524910 -0.558709
O31   O     O_R   0.994560 0.535840 0.056620 -0.560660
O32   O     O_R   0.994560 0.464160 0.056620 -0.560809
O33   O     O_R   0.494560 0.035840 0.056620 -0.560715
O34   O     O_R   0.000410 0.938030 0.536310 -0.563956
O35   O     O_R   0.494560 0.964160 0.056620 -0.560649
O36   O     O_R   0.055010 0.535850 0.055100 -0.577275
O37   O     O_R   0.055010 0.464150 0.055100 -0.573959
O38   O     O_R   0.555010 0.035850 0.055100 -0.574132
O39   O     O_R   0.555010 0.964150 0.055100 -0.576939
O40   O     O_R   0.993040 0.535870 0.931160 -0.561806
O41   O     O_R   0.993040 0.464130 0.931160 -0.560653
O42   O     O_R   0.493040 0.035870 0.931160 -0.560756
O43   O     O_R   0.493040 0.964130 0.931160 -0.561775
O44   O     O_2   0.314557 0.587063 0.261933 -0.534220
O45   O     O_R   0.932590 0.535860 0.932690 -0.556820
O46   O     O_2   0.314449 0.411909 0.263650 -0.537454
O47   O     O_2   0.814371 0.092594 0.271866 -0.537927
O48   O     O_2   0.814622 0.918347 0.254239 -0.533663
O49   O     O_R   0.932590 0.464140 0.932690 -0.556579
O50   O     O_R   0.432590 0.035860 0.932690 -0.556584
O51   O     O_R   0.432590 0.964140 0.932690 -0.556811
O52   O     O_R   0.463790 1.000000 0.401850 -0.557343

loop_
_geom_bond_atom_site_label_1
_geom_bond_atom_site_label_2
_ccdc_geom_bond_type
C21   C26   T    
C60   C79   S    
C17   C69   S    
C9    C98   S    
Cu12  O6    S    
H6    N4    S    
C68   O29   A    
C10   C110  S    
C8    C96   S    
H16   N1    S    
C57   C66   S    
C67   O50   A    
C104  C106  S    
C64   O41   A    
C71   O52   A    
C85   C86   T    
C25   O19   A    
C60   O31   A    
C95   N1    S    
C105  C107  S    
C46   C49   T    
C1    C18   S    
Cu3   O9    S    
Cu11  O51   S    
Cu8   O31   S    
C64   C93   S    
C38   C42   T    
C67   O51   A    
Cu5   Cu7   S    
Cu7   O26   S    
Cu9   O41   S    
C72   C92   S    
C86   C88   S    
H4    N3    S    
Cu10  O38   S    
C80   H1    S    
C29   C33   T    
Cu6   O19   S    
C36   O20   A    
C59   C67   S    
C40   C73   S    
C74   O6    A    
C62   O36   A    
C3    C91   S    
Cu3   O16   S    
C58   C96   S    
C24   C29   S    
Cu11  O35   S    
C47   O21   A    
C41   C74   S    
Cu10  O33   S    
C71   O3    A    
C65   O43   A    
Cu6   O25   S    
C72   O4    A    
C4    C102  T    
C50   C52   S    
C84   C87   T    
H7    N5    S    
Cu7   O30   S    
C94   C100  T    
C93   C99   T    
C58   C80   S    
Cu1   O27   S    
C15   H14   S    
C15   O47   D    
C69   C98   S    
C77   O16   A    
C48   C50   T    
C14   O46   D    
C78   O15   A    
Cu12  O5    S    
C80   C111  S    
C61   O33   A    
C37   C41   T    
C107  C109  T    
C76   O13   A    
C8    C95   S    
C47   O34   A    
C2    C11   S    
Cu8   O40   S    
Cu2   O8    S    
C81   C83   T    
C68   O27   A    
C52   C54   T    
Cu10  O42   S    
Cu9   O32   S    
Cu12  O14   S    
C53   C55   S    
C101  C105  T    
C14   C111  S    
C12   O44   D    
C96   C111  S    
C54   C56   S    
C61   O35   A    
C70   O28   A    
C74   O10   A    
Cu3   O10   S    
C27   C31   T    
C34   C39   S    
Cu1   O1    S    
Cu4   O13   S    
C28   C32   T    
C44   O25   A    
Cu4   O11   S    
C97   C112  S    
C30   C34   T    
Cu5   O34   S    
C70   O30   A    
C39   C43   T    
C13   C58   S    
C98   N4    S    
C49   C51   S    
C23   C28   S    
C5    C45   S    
C76   O8    A    
C100  C103  S    
C51   C53   T    
H17   N1    S    
C20   C36   S    
C91   C112  S    
C19   C23   T    
C58   C95   S    
C46   C68   S    
C16   O48   D    
C96   N2    S    
C9    C11   S    
Cu5   O23   S    
C14   H13   S    
C10   C102  S    
C63   O38   A    
Cu9   O49   S    
C25   O12   A    
C42   C75   S    
C10   C111  S    
H9    N6    S    
C32   C37   S    
Cu10  O50   S    
C89   C92   T    
C1    O1    A    
Cu8   O36   S    
C7    C63   S    
H5    N4    S    
C64   O40   A    
Cu7   O21   S    
C62   O37   A    
Cu5   O28   S    
C65   C94   S    
C99   C101  S    
H3    N3    S    
C26   C30   S    
C63   O39   A    
C22   C27   S    
C55   C57   T    
C31   C35   S    
Cu4   O17   S    
C8    N5    S    
Cu2   O2    S    
Cu3   O3    S    
C45   O24   A    
Cu2   O7    S    
Cu4   O4    S    
C66   O45   A    
H10   N6    S    
Cu8   Cu9   S    
C73   O5    A    
C75   O11   A    
C77   O14   A    
C36   O23   A    
C9    C97   S    
Cu3   Cu12  S    
C83   C85   S    
C11   C112  S    
C18   C22   T    
H8    N5    S    
C97   N3    S    
C15   C112  S    
C77   C108  S    
C33   C38   S    
C48   C70   S    
C95   C110  S    
C7    C17   T    
C79   C82   T    
Cu2   Cu4   S    
C2    C5    T    
Cu1   O22   S    
C73   O9    A    
C60   O32   A    
C4    C44   S    
Cu12  O52   S    
C9    N6    S    
C82   C84   S    
Cu8   O45   S    
C56   C59   T    
C6    C62   S    
C87   C89   S    
C88   C90   T    
C61   C81   S    
C45   O26   A    
C6    C13   T    
Cu5   O24   S    
Cu2   O15   S    
C71   C90   S    
C106  C108  T    
C1    O18   A    
C12   C110  S    
C72   O2    A    
H2    N2    S    
C78   O17   A    
Cu6   O18   S    
C35   C40   T    
C78   C109  S    
H18   N2    S    
Cu1   O12   S    
Cu11  O39   S    
C19   C25   S    
C44   O22   A    
C66   O49   A    
C3    C11   S    
Cu9   O37   S    
Cu1   Cu6   S    
C16   H15   S    
Cu6   O29   S    
C75   O7    A    
C91   H11   S    
C65   O42   A    
C8    C10   S    
C12   H12   S    
C80   C110  S    
C103  C104  T    
C43   C76   S    
Cu10  Cu11  S    
C69   C91   S    
Cu11  O43   S    
Cu7   O20   S    
C20   C24   T    
C3    C98   S    
C3    C16   S    
C21   C47   S    
C69   C97   S    
