data_mof_unit_13175.cif
_audit_creation_date              2013-03-05T15:41:13-0500
_audit_creation_method            fapswitch 2.2
_symmetry_space_group_name_H-M    P1
_symmetry_Int_Tables_number       1
_space_group_crystal_system       triclinic
_cell_length_a                    16.80351
_cell_length_b                    16.818883
_cell_length_c                    16.949938
_cell_angle_alpha                 68.135327
_cell_angle_beta                  67.983318
_cell_angle_gamma                 68.21066
_cell_volume                      3969.42621086

loop_
_atom_site_label
_atom_site_type_symbol
_atom_site_description
_atom_site_fract_x
_atom_site_fract_y
_atom_site_fract_z
_atom_type_partial_charge
O1    O     O_R   0.124540 0.978640 0.385460 -0.502194
O2    O     O_R   0.875460 0.021360 0.614540 -0.501623
O3    O     O_R   0.978640 0.385460 0.124540 -0.504228
O4    O     O_R   0.021360 0.614540 0.875460 -0.508639
O5    O     O_R   0.385460 0.124540 0.978640 -0.494098
O6    O     O_R   0.614540 0.875460 0.021360 -0.512862
O7    O     O_R   0.614540 0.021360 0.875460 -0.512266
O8    O     O_R   0.385460 0.978640 0.124540 -0.505380
O9    O     O_R   0.875460 0.614540 0.021360 -0.504212
O10   O     O_R   0.124540 0.385460 0.978640 -0.504709
O11   O     O_R   0.021360 0.875460 0.614540 -0.504205
O12   O     O_R   0.978640 0.124540 0.385460 -0.498404
C1    C     C_R   0.324466 0.947578 0.451575 -0.018572
C2    C     C_R   0.680930 0.027162 0.552240 -0.014706
C3    C     C_R   0.968012 0.449901 0.319299 -0.012864
C4    C     C_R   0.043079 0.547763 0.678834 -0.015620
C5    C     C_R   0.452100 0.321340 0.958608 -0.017405
C6    C     C_R   0.548294 0.678259 0.041829 -0.022283
C7    C     C_R   0.560685 0.001373 0.688651 -0.011092
C8    C     C_R   0.454501 0.948654 0.322145 -0.013671
C9    C     C_R   0.676480 0.547296 0.046990 -0.018484
C10   C     C_R   0.323688 0.452280 0.954236 -0.017601
C11   C     C_R   0.049669 0.675654 0.548299 -0.017124
C12   C     C_R   0.958805 0.322738 0.450920 -0.015400
Cu1   Cu    Cu3+1 0.995180 0.995180 0.424630 1.218087
Cu2   Cu    Cu3+1 0.004820 0.004820 0.575370 1.217853
Cu3   Cu    Cu3+1 0.995180 0.424630 0.995180 1.231102
Cu4   Cu    Cu3+1 0.004820 0.575370 0.004820 1.218492
Cu5   Cu    Cu3+1 0.424630 0.995180 0.995180 1.234276
Cu6   Cu    Cu3+1 0.575370 0.004820 0.004820 1.211456
C13   C     C_R   0.028766 0.828285 0.564441 0.765025
C14   C     C_R   0.972024 0.171751 0.435451 0.780724
C15   C     C_R   0.828060 0.564197 0.029254 0.778948
C16   C     C_R   0.171944 0.435637 0.971233 0.774699
C17   C     C_R   0.567804 0.018729 0.830080 0.789239
C18   C     C_R   0.435604 0.971063 0.171458 0.777324
C19   C     C_R   0.435504 0.171633 0.971883 0.795031
C20   C     C_R   0.564520 0.828306 0.028231 0.762618
C21   C     C_R   0.973796 0.434800 0.171461 0.781978
C22   C     C_R   0.027658 0.564807 0.828533 0.777134
C23   C     C_R   0.171631 0.971163 0.435395 0.770041
C24   C     C_R   0.828511 0.026329 0.564979 0.782092
O13   O     O_R   0.013780 0.867370 0.487190 -0.587935
O14   O     O_R   0.986220 0.132630 0.512810 -0.591498
O15   O     O_R   0.867370 0.487190 0.013780 -0.580680
O16   O     O_R   0.132630 0.512810 0.986220 -0.588120
O17   O     O_R   0.487190 0.013780 0.867370 -0.578679
O18   O     O_R   0.512810 0.986220 0.132630 -0.593727
O19   O     O_R   0.512810 0.132630 0.986220 -0.583462
O20   O     O_R   0.487190 0.867370 0.013780 -0.588220
O21   O     O_R   0.986220 0.512810 0.132630 -0.587231
O22   O     O_R   0.013780 0.487190 0.867370 -0.585589
O23   O     O_R   0.132630 0.986220 0.512810 -0.581650
O24   O     O_R   0.867370 0.013780 0.487190 -0.598625
C25   C     C_R   0.413214 0.952988 0.410371 0.074646
C26   C     C_R   0.597479 0.008445 0.597073 0.071945
C27   C     C_R   0.971986 0.408563 0.407726 0.070914
C28   C     C_R   0.039357 0.588847 0.590512 0.073192
C29   C     C_R   0.410527 0.409482 0.964443 0.072817
C30   C     C_R   0.589969 0.589973 0.036298 0.071481
C31   C     C_R   0.271184 0.952677 0.400492 -0.210542
C32   C     C_R   0.730289 0.035384 0.600471 -0.200056
C33   C     C_R   0.961062 0.400535 0.269783 -0.209625
C34   C     C_R   0.043374 0.598951 0.730029 -0.211849
C35   C     C_R   0.401580 0.270521 0.956033 -0.211927
C36   C     C_R   0.598538 0.729290 0.044437 -0.210792
C37   C     C_R   0.605819 0.019766 0.734683 -0.209972
C38   C     C_R   0.401872 0.953052 0.270075 -0.211046
C39   C     C_R   0.728501 0.598178 0.046613 -0.209600
C40   C     C_R   0.271461 0.401475 0.954619 -0.209888
C41   C     C_R   0.046038 0.728765 0.599172 -0.208544
C42   C     C_R   0.957161 0.271134 0.400960 -0.206048
C43   C     C_R   0.478667 0.977842 0.729671 -0.101238
C44   C     C_R   0.547718 0.938546 0.290128 -0.112571
C45   C     C_R   0.065717 0.705359 0.455613 -0.114455
C46   C     C_R   0.946471 0.292104 0.543465 -0.105143
C47   C     C_R   0.707088 0.454287 0.059573 -0.105934
C48   C     C_R   0.293200 0.545301 0.942017 -0.098311
C49   C     C_R   0.292121 0.936864 0.543475 -0.099410
C50   C     C_R   0.712690 0.035790 0.460245 -0.118549
C51   C     C_R   0.543646 0.287574 0.955220 -0.096772
C52   C     C_R   0.456958 0.711988 0.044758 -0.096364
C53   C     C_R   0.970687 0.540019 0.284323 -0.094094
C54   C     C_R   0.047492 0.455984 0.711870 -0.103044
C55   C     C_R   0.312099 0.950117 0.311399 0.246612
C56   C     C_R   0.688427 0.040260 0.688364 0.246603
C57   C     C_R   0.952011 0.312989 0.312801 0.246292
C58   C     C_R   0.048513 0.687880 0.688209 0.246062
C59   C     C_R   0.313162 0.312718 0.949580 0.247773
C60   C     C_R   0.686720 0.686952 0.051619 0.252108
C61   C     C_R   0.675946 0.006627 0.417865 -0.087136
C62   C     C_R   0.334044 0.956222 0.588402 -0.070596
C63   C     C_R   0.021337 0.414004 0.671892 -0.077951
C64   C     C_R   0.001271 0.579263 0.322927 -0.082641
C65   C     C_R   0.416871 0.674144 0.014287 -0.075327
C66   C     C_R   0.584344 0.325450 0.985125 -0.079689
C67   C     C_R   0.593668 0.955986 0.333360 -0.076007
C68   C     C_R   0.426088 0.980606 0.681214 -0.074580
C69   C     C_R   0.335759 0.590611 0.961434 -0.064237
C70   C     C_R   0.666667 0.409128 0.037171 -0.076087
C71   C     C_R   0.968174 0.333002 0.588331 -0.070251
C72   C     C_R   0.047612 0.663022 0.409334 -0.077848
C73   C     C_R   0.722654 0.990423 0.334016 0.234202
C74   C     C_R   0.289249 0.968162 0.673647 0.243979
C75   C     C_R   0.003500 0.330263 0.716698 0.231023
C76   C     C_R   0.026431 0.659537 0.275895 0.230897
C77   C     C_R   0.336001 0.722001 0.991025 0.227070
C78   C     C_R   0.666829 0.278749 0.005215 0.228847
C79   C     C_R   0.682840 0.961368 0.293498 0.230924
C80   C     C_R   0.334959 0.981377 0.720638 0.206947
C81   C     C_R   0.298168 0.681305 0.960062 0.235576
C82   C     C_R   0.705677 0.318993 0.035697 0.226278
C83   C     C_R   0.971073 0.292665 0.677300 0.228288
C84   C     C_R   0.052576 0.699628 0.318455 0.238809
C85   C     C_R   0.548902 0.970053 0.417541 -0.010547
C86   C     C_R   0.465721 0.981195 0.592316 -0.010449
C87   C     C_R   0.990155 0.414325 0.542584 -0.010732
C88   C     C_R   0.025465 0.581617 0.454606 -0.011051
C89   C     C_R   0.416782 0.544254 0.983345 -0.014394
C90   C     C_R   0.584693 0.455064 0.016602 -0.010973
C91   C     C_R   0.592299 0.989909 0.461939 -0.009088
C92   C     C_R   0.420008 0.967559 0.546037 -0.013495
C93   C     C_R   0.459609 0.587591 0.005346 -0.016255
C94   C     C_R   0.541482 0.411614 0.995001 -0.012572
C95   C     C_R   0.011612 0.457235 0.586308 -0.013124
C96   C     C_R   0.005901 0.537888 0.410207 -0.012988
C97   C     C_R   0.461152 0.962380 0.458288 0.049105
C98   C     C_R   0.551632 0.993771 0.550288 0.050228
C99   C     C_R   0.988012 0.454132 0.453915 0.049845
C100  C     C_R   0.026449 0.542183 0.543479 0.050004
C101  C     C_R   0.456706 0.455520 0.979834 0.049534
C102  C     C_R   0.544176 0.543662 0.020865 0.049773
N1    N     N_R   0.262583 0.942225 0.262906 0.156524
O25   O     O_R   0.263353 0.863877 0.264911 -0.310806
O26   O     O_R   0.216437 0.013104 0.217253 -0.242878
N2    N     N_R   0.728525 0.070696 0.729203 0.149251
O27   O     O_R   0.724360 0.154736 0.706325 -0.322009
O28   O     O_R   0.778504 0.013733 0.780087 -0.236514
N3    N     N_R   0.934343 0.267022 0.267412 0.153139
O29   O     O_R   0.999799 0.218892 0.218915 -0.232540
O30   O     O_R   0.852563 0.270446 0.277640 -0.320880
N4    N     N_R   0.059448 0.736315 0.735804 0.155973
O31   O     O_R   0.990022 0.782570 0.783059 -0.246754
O32   O     O_R   0.138722 0.739860 0.726008 -0.298796
N5    N     N_R   0.266249 0.265964 0.934611 0.155486
O33   O     O_R   0.268453 0.274808 0.854306 -0.305157
O34   O     O_R   0.218269 0.217858 0.001047 -0.237291
N6    N     N_R   0.732857 0.733020 0.068527 0.153090
O35   O     O_R   0.780674 0.782092 0.003201 -0.242838
O36   O     O_R   0.735347 0.717407 0.148819 -0.315877
N7    N     N_R   0.286496 0.008057 0.801344 0.165227
O37   O     O_R   0.217699 0.979713 0.855206 -0.156472
O38   O     O_R   0.304262 0.069497 0.816002 -0.264726
N8    N     N_R   0.733016 0.938953 0.211368 0.152912
O39   O     O_R   0.774947 0.993191 0.146191 -0.160416
O40   O     O_R   0.749318 0.858573 0.207030 -0.275732
N9    N     N_R   0.089964 0.773498 0.267374 0.167965
O41   O     O_R   0.165385 0.762107 0.206694 -0.261885
O42   O     O_R   0.050912 0.851005 0.282976 -0.238245
N10   N     N_R   0.937740 0.216108 0.729004 0.146121
O43   O     O_R   0.986944 0.144446 0.770221 -0.167234
O44   O     O_R   0.854254 0.221988 0.743754 -0.284689
N11   N     N_R   0.781566 0.266082 0.069250 0.160698
O45   O     O_R   0.778828 0.190334 0.128513 -0.215735
O46   O     O_R   0.855448 0.289544 0.036623 -0.244755
N12   N     N_R   0.227866 0.734197 0.918720 0.151844
O47   O     O_R   0.242405 0.744295 0.835061 -0.302212
O48   O     O_R   0.147195 0.761833 0.965895 -0.166575
N13   N     N_R   0.194385 0.982186 0.705054 0.161160
O49   O     O_R   0.160477 0.918401 0.762935 -0.181160
O50   O     O_R   0.143741 0.051567 0.663012 -0.309572
N14   N     N_R   0.814863 0.990088 0.295982 0.156939
O51   O     O_R   0.874367 0.917993 0.279529 -0.238287
O52   O     O_R   0.838693 0.063033 0.270246 -0.237064
N15   N     N_R   0.709758 0.189026 0.998599 0.155431
O53   O     O_R   0.794027 0.166210 0.957549 -0.167846
O54   O     O_R   0.666399 0.128514 0.038931 -0.311270
N16   N     N_R   0.298222 0.814558 0.988726 0.148071
O55   O     O_R   0.213955 0.844736 0.025320 -0.143288
O56   O     O_R   0.348195 0.869210 0.949958 -0.352225
N17   N     N_R   0.030971 0.697701 0.183532 0.149266
O57   O     O_R   0.997835 0.782640 0.153053 -0.158603
O58   O     O_R   0.073426 0.648523 0.128731 -0.327012
N18   N     N_R   0.009760 0.287414 0.805502 0.155687
O59   O     O_R   0.076378 0.218718 0.821102 -0.196176
O60   O     O_R   0.957771 0.325485 0.867898 -0.289008
H1    H     H_    0.454704 0.950775 0.799303 0.219515
H2    H     H_    0.586361 0.915013 0.232714 0.220862
H3    H     H_    0.095223 0.759854 0.418537 0.213511
H4    H     H_    0.917752 0.237487 0.582322 0.222262
H5    H     H_    0.760521 0.416139 0.089861 0.214612
H6    H     H_    0.237353 0.584081 0.915415 0.218549
H7    H     H_    0.235931 0.910116 0.582790 0.212914
H8    H     H_    0.763255 0.069368 0.419174 0.223768
H9    H     H_    0.585960 0.234046 0.925966 0.218657
H10   H     H_    0.414286 0.765734 0.073621 0.221724
H11   H     H_    0.943736 0.584227 0.230358 0.221245
H12   H     H_    0.074194 0.414449 0.766817 0.219085

loop_
_geom_bond_atom_site_label_1
_geom_bond_atom_site_label_2
_geom_bond_distance
_ccdc_geom_bond_type
C7    C26   1.415408 A    
O10   Cu3   1.963448 S    
C11   C28   1.410795 A    
C2    C26   1.411923 A    
C1    C49   1.408252 A    
N9    O41   1.299972 A    
C68   C80   1.419879 A    
O5    C19   1.304724 A    
C93   C102  1.410826 A    
C15   O15   1.292505 A    
N13   O49   1.299544 A    
C27   C99   1.425149 A    
C21   O21   1.286604 A    
N11   O45   1.299965 A    
C23   C31   1.501296 S    
C17   O17   1.282162 A    
Cu1   O13   1.973548 S    
N5    O33   1.300674 A    
Cu2   O14   1.973547 S    
N15   O54   1.301087 A    
N17   O57   1.301228 A    
Cu3   O22   1.984099 S    
C35   C59   1.415720 A    
C32   C56   1.408357 A    
Cu4   O16   1.969961 S    
C13   O13   1.301261 A    
C76   C84   1.409932 A    
C85   C91   1.410333 A    
O9    C15   1.305981 A    
C75   C83   1.409227 A    
C45   H3    1.074967 S    
N6    O36   1.300479 A    
C21   C33   1.504687 S    
Cu4   O21   1.984098 S    
C65   C93   1.401578 A    
C2    C32   1.432851 A    
C78   N15   1.437840 S    
C4    C54   1.415685 A    
C85   C97   1.406830 A    
N18   O59   1.300825 A    
C47   C70   1.404835 A    
O8    C18   1.306087 A    
C92   C97   1.406621 A    
C60   N6    1.435766 S    
C63   C75   1.412911 A    
C95   C100  1.409477 A    
C65   C77   1.415368 A    
C20   C36   1.498603 S    
C12   C27   1.413269 A    
C19   C35   1.497147 S    
C3    C27   1.413779 A    
C45   C72   1.403813 A    
C89   C101  1.404936 A    
N7    O37   1.300319 A    
O6    C20   1.304479 A    
C7    C37   1.441287 A    
C69   C81   1.412663 A    
C16   O16   1.291841 A    
C2    C50   1.415045 A    
C67   C85   1.404409 A    
C87   C99   1.407673 A    
C24   C32   1.498791 S    
N8    O40   1.300808 A    
C72   C88   1.408358 A    
C15   C39   1.502771 S    
Cu3   O15   1.969962 S    
C64   C96   1.399353 A    
C66   C78   1.414358 A    
O11   C13   1.309744 A    
N9    O42   1.300567 A    
O7    Cu6   1.979364 S    
O12   C14   1.313715 A    
N7    O38   1.301731 A    
O1    Cu1   1.962086 S    
C38   C55   1.416326 A    
N13   O50   1.300688 A    
C30   C102  1.419449 A    
N12   O47   1.300376 A    
C77   C81   1.410246 A    
C8    C25   1.410218 A    
C83   N10   1.437559 S    
C6    C52   1.413245 A    
C58   N4    1.435240 S    
N5    O34   1.302938 A    
N14   O52   1.300353 A    
N16   O55   1.299921 A    
C44   C67   1.404129 A    
C44   H2    1.071287 S    
Cu5   O20   1.972675 S    
N17   O58   1.301239 A    
C43   C68   1.393735 A    
C66   C94   1.400820 A    
Cu2   O23   1.968647 S    
C47   H5    1.074217 S    
C11   C41   1.427940 A    
C7    C43   1.421615 A    
N12   O48   1.299748 A    
C48   H6    1.073861 S    
N6    O35   1.302851 A    
C10   C48   1.412871 A    
C91   C98   1.409248 A    
C14   C42   1.506579 S    
C80   N7    1.444478 S    
C57   N3    1.436108 S    
C10   C29   1.412122 A    
C51   C66   1.397952 A    
C12   C46   1.415107 A    
C3    C53   1.418490 A    
C96   C99   1.411976 A    
C54   H12   1.073667 S    
Cu1   Cu2   2.686833 S    
C22   O22   1.289455 A    
C53   C64   1.397682 A    
C69   C89   1.405280 A    
C78   C82   1.411594 A    
C94   C101  1.411698 A    
C9    C39   1.429541 A    
N10   O44   1.301048 A    
C59   N5    1.436289 S    
C84   N9    1.434696 S    
O4    C22   1.307774 A    
Cu5   Cu6   2.665298 S    
C88   C100  1.405615 A    
C62   C92   1.401192 A    
C51   H9    1.074645 S    
C19   O19   1.289238 A    
C68   C86   1.398402 A    
N15   O53   1.301256 A    
C17   C37   1.495252 S    
O2    C24   1.315558 A    
C29   C101  1.420566 A    
C14   O14   1.297892 A    
C8    C44   1.417981 A    
O2    Cu2   1.962086 S    
C81   N12   1.433220 S    
C4    C28   1.410738 A    
Cu1   O24   1.968646 S    
C72   C84   1.412172 A    
C79   N8    1.437305 S    
C23   O23   1.301925 A    
N8    O39   1.300770 A    
C31   C55   1.415299 A    
C9    C30   1.409717 A    
O10   C16   1.306761 A    
C70   C90   1.408963 A    
C56   N2    1.436972 S    
O6    Cu6   1.966304 S    
Cu6   O19   1.972675 S    
Cu5   O17   1.981924 S    
C70   C82   1.416574 A    
C77   N16   1.437904 S    
C86   C98   1.407005 A    
N1    O25   1.300791 A    
N4    O32   1.300512 A    
C40   C59   1.414313 A    
C53   H11   1.071753 S    
O8    Cu5   1.979362 S    
C39   C60   1.414523 A    
O5    Cu5   1.966304 S    
C48   C69   1.402966 A    
C42   C57   1.415681 A    
C11   C45   1.410029 A    
N14   O51   1.300213 A    
C12   C42   1.433172 A    
N2    O28   1.302824 A    
C49   C62   1.392595 A    
C86   C92   1.405172 A    
Cu6   O18   1.981922 S    
C46   C71   1.402959 A    
C82   N11   1.437286 S    
C16   C40   1.503308 S    
C64   C76   1.416506 A    
C37   C56   1.413718 A    
C34   C58   1.416796 A    
C52   C65   1.396293 A    
C33   C57   1.416437 A    
C90   C102  1.406889 A    
O7    C17   1.309355 A    
C8    C38   1.433346 A    
O1    C23   1.306652 A    
C61   C73   1.415479 A    
N2    O27   1.300680 A    
C22   C34   1.501682 S    
C25   C97   1.419156 A    
N16   O56   1.300481 A    
N3    O29   1.302880 A    
C18   C38   1.499021 S    
O11   Cu2   1.966011 S    
C20   O20   1.290403 A    
C89   C93   1.407577 A    
C6    C36   1.430259 A    
C50   H8    1.070248 S    
C76   N17   1.437754 S    
C5    C35   1.430856 A    
C49   H7    1.076212 S    
C43   H1    1.068628 S    
O12   Cu1   1.966011 S    
C73   C79   1.412526 A    
C71   C87   1.406697 A    
N10   O43   1.300178 A    
C50   C61   1.399137 A    
O3    Cu3   1.980420 S    
C67   C79   1.416334 A    
C5    C29   1.408556 A    
C52   H10   1.075069 S    
C88   C96   1.411594 A    
C24   O24   1.291851 A    
C74   C80   1.411042 A    
N3    O30   1.300700 A    
C73   N14   1.436562 S    
C28   C100  1.421473 A    
C13   C41   1.505312 S    
C36   C60   1.415931 A    
N18   O60   1.299280 A    
C18   O18   1.289028 A    
C5    C51   1.414799 A    
C54   C63   1.400300 A    
C26   C98   1.424152 A    
C75   N18   1.431974 S    
C71   C83   1.416075 A    
C63   C95   1.401309 A    
C46   H4    1.072696 S    
C62   C74   1.408229 A    
O3    C21   1.311755 A    
C41   C58   1.415998 A    
C61   C91   1.400871 A    
C1    C31   1.423932 A    
C6    C30   1.409441 A    
O4    Cu4   1.980421 S    
C9    C47   1.411926 A    
Cu3   Cu4   2.667181 S    
N1    O26   1.302959 A    
C3    C33   1.439426 A    
N4    O31   1.302886 A    
N11   O46   1.299696 A    
C4    C34   1.434243 A    
C87   C95   1.411392 A    
C10   C40   1.431323 A    
C90   C94   1.409933 A    
O9    Cu4   1.963448 S    
C55   N1    1.435796 S    
C74   N13   1.434635 S    
C1    C25   1.411559 A    
