data_mof_unit_35871.cif
_audit_creation_date              2013-03-05T15:56:45-0500
_audit_creation_method            fapswitch 2.2
_symmetry_space_group_name_H-M    P1
_symmetry_Int_Tables_number       1
_space_group_crystal_system       triclinic
_cell_length_a                    20.721847
_cell_length_b                    21.966708
_cell_length_c                    13.895002
_cell_angle_alpha                 91.992011
_cell_angle_beta                  89.627966
_cell_angle_gamma                 90.022135
_cell_volume                      6320.92098986

loop_
_atom_site_label
_atom_site_type_symbol
_atom_site_description
_atom_site_fract_x
_atom_site_fract_y
_atom_site_fract_z
_atom_type_partial_charge
O1    O     O_R   0.064880 0.435140 0.582280 -0.587475
O2    O     O_R   0.935120 0.564860 0.417720 -0.590482
O3    O     O_R   0.935120 0.564860 0.582280 -0.573422
O4    O     O_R   0.064880 0.435140 0.417720 -0.573241
O5    O     O_R   0.935120 0.435140 0.417720 -0.570123
O6    O     O_R   0.064880 0.564860 0.582280 -0.570348
O7    O     O_R   0.064880 0.564860 0.417720 -0.588677
O8    O     O_R   0.935120 0.435140 0.582280 -0.591943
O9    O     O_R   0.564880 0.935140 0.582280 -0.587866
O10   O     O_R   0.435120 0.064860 0.417720 -0.588209
O11   O     O_R   0.435120 0.064860 0.582280 -0.572973
O12   O     O_R   0.564880 0.935140 0.417720 -0.573593
O13   O     O_R   0.435120 0.935140 0.417720 -0.574353
O14   O     O_R   0.564880 0.064860 0.582280 -0.573914
O15   O     O_R   0.564880 0.064860 0.417720 -0.590445
O16   O     O_R   0.435120 0.935140 0.582280 -0.589998
C1    C     C_R   0.087579 0.416533 0.498811 0.794940
C2    C     C_R   0.912451 0.583495 0.501182 0.796778
C3    C     C_R   0.912962 0.415880 0.499019 0.790967
C4    C     C_R   0.087388 0.583679 0.500927 0.792620
C5    C     C_R   0.586983 0.915837 0.498617 0.790677
C6    C     C_R   0.413018 0.084196 0.501380 0.791727
C7    C     C_R   0.412662 0.916362 0.499137 0.797924
C8    C     C_R   0.587564 0.083446 0.500804 0.798185
Cu1   Cu    Cu3+1 1.000000 0.500000 0.597420 0.942229
Cu2   Cu    Cu3+1 0.000000 0.500000 0.402580 0.942751
Cu3   Cu    Cu3+1 0.500000 0.000000 0.597420 0.941427
Cu4   Cu    Cu3+1 0.500000 0.000000 0.402580 0.940737
C9    C     C_R   0.125219 0.682632 0.453310 -0.230201
C10   C     C_R   0.874277 0.317704 0.551234 -0.230783
C11   C     C_R   0.873922 0.681359 0.450533 -0.249086
C12   C     C_R   0.126661 0.319193 0.551099 -0.244677
C13   C     C_R   0.626942 0.180879 0.448531 -0.248149
C14   C     C_R   0.376142 0.816701 0.544895 -0.246302
C15   C     C_R   0.375060 0.182524 0.449567 -0.230326
C16   C     C_R   0.624237 0.816925 0.548436 -0.230962
C17   C     C_R   0.137768 0.630356 0.503310 -0.054371
C18   C     C_R   0.863360 0.368344 0.496271 -0.057594
C19   C     C_R   0.861945 0.629977 0.503401 -0.059724
C20   C     C_R   0.138018 0.369995 0.496557 -0.064869
C21   C     C_R   0.638060 0.129875 0.502449 -0.062459
C22   C     C_R   0.362606 0.869569 0.497011 -0.059973
C23   C     C_R   0.363706 0.132025 0.504910 -0.057514
C24   C     C_R   0.636335 0.868094 0.495030 -0.055869
C25   C     C_R   0.196853 0.623591 0.553173 0.110916
C26   C     C_R   0.806721 0.372406 0.439872 0.122255
C27   C     C_R   0.802045 0.622811 0.551985 0.113587
C28   C     C_R   0.197327 0.376540 0.446168 0.117228
C29   C     C_R   0.696990 0.123256 0.552598 0.118036
C30   C     C_R   0.302499 0.877089 0.450472 0.109119
C31   C     C_R   0.306815 0.128293 0.561943 0.122922
C32   C     C_R   0.693883 0.872520 0.439659 0.120525
C33   C     C_R   0.241768 0.673074 0.556589 -0.003936
C34   C     C_R   0.763689 0.321810 0.433776 0.000293
C35   C     C_R   0.757969 0.672771 0.557119 -0.002213
C36   C     C_R   0.240985 0.326321 0.440495 0.000263
C37   C     C_R   0.740312 0.173664 0.559073 0.000009
C38   C     C_R   0.258844 0.826805 0.444327 -0.001582
C39   C     C_R   0.263774 0.178912 0.567705 0.001197
C40   C     C_R   0.737170 0.822033 0.433995 0.000242
C41   C     C_R   0.228159 0.725471 0.502033 -0.002145
C42   C     C_R   0.774271 0.272148 0.495091 -0.002214
C43   C     C_R   0.770451 0.723796 0.498995 -0.000710
C44   C     C_R   0.229428 0.276135 0.500661 -0.000956
C45   C     C_R   0.729124 0.224089 0.499500 -0.001227
C46   C     C_R   0.272800 0.774109 0.497830 -0.001651
C47   C     C_R   0.274681 0.228249 0.505660 -0.002364
C48   C     C_R   0.725329 0.771836 0.494040 -0.002833
C49   C     C_R   0.169888 0.729480 0.451192 0.061240
C50   C     C_R   0.829846 0.270494 0.552613 0.061008
C51   C     C_R   0.827977 0.726835 0.445015 0.065087
C52   C     C_R   0.172715 0.273815 0.556647 0.064782
C53   C     C_R   0.672869 0.226482 0.443577 0.064961
C54   C     C_R   0.331320 0.770020 0.547903 0.062575
C55   C     C_R   0.330688 0.229739 0.447999 0.060777
C56   C     C_R   0.668487 0.769618 0.549737 0.060468
C57   C     C_R   0.300576 0.672365 0.609687 0.343578
C58   C     C_R   0.709024 0.319532 0.371937 0.338324
C59   C     C_R   0.700774 0.673344 0.614743 0.343586
C60   C     C_R   0.297014 0.324857 0.380441 0.343949
C61   C     C_R   0.795608 0.175147 0.619510 0.342425
C62   C     C_R   0.200814 0.827300 0.389857 0.341984
C63   C     C_R   0.208749 0.181457 0.629855 0.337830
C64   C     C_R   0.793213 0.820313 0.373856 0.338257
C65   C     C_R   0.840100 0.222386 0.613327 -0.231750
C66   C     C_R   0.156846 0.779759 0.396305 -0.231373
C67   C     C_R   0.162966 0.227097 0.620258 -0.237295
C68   C     C_R   0.838729 0.774437 0.383401 -0.237725
C69   C     C_R   0.344634 0.719722 0.602376 -0.231142
C70   C     C_R   0.663388 0.273598 0.380833 -0.236653
C71   C     C_R   0.656637 0.720758 0.608468 -0.228879
C72   C     C_R   0.341452 0.277681 0.386957 -0.230014
H1    H     H_    0.079982 0.686584 0.414952 0.147955
H2    H     H_    0.917648 0.315512 0.594432 0.152410
H3    H     H_    0.919054 0.685042 0.410947 0.147606
H4    H     H_    0.082041 0.315962 0.592069 0.150570
H5    H     H_    0.582595 0.184170 0.407785 0.149349
H6    H     H_    0.421902 0.812463 0.581786 0.146245
H7    H     H_    0.418677 0.184535 0.406040 0.151619
H8    H     H_    0.580036 0.814404 0.590545 0.149702
H9    H     H_    0.881789 0.222846 0.660195 0.184883
H10   H     H_    0.112911 0.781125 0.354356 0.183460
H11   H     H_    0.120805 0.227754 0.667009 0.182438
H12   H     H_    0.881618 0.774423 0.338172 0.182305
H13   H     H_    0.389100 0.718006 0.643047 0.181122
H14   H     H_    0.621547 0.273107 0.334254 0.181934
H15   H     H_    0.613646 0.720505 0.653461 0.183694
H16   H     H_    0.383618 0.277208 0.340226 0.184304
C73   C     C_R   0.052186 0.478993 0.794519 0.285177
C74   C     C_R   0.950291 0.526159 0.205699 0.280012
C75   C     C_R   0.948290 0.523055 0.797572 0.282622
C76   C     C_R   0.050166 0.474371 0.201986 0.276760
C77   C     C_R   0.549419 0.026180 0.797328 0.273396
C78   C     C_R   0.450403 0.973997 0.202807 0.276098
C79   C     C_R   0.449252 0.974835 0.794841 0.288901
C80   C     C_R   0.550787 0.025027 0.205139 0.287557
N1    N     N_R   0.000000 0.500000 0.743810 -0.182627
N2    N     N_R   0.000000 0.500000 0.256190 -0.184619
N3    N     N_R   0.500000 0.000000 0.743810 -0.185145
N4    N     N_R   0.500000 0.000000 0.256190 -0.185276
C81   C     C_R   0.953669 0.534390 0.899824 -0.027187
C82   C     C_R   0.044237 0.464009 0.099643 -0.020602
C83   C     C_R   0.045622 0.466423 0.894474 -0.021416
C84   C     C_R   0.956930 0.536706 0.105013 -0.022841
C85   C     C_R   0.454773 0.964324 0.896065 -0.026966
C86   C     C_R   0.545161 0.035617 0.103994 -0.026393
C87   C     C_R   0.542380 0.037047 0.899011 -0.021218
C88   C     C_R   0.457380 0.963075 0.101125 -0.022352
C89   C     C_R   0.999702 0.500194 0.948615 -0.044660
C90   C     C_R   0.000112 0.500074 0.050859 -0.043221
C91   C     C_R   0.499467 0.000075 0.948929 -0.044300
C92   C     C_R   0.500386 0.999935 0.051161 -0.044889
C93   C     C_R   0.916134 0.578495 0.954411 0.152772
C94   C     C_R   0.081820 0.420572 0.044582 0.147402
C95   C     C_R   0.083957 0.422915 0.941875 0.161879
C96   C     C_R   0.921050 0.581572 0.057098 0.174070
C97   C     C_R   0.417675 0.920095 0.945904 0.171998
C98   C     C_R   0.582148 0.079936 0.054251 0.171246
C99   C     C_R   0.577473 0.082594 0.951894 0.156943
C100  C     C_R   0.422182 0.917578 0.048313 0.161621
C101  C     C_3   0.214191 0.562371 0.592704 -0.785814
H17   H     H_    0.216914 0.565543 0.672009 0.277638
H18   H     H_    0.178733 0.526282 0.575636 0.198627
H19   H     H_    0.260895 0.546448 0.561504 0.258922
C102  C     C_3   0.788006 0.432703 0.398738 -0.771299
H20   H     H_    0.794550 0.431179 0.319722 0.276512
H21   H     H_    0.737227 0.444003 0.418055 0.253252
H22   H     H_    0.817035 0.470963 0.427712 0.187621
C103  C     C_3   0.781104 0.559978 0.581685 -0.795728
H23   H     H_    0.774658 0.557578 0.660135 0.279950
H24   H     H_    0.735172 0.547377 0.545415 0.254003
H25   H     H_    0.816570 0.524296 0.562006 0.192158
C104  C     C_3   0.218775 0.439181 0.416194 -0.799947
H26   H     H_    0.265407 0.450929 0.451066 0.252590
H27   H     H_    0.224457 0.441825 0.337691 0.281541
H28   H     H_    0.184086 0.475318 0.437233 0.195833
C105  C     C_3   0.718581 0.060400 0.581041 -0.799227
H29   H     H_    0.724691 0.057100 0.659232 0.282216
H30   H     H_    0.683612 0.024492 0.560886 0.193873
H31   H     H_    0.764930 0.048712 0.544365 0.250387
C106  C     C_3   0.281584 0.940201 0.422379 -0.792972
H32   H     H_    0.275191 0.943075 0.344095 0.280826
H33   H     H_    0.235773 0.952682 0.459954 0.254343
H34   H     H_    0.317202 0.975756 0.441377 0.192090
C107  C     C_3   0.287819 0.068245 0.604037 -0.772586
H35   H     H_    0.294555 0.069977 0.682908 0.276586
H36   H     H_    0.236959 0.057080 0.585994 0.253268
H37   H     H_    0.316541 0.029789 0.574592 0.187455
C108  C     C_3   0.712846 0.932965 0.398804 -0.772938
H38   H     H_    0.763177 0.944706 0.419121 0.253671
H39   H     H_    0.707564 0.931407 0.319670 0.276702
H40   H     H_    0.683035 0.971023 0.427049 0.187150
N5    N     N_R   0.315318 0.627244 0.677877 0.109013
O17   O     O_R   0.291530 0.633221 0.764596 -0.343282
O18   O     O_R   0.365065 0.591981 0.662815 -0.321326
N6    N     N_R   0.701859 0.358795 0.292623 0.112324
O19   O     O_R   0.648269 0.388737 0.282834 -0.324158
O20   O     O_R   0.740761 0.352299 0.219097 -0.341852
N7    N     N_R   0.689357 0.630702 0.688368 0.113565
O21   O     O_R   0.722805 0.635118 0.767230 -0.368021
O22   O     O_R   0.636240 0.599098 0.687627 -0.316998
N8    N     N_R   0.306446 0.365962 0.304025 0.114925
O23   O     O_R   0.269156 0.361700 0.229105 -0.371874
O24   O     O_R   0.360410 0.395931 0.298066 -0.318468
N9    N     N_R   0.803913 0.134194 0.696263 0.115292
O25   O     O_R   0.764668 0.137681 0.769747 -0.370838
O26   O     O_R   0.858176 0.105061 0.704104 -0.320104
N10   N     N_R   0.188136 0.871406 0.319117 0.113337
O27   O     O_R   0.135169 0.903152 0.324681 -0.320449
O28   O     O_R   0.219970 0.868316 0.238045 -0.361824
N11   N     N_R   0.201356 0.142847 0.710098 0.112637
O29   O     O_R   0.240403 0.149581 0.782658 -0.341541
O30   O     O_R   0.147585 0.113285 0.721581 -0.325828
N12   N     N_R   0.802180 0.860201 0.295584 0.112370
O31   O     O_R   0.855800 0.890603 0.288457 -0.324663
O32   O     O_R   0.765350 0.853845 0.220410 -0.342384
C109  C     C_3   0.119358 0.490567 0.757679 -0.773606
H41   H     H_    0.154777 0.493052 0.817382 0.225283
H42   H     H_    0.136814 0.455195 0.705555 0.239480
H43   H     H_    0.119991 0.535992 0.726516 0.250609
C110  C     C_3   0.882974 0.527726 0.246786 -0.751925
H44   H     H_    0.869078 0.573057 0.277318 0.232889
H45   H     H_    0.847239 0.513935 0.190860 0.222246
H46   H     H_    0.879413 0.494109 0.302647 0.256544
C111  C     C_3   0.882628 0.525552 0.753869 -0.766582
H47   H     H_    0.877226 0.491770 0.694598 0.259686
H48   H     H_    0.845182 0.512792 0.807030 0.216432
H49   H     H_    0.873000 0.571786 0.728577 0.246352
C112  C     C_3   0.116429 0.470754 0.244085 -0.758236
H50   H     H_    0.123549 0.506676 0.300268 0.254753
H51   H     H_    0.125003 0.425345 0.273056 0.248776
H52   H     H_    0.153946 0.479185 0.188640 0.221467
C113  C     C_3   0.616159 0.030281 0.755580 -0.747925
H53   H     H_    0.624202 0.993944 0.700069 0.251546
H54   H     H_    0.624802 0.075551 0.725958 0.249442
H55   H     H_    0.653100 0.022961 0.811629 0.225195
C114  C     C_3   0.383605 0.970128 0.244693 -0.750313
H56   H     H_    0.375642 0.006503 0.300150 0.252352
H57   H     H_    0.346690 0.977538 0.188643 0.223987
H58   H     H_    0.374690 0.924937 0.274457 0.245829
C115  C     C_3   0.382810 0.974236 0.752701 -0.767650
H59   H     H_    0.380792 0.007016 0.695756 0.261992
H60   H     H_    0.368982 0.928663 0.723155 0.234869
H61   H     H_    0.346611 0.990094 0.807314 0.218445
C116  C     C_3   0.617287 0.025415 0.247150 -0.766861
H62   H     H_    0.619428 0.992374 0.303759 0.261713
H63   H     H_    0.653415 0.009761 0.192292 0.218577
H64   H     H_    0.631191 0.070896 0.276982 0.234682
C117  C     C_3   0.876860 0.626017 0.903242 -0.772648
H65   H     H_    0.830526 0.606200 0.878301 0.264908
H66   H     H_    0.863122 0.666416 0.948103 0.247192
H67   H     H_    0.905065 0.643869 0.842156 0.231917
C118  C     C_3   0.113658 0.367815 0.093725 -0.770155
H68   H     H_    0.166160 0.376350 0.101567 0.273398
H69   H     H_    0.091043 0.359415 0.164413 0.230947
H70   H     H_    0.106312 0.324049 0.053588 0.241336
C119  C     C_3   0.121963 0.374957 0.883868 -0.806578
H71   H     H_    0.104078 0.328716 0.898975 0.239902
H72   H     H_    0.116295 0.377790 0.805215 0.231248
H73   H     H_    0.174017 0.378483 0.901602 0.256075
C120  C     C_3   0.896339 0.637112 0.114050 -0.819205
H74   H     H_    0.914690 0.679344 0.081929 0.243883
H75   H     H_    0.842771 0.637251 0.116047 0.253176
H76   H     H_    0.915492 0.640361 0.188216 0.225889
C121  C     C_3   0.378328 0.872613 0.889546 -0.806261
H77   H     H_    0.365297 0.831858 0.929613 0.248499
H78   H     H_    0.331711 0.892479 0.867894 0.241554
H79   H     H_    0.406057 0.855363 0.825611 0.229518
C122  C     C_3   0.621488 0.127388 0.110703 -0.803687
H80   H     H_    0.634378 0.168232 0.070749 0.250127
H81   H     H_    0.593828 0.144484 0.174806 0.227327
H82   H     H_    0.668159 0.107545 0.132165 0.242712
C123  C     C_3   0.601452 0.138420 0.901176 -0.783209
H83   H     H_    0.582696 0.180412 0.938155 0.238398
H84   H     H_    0.655000 0.139126 0.899096 0.274701
H85   H     H_    0.582063 0.141562 0.827546 0.232369
C124  C     C_3   0.397852 0.861950 0.099253 -0.795277
H86   H     H_    0.416354 0.819790 0.062482 0.239291
H87   H     H_    0.417272 0.858804 0.172864 0.232584
H88   H     H_    0.344287 0.861548 0.101475 0.267333

loop_
_geom_bond_atom_site_label_1
_geom_bond_atom_site_label_2
_geom_bond_distance
_ccdc_geom_bond_type
C78   C88   1.431257 A    
N12   O32   1.301212 A    
C28   C104  1.517032 S    
C105  H29   1.099529 S    
C8    C21   1.460638 S    
C32   C108  1.512864 S    
O2    C2    1.301238 A    
C110  H45   1.111270 S    
C108  H38   1.110200 S    
C73   C109  1.504549 S    
C14   C22   1.387966 A    
C77   C113  1.500124 S    
C14   H6    1.086397 S    
C98   C122  1.522215 S    
C23   C31   1.420155 A    
C74   N2    1.386109 A    
C106  H32   1.100639 S    
C77   C87   1.431221 A    
C29   C37   1.425993 A    
C12   C52   1.384685 A    
C31   C107  1.512362 S    
C113  H53   1.102502 S    
O10   C6    1.303984 A    
C114  H58   1.103629 S    
C113  H55   1.111254 S    
O13   C7    1.300763 A    
C122  H80   1.103196 S    
C107  H35   1.104995 S    
C7    C22   1.459724 S    
C96   C120  1.518225 S    
O12   Cu4   1.976788 S    
C74   C110  1.503747 S    
C103  H23   1.100436 S    
C54   C69   1.389570 A    
C27   C35   1.427663 A    
C99   C123  1.517378 S    
C39   C63   1.425799 A    
C53   C70   1.391045 A    
C124  H86   1.109301 S    
C115  H61   1.110994 S    
C101  H18   1.101490 S    
C123  H83   1.109362 S    
C118  H69   1.106774 S    
N9    O26   1.301065 A    
C26   C102  1.512404 S    
C75   C81   1.438924 A    
C41   C49   1.407239 A    
C46   C54   1.406428 A    
C119  H72   1.103829 S    
C112  H52   1.110967 S    
C45   C53   1.407150 A    
C42   C50   1.407274 A    
O3    C2    1.302732 A    
N10   O28   1.301468 A    
C120  H74   1.109376 S    
C110  H44   1.106232 S    
O14   C8    1.301690 A    
C109  H42   1.103098 S    
C20   C28   1.420194 A    
N8    O23   1.301212 A    
C82   C94   1.429828 A    
C16   C56   1.386822 A    
C32   C40   1.426364 A    
C74   C84   1.431751 A    
C77   N3    1.382791 A    
C33   C41   1.429211 A    
C41   C46   1.415457 A    
C72   H16   1.085053 S    
N8    O24   1.301040 A    
C86   C98   1.432567 A    
C27   C103  1.516720 S    
C64   N12   1.431296 S    
C35   C43   1.426687 A    
C93   C96   1.430366 A    
C36   C44   1.425794 A    
O13   Cu4   1.974181 S    
C62   N10   1.429562 S    
C60   N8    1.429940 S    
O14   Cu3   1.974178 S    
C104  H27   1.099911 S    
C15   C23   1.390685 A    
C118  H68   1.109332 S    
C75   C111  1.495395 S    
C59   C71   1.391750 A    
C61   C65   1.392348 A    
C10   H2    1.085984 S    
C39   C47   1.425167 A    
C24   C32   1.420088 A    
O16   Cu3   1.965467 S    
C12   C20   1.389737 A    
N12   O31   1.301149 A    
C25   C33   1.430462 A    
C107  H36   1.110263 S    
C80   C86   1.437978 A    
C119  H71   1.107562 S    
C83   C89   1.405046 A    
C30   C106  1.517406 S    
O1    Cu1   1.964350 S    
O8    Cu1   1.965467 S    
C108  H39   1.105052 S    
C29   C105  1.517719 S    
C109  H41   1.111121 S    
C87   C99   1.423051 A    
C15   H7    1.086001 S    
C88   C92   1.400799 A    
C61   N9    1.430190 S    
C68   H12   1.085151 S    
C38   C46   1.427969 A    
O11   Cu3   1.976788 S    
C102  H20   1.104749 S    
C9    C49   1.384804 A    
N5    O18   1.301162 A    
C97   C100  1.429625 A    
C5    C24   1.464475 S    
C122  H81   1.110491 S    
O8    C3    1.304215 A    
C100  C124  1.517689 S    
C102  H21   1.110284 S    
C73   N1    1.382643 A    
N11   O29   1.301230 A    
C30   C38   1.428066 A    
C44   C47   1.413261 A    
C71   H15   1.085128 S    
O3    Cu1   1.976788 S    
C70   H14   1.085130 S    
C38   C62   1.425242 A    
C112  H50   1.101113 S    
Cu4   N4    2.034089 S    
C103  H25   1.100998 S    
C37   C45   1.425593 A    
C123  H84   1.109904 S    
C121  H77   1.103096 S    
C84   C96   1.421276 A    
C73   C83   1.431044 A    
C106  H33   1.110290 S    
C34   C42   1.425204 A    
C85   C97   1.433089 A    
Cu1   Cu2   2.707301 S    
N5    O17   1.301343 A    
O12   C5    1.301180 A    
C58   C70   1.390714 A    
C80   N4    1.389209 A    
C83   C95   1.424570 A    
N10   O27   1.301041 A    
C120  H75   1.110197 S    
C1    C20   1.461731 S    
C64   C68   1.390820 A    
C60   C72   1.392279 A    
C109  H43   1.101503 S    
C33   C57   1.429003 A    
C2    C19   1.461871 S    
N11   O30   1.301163 A    
C76   C82   1.438371 A    
C117  H65   1.106755 S    
C3    C18   1.464661 S    
C76   N2    1.387667 A    
C115  H59   1.089222 S    
C35   C59   1.425800 A    
C85   C91   1.407921 A    
C6    C23   1.465265 S    
C86   C92   1.407995 A    
C63   C67   1.390919 A    
C57   C69   1.389752 A    
C26   C34   1.425215 A    
C116  H62   1.089786 S    
C119  H73   1.110081 S    
C84   C90   1.401467 A    
C16   H8    1.086080 S    
C48   C56   1.406923 A    
C104  H28   1.101748 S    
C52   C67   1.391326 A    
O7    Cu2   1.965464 S    
C43   C51   1.407059 A    
N7    O21   1.301148 A    
C55   C72   1.392012 A    
C25   C101  1.514466 S    
C15   C55   1.387124 A    
C67   H11   1.085101 S    
O4    C1    1.302667 A    
C13   C53   1.384614 A    
N6    O19   1.301152 A    
C12   H4    1.086243 S    
C22   C30   1.419459 A    
O7    C4    1.303368 A    
O16   C7    1.301944 A    
C79   N3    1.389726 A    
C121  H78   1.107843 S    
C108  H40   1.099543 S    
C59   N7    1.429430 S    
C101  H19   1.109593 S    
C105  H30   1.101139 S    
C47   C55   1.406999 A    
C78   C114  1.501592 S    
C17   C25   1.421081 A    
C116  H64   1.107024 S    
C66   H10   1.085197 S    
C106  H34   1.100985 S    
C65   H9    1.085034 S    
C102  H22   1.099764 S    
O9    Cu3   1.964350 S    
C19   C27   1.420400 A    
C89   C90   1.420850 A    
C111  H48   1.110450 S    
C111  H49   1.104839 S    
O10   Cu4   1.964350 S    
C28   C36   1.426668 A    
C111  H47   1.095503 S    
C43   C48   1.413947 A    
O15   C8    1.301737 A    
C122  H82   1.107850 S    
C57   N5    1.429247 S    
O11   C6    1.301465 A    
C42   C45   1.412967 A    
C110  H46   1.091923 S    
C79   C115  1.499503 S    
C63   N11   1.431573 S    
O5    Cu2   1.974181 S    
Cu2   N2    2.034089 S    
C37   C61   1.424704 A    
C81   C89   1.406448 A    
C93   C117  1.522272 S    
Cu1   N1    2.034089 S    
O2    Cu2   1.964350 S    
C123  H85   1.105973 S    
O4    Cu2   1.976788 S    
C107  H37   1.099295 S    
O5    C3    1.300872 A    
Cu3   N3    2.034089 S    
C105  H31   1.110329 S    
C117  H67   1.110109 S    
C21   C29   1.419895 A    
O6    C4    1.300671 A    
C94   C95   1.430215 A    
O1    C1    1.301367 A    
C36   C60   1.425108 A    
C80   C116  1.499940 S    
C75   N1    1.387957 A    
C120  H76   1.106705 S    
C13   C21   1.389399 A    
C69   H13   1.085379 S    
C124  H88   1.110239 S    
C103  H24   1.110335 S    
C34   C58   1.426039 A    
C114  H56   1.102336 S    
C113  H54   1.103505 S    
C115  H60   1.107040 S    
C62   C66   1.390483 A    
C101  H17   1.103525 S    
C76   C112  1.499214 S    
C9    H1    1.086310 S    
C4    C17   1.462704 S    
C40   C64   1.426039 A    
O9    C5    1.303825 A    
N9    O25   1.301388 A    
C11   H3    1.086312 S    
C79   C85   1.438523 A    
C11   C51   1.384643 A    
C116  H63   1.110989 S    
C94   C118  1.518562 S    
C11   C19   1.389331 A    
C13   H5    1.086245 S    
C58   N6    1.431361 S    
O6    Cu1   1.974178 S    
C88   C100  1.422924 A    
C114  H57   1.111223 S    
C118  H70   1.105539 S    
C87   C91   1.400715 A    
C18   C26   1.420021 A    
C16   C24   1.390068 A    
C98   C99   1.429382 A    
C56   C71   1.391532 A    
C51   C68   1.391249 A    
O15   Cu4   1.965464 S    
C95   C119  1.520886 S    
C10   C50   1.387053 A    
C31   C39   1.425445 A    
C40   C48   1.425923 A    
C117  H66   1.102982 S    
C97   C121  1.522096 S    
C121  H79   1.110453 S    
C9    C17   1.388172 A    
Cu3   Cu4   2.707301 S    
C112  H51   1.103454 S    
C14   C54   1.384796 A    
C10   C18   1.390459 A    
C81   C93   1.435557 A    
C104  H26   1.110117 S    
C124  H87   1.105973 S    
C50   C65   1.392152 A    
C82   C90   1.403233 A    
C78   N4    1.383006 A    
C49   C66   1.391397 A    
C91   C92   1.420884 A    
C44   C52   1.407021 A    
N6    O20   1.301239 A    
N7    O22   1.301000 A    
