data_mof_unit_10741.cif
_audit_creation_date              2013-03-05T15:46:33-0500
_audit_creation_method            fapswitch 2.2
_symmetry_space_group_name_H-M    P1
_symmetry_Int_Tables_number       1
_space_group_crystal_system       triclinic
_cell_length_a                    10.085077
_cell_length_b                    10.689246
_cell_length_c                    10.939849
_cell_angle_alpha                 89.421566
_cell_angle_beta                  95.264977
_cell_angle_gamma                 78.470112
_cell_volume                      1150.17377817

loop_
_atom_site_label
_atom_site_type_symbol
_atom_site_description
_atom_site_fract_x
_atom_site_fract_y
_atom_site_fract_z
_atom_type_partial_charge
O1    O     O_R   0.568940 0.489660 0.307530 -0.560048
O2    O     O_R   0.431060 0.510340 0.692470 -0.570558
O3    O     O_R   0.348880 0.522640 0.340350 -0.588678
O4    O     O_R   0.651120 0.477360 0.659650 -0.598062
C1    C     C_R   0.443118 0.510311 0.267457 0.921676
C2    C     C_R   0.556803 0.484146 0.732067 0.945424
O5    O     O_R   0.610030 0.300280 0.483580 -0.556156
O6    O     O_R   0.389970 0.699720 0.516420 -0.593258
O7    O     O_R   0.389970 0.333270 0.516400 -0.632415
O8    O     O_R   0.610030 0.666730 0.483600 -0.634356
C3    C     C_R   0.503297 0.256969 0.494825 0.861678
C4    C     C_R   0.490218 0.739058 0.476800 0.876805
Zn1   Zn    Zn3+2 0.646940 0.477980 0.478080 1.080018
Zn2   Zn    Zn3+2 0.353060 0.522020 0.521920 1.062164
C5    C     C_R   0.711710 0.069535 0.340257 0.276850
C6    C     C_R   0.233180 0.939574 0.493087 0.277923
C7    C     C_R   0.788001 0.981249 0.267544 -0.180573
C8    C     C_R   0.154859 0.007942 0.579285 -0.229711
C9    C     C_R   0.760401 0.862155 0.250063 0.454579
C10   C     C_R   0.205390 0.099036 0.649141 0.416880
C11   C     C_R   0.652759 0.829645 0.303313 -0.163149
C12   C     C_R   0.327859 0.131077 0.624507 -0.170685
C13   C     C_R   0.574513 0.914075 0.380651 -0.028170
C14   C     C_R   0.402266 0.071723 0.529545 -0.049497
C15   C     C_R   0.598648 0.039216 0.400494 -0.040916
C16   C     C_R   0.366446 0.961839 0.481973 -0.021836
C17   C     C_R   0.470811 0.873002 0.437179 -0.083603
C18   C     C_R   0.509248 0.119279 0.480015 -0.112293
H1    H     H_    0.873963 0.005285 0.226526 0.225757
H2    H     H_    0.054694 0.990902 0.592064 0.227071
H3    H     H_    0.629844 0.737351 0.283018 0.212783
H4    H     H_    0.363734 0.202753 0.679753 0.230930
C19   C     C_2   0.410904 0.499376 0.137601 -0.344650
C20   C     C_2   0.589231 0.479426 0.862721 -0.355828
C21   C     C_2   0.501381 0.516172 0.059795 0.262194
C22   C     C_2   0.493333 0.466132 0.936620 0.243645
H5    H     H_    0.682621 0.508874 0.896126 0.213973
H6    H     H_    0.322946 0.458793 0.109345 0.202884
H7    H     H_    0.890504 0.561470 0.590584 0.174862
H8    H     H_    0.112504 0.427480 0.418705 0.167631
N1    N     N_2   0.157300 0.551390 0.551120 -0.151934
N2    N     N_2   0.842700 0.448610 0.448880 -0.134626
C23   C     C_2   0.074143 0.490973 0.489879 -0.010835
C24   C     C_2   0.927130 0.503933 0.514830 -0.056962
H9    H     H_    0.880386 0.403721 0.372951 0.259992
H10   H     H_    0.117941 0.609809 0.618935 0.211231
Cl1   Cl    Cl    0.110111 0.180624 0.760854 -0.459740
Cl2   Cl    Cl    0.866741 0.752726 0.165406 -0.410045
N3    N     N_R   0.765150 0.181584 0.355564 0.216411
O9    O     O_R   0.752155 0.260084 0.261567 -0.370149
O10   O     O_R   0.865103 0.179217 0.440300 -0.403864
N4    N     N_R   0.172629 0.858072 0.410207 0.236657
O11   O     O_R   0.218923 0.831649 0.304252 -0.348702
O12   O     O_R   0.062454 0.820738 0.434477 -0.406507
N5    N     N_R   0.383670 0.404067 0.895913 0.207506
O13   O     O_R   0.259611 0.469442 0.878294 -0.338768
O14   O     O_R   0.405926 0.280071 0.893704 -0.364367
N6    N     N_R   0.603652 0.588714 0.093634 0.185838
O15   O     O_R   0.726589 0.528400 0.129653 -0.311467
O16   O     O_R   0.584422 0.705984 0.051940 -0.370952

loop_
_geom_bond_atom_site_label_1
_geom_bond_atom_site_label_2
_geom_bond_distance
_ccdc_geom_bond_type
O7    Zn2   1.979711 S    
N2    C24   1.300937 D    
H7    C24   1.084970 S    
C8    H2    1.082652 S    
C13   C17   1.402048 A    
C20   H5    1.085069 S    
C7    H1    1.084925 S    
C8    C10   1.390604 A    
C21   C22   1.456138 S    
O6    C4    1.278082 A    
C23   C24   1.511569 S    
C11   H3    1.078032 S    
N5    O13   1.301672 A    
C5    N3    1.413706 S    
O3    C1    1.283619 A    
C22   N5    1.438922 S    
C15   C18   1.467188 A    
O5    C3    1.269049 A    
N1    C23   1.300531 D    
C14   C16   1.388681 A    
O7    C3    1.306874 A    
C16   C17   1.397928 A    
O2    C2    1.276316 A    
N1    H10   1.030636 S    
C12   H4    1.078532 S    
C3    C18   1.472189 S    
O3    Zn2   1.982839 S    
Zn2   N1    1.992055 S    
O1    C1    1.278693 A    
O8    C4    1.293130 A    
C6    C8    1.402514 A    
Zn1   N2    1.992054 S    
C9    C11   1.378900 A    
N4    O12   1.301390 A    
C20   C22   1.343584 D    
N5    O14   1.300173 A    
C11   C13   1.416420 A    
C6    C16   1.426549 A    
O2    Zn2   1.949934 S    
C12   C14   1.418072 A    
C5    C15   1.456282 A    
C10   Cl1   1.754862 S    
O1    Zn1   1.949932 S    
C4    C17   1.461511 S    
N6    O16   1.300786 A    
C6    N4    1.442565 S    
C21   N6    1.434422 S    
O5    Zn1   2.008646 S    
C13   C15   1.421983 A    
N4    O11   1.301745 A    
C14   C18   1.427261 A    
O4    C2    1.284349 A    
N3    O9    1.300999 A    
O4    Zn1   1.982840 S    
C5    C7    1.397330 A    
C9    Cl2   1.754646 S    
C7    C9    1.368010 A    
C19   H6    1.084821 S    
O6    Zn2   2.008647 S    
C19   C21   1.339512 D    
N6    O15   1.301452 A    
N2    H9    1.028471 S    
H8    C23   1.085145 S    
C2    C20   1.434797 S    
C10   C12   1.394178 A    
N3    O10   1.301512 A    
O8    Zn1   1.979712 S    
C1    C19   1.439153 S    
