data_mof_unit_20738.cif
_audit_creation_date              2012-12-10T16:43:00-0500
_audit_creation_method            fapswitch 2.2
_symmetry_space_group_name_H-M    P1
_symmetry_Int_Tables_number       1
_space_group_crystal_system       triclinic
_cell_length_a                    7.613919
_cell_length_b                    8.746128
_cell_length_c                    13.05486
_cell_angle_alpha                 85.978199
_cell_angle_beta                  78.107571
_cell_angle_gamma                 102.849761
_cell_volume                      823.239332986

loop_
_atom_site_label
_atom_site_type_symbol
_atom_type_description
_atom_site_fract_x
_atom_site_fract_y
_atom_site_fract_z
_atom_type_partial_charge
C1    C     C_R   0.453033 0.200271 0.506268 0.799406
C2    C     C_R   0.546745 0.799618 0.495981 0.801229
C3    C     C_R   0.467000 0.504446 0.700040 0.773551
C4    C     C_R   0.531952 0.493941 0.299818 0.797786
C5    C     C_R   0.547808 0.495108 0.186008 -0.034530
C6    C     C_R   0.447396 0.506111 0.813383 -0.060220
C7    C     C_R   0.269735 0.385871 0.985130 -0.231972
C8    C     C_R   0.714251 0.636565 0.015140 -0.221317
C9    C     C_R   0.288322 0.408350 0.878111 -0.242287
C10   C     C_R   0.700937 0.603554 0.121880 -0.260422
C11   C     C_R   0.586676 0.594900 0.857723 0.087246
C12   C     C_R   0.405478 0.410208 0.140403 0.084492
C13   C     C_R   0.573565 0.562585 0.967742 0.120631
C14   C     C_R   0.415879 0.452411 0.031690 0.087197
C15   C     C_2   0.428417 0.032013 0.518142 0.253733
C16   C     C_2   0.571707 0.967936 0.484748 0.260013
Cu1   Cu    Cu3+1 0.686350 0.517570 0.488220 0.955470
Cu2   Cu    Cu3+1 0.313650 0.482430 0.511780 0.959367
H1    H     H_    0.809341 0.669236 0.155377 0.157491
H2    H     H_    0.178795 0.343175 0.845776 0.164000
H3    H     H_    0.139745 0.310794 0.029291 0.147839
H4    H     H_    0.835759 0.723117 0.971366 0.164481
N1    N     N_2   0.033570 0.455950 0.529530 -0.066538
N2    N     N_2   0.966430 0.544050 0.470470 -0.083919
O1    O     O_R   0.621060 0.286250 0.492350 -0.591580
O2    O     O_R   0.378940 0.713750 0.507650 -0.541025
O3    O     O_R   0.306310 0.256580 0.512240 -0.577238
O4    O     O_R   0.693690 0.743420 0.487760 -0.550540
O5    O     O_R   0.631800 0.512400 0.642670 -0.610321
O6    O     O_R   0.368200 0.487600 0.357330 -0.599117
O7    O     O_R   0.317060 0.482730 0.662570 -0.581448
O8    O     O_R   0.682940 0.517270 0.337430 -0.618566
C17   C     C_3   0.244466 0.270273 0.196866 -0.451561
C18   C     C_3   0.244454 0.185708 0.302005 -0.695728
H5    H     H_    0.385692 0.178200 0.307607 0.221620
H6    H     H_    0.171561 0.239934 0.366098 0.298349
H7    H     H_    0.155417 0.065024 0.311136 0.240507
H8    H     H_    0.111979 0.306913 0.204986 0.208134
H9    H     H_    0.241131 0.175276 0.144318 0.206403
C19   C     C_3   0.735659 0.732450 0.791008 -0.423639
C20   C     C_3   0.924568 0.693594 0.759778 -0.679463
H10   H     H_    0.950510 0.615629 0.822873 0.215215
H11   H     H_    0.934786 0.634853 0.687180 0.290209
H12   H     H_    0.035040 0.804658 0.743546 0.275376
H13   H     H_    0.695310 0.772628 0.718573 0.214543
H14   H     H_    0.747918 0.836966 0.835158 0.182462
C21   C     C_3   0.912985 0.311315 0.591531 -0.058012
C22   C     C_3   0.964954 0.269835 0.694622 -0.842891
H15   H     H_    0.094177 0.229026 0.681674 0.289775
H16   H     H_    0.973946 0.371717 0.740714 0.245845
H17   H     H_    0.854914 0.170222 0.742593 0.200425
H18   H     H_    0.772085 0.319648 0.618315 0.211647
H19   H     H_    0.917049 0.211617 0.544001 0.229522
C23   C     C_3   0.066730 0.607255 0.362267 0.007455
C24   C     C_3   0.207983 0.765706 0.347129 -0.774890
H20   H     H_    0.208550 0.833829 0.271853 0.172440
H21   H     H_    0.171396 0.835227 0.412438 0.302114
H22   H     H_    0.351559 0.753947 0.334969 0.244475
H23   H     H_    0.968063 0.643169 0.321842 0.173150
H24   H     H_    0.106225 0.515451 0.315161 0.152687
F1    F     F_    0.258550 0.942720 0.569567 -0.698788
F2    F     F_    0.741024 0.057043 0.432117 -0.700269

loop_
_geom_bond_atom_site_label_1
_geom_bond_atom_site_label_2
_ccdc_geom_bond_type
C21   H18   S    
C8    H4    S    
N1    N2    D    
C8    C13   A    
Cu2   O6    S    
C18   H7    S    
Cu1   O5    S    
C20   H10   S    
C9    H2    S    
C21   C22   S    
Cu2   O2    S    
C10   H1    S    
C21   H19   S    
C3    C6    S    
Cu1   O1    S    
C24   H20   S    
C22   H16   S    
C17   C18   S    
C15   F1    S    
C5    C10   A    
C2    O2    A    
C23   H24   S    
C13   C14   A    
C3    O7    A    
C1    O1    A    
C20   H11   S    
C1    O3    A    
C4    O8    A    
C16   F2    S    
C6    C9    A    
C1    C15   S    
C8    C10   A    
C19   C20   S    
C12   C14   A    
Cu1   Cu2   S    
C18   H6    S    
C23   H23   S    
C24   H21   S    
C11   C19   S    
C20   H12   S    
C22   H17   S    
Cu1   N2    S    
N1    C21   S    
C15   C16   D    
C19   H14   S    
N2    C23   S    
Cu2   N1    S    
C11   C13   A    
C2    C16   S    
C19   H13   S    
C5    C12   A    
C7    C9    A    
C18   H5    S    
C24   H22   S    
C6    C11   A    
C3    O5    A    
Cu1   O8    S    
C23   C24   S    
C22   H15   S    
C2    O4    A    
Cu2   O7    S    
C12   C17   S    
C7    H3    S    
Cu1   O4    S    
C17   H9    S    
C7    C14   A    
C4    O6    A    
Cu2   O3    S    
C17   H8    S    
C4    C5    S    
