data_mof_unit_42429.cif
_audit_creation_date              2013-03-05T16:19:46-0500
_audit_creation_method            fapswitch 2.2
_symmetry_space_group_name_H-M    P1
_symmetry_Int_Tables_number       1
_space_group_crystal_system       triclinic
_cell_length_a                    10.618108
_cell_length_b                    9.678438
_cell_length_c                    27.73219
_cell_angle_alpha                 90.001906
_cell_angle_beta                  89.763684
_cell_angle_gamma                 90.016971
_cell_volume                      2849.92128155

loop_
_atom_site_label
_atom_site_type_symbol
_atom_site_description
_atom_site_fract_x
_atom_site_fract_y
_atom_site_fract_z
_atom_type_partial_charge
O1    O     O_R   0.314910 0.616040 0.499990 -0.636139
O2    O     O_R   0.314910 0.383960 0.499990 -0.636871
C1    C     C_R   0.257811 0.500057 0.502473 0.877483
O3    O     O_R   0.500140 0.616020 0.428740 -0.628949
O4    O     O_R   0.500140 0.383980 0.428740 -0.629210
C2    C     C_R   0.500281 0.499996 0.405932 0.879040
Zn1   Zn    Zn3+2 0.500150 0.654960 0.499980 0.912933
Zn2   Zn    Zn3+2 0.500150 0.345040 0.499980 0.914696
O5    O     O_R   0.685320 0.616040 0.499970 -0.628540
O6    O     O_R   0.685320 0.383960 0.499970 -0.621999
O7    O     O_R   0.500090 0.616050 0.571230 -0.628807
O8    O     O_R   0.500090 0.383950 0.571230 -0.627715
C3    C     C_R   0.742188 0.500087 0.502851 0.911654
C4    C     C_R   0.501059 0.500001 0.594024 0.888432
C5    C     C_R   0.394084 0.480789 0.177609 0.503094
O9    O     O_2   0.285890 0.462885 0.202583 -0.554135
N1    N     N_R   0.504723 0.499763 0.201591 -0.358894
C6    C     C_R   0.616173 0.518745 0.177804 0.503129
C7    C     C_R   0.512594 0.624822 0.277852 -0.102422
C8    C     C_R   0.511080 0.625128 0.327936 -0.226349
C9    C     C_R   0.492468 0.374737 0.327939 -0.226149
C10   C     C_R   0.493588 0.374885 0.277856 -0.102133
C11   C     C_R   0.503773 0.499812 0.252903 0.326731
C12   C     C_R   0.506383 0.499870 0.101681 -0.051911
C13   C     C_R   0.392723 0.480763 0.127191 -0.020917
C14   C     C_R   0.280661 0.461351 0.102035 -0.137108
C15   C     C_R   0.619213 0.518854 0.127379 -0.020997
C16   C     C_R   0.501129 0.499970 0.353294 -0.043018
H1    H     H_    0.484604 0.276954 0.346714 0.150480
H2    H     H_    0.486811 0.278239 0.258357 0.135413
H3    H     H_    0.192447 0.444194 0.120891 0.190837
C17   C     C_R   0.504649 0.499999 0.646617 -0.037136
C18   C     C_R   0.392095 0.493707 0.974287 0.046864
C19   C     C_R   0.624623 0.506899 0.974423 0.046786
C20   C     C_R   0.508732 0.500357 0.949127 0.070210
C21   C     C_R   0.279197 0.496150 0.947365 -0.215249
C22   C     C_R   0.281038 0.498258 0.897402 -0.136919
C23   C     C_R   0.395247 0.498866 0.872398 -0.021098
C24   C     C_R   0.509466 0.500450 0.898047 -0.052158
C25   C     C_R   0.624395 0.502105 0.872485 -0.021237
C26   C     C_R   0.622869 0.501858 0.822049 0.503293
N2    N     N_R   0.510800 0.500308 0.798176 -0.359368
C27   C     C_R   0.398121 0.498974 0.821994 0.503184
C28   C     C_R   0.501356 0.374939 0.722105 -0.107464
C29   C     C_R   0.498373 0.374679 0.672045 -0.224894
C30   C     C_R   0.515295 0.625254 0.671856 -0.221928
C31   C     C_R   0.518572 0.625040 0.721917 -0.108833
C32   C     C_R   0.511133 0.500029 0.746912 0.332543
O10   O     O_2   0.289498 0.497882 0.796858 -0.553942
C33   C     C_R   0.391879 0.486029 0.025290 0.046605
C34   C     C_R   0.507197 0.500011 0.050598 0.070436
C35   C     C_R   0.623300 0.514141 0.025450 0.046463
C36   C     C_R   0.280001 0.463556 0.052068 -0.216074
H4    H     H_    0.490508 0.276793 0.653360 0.149316
H5    H     H_    0.495496 0.278353 0.741701 0.132720
H6    H     H_    0.192031 0.499578 0.878428 0.189975
H7    H     H_    0.187135 0.499560 0.963736 0.137755
H8    H     H_    0.190108 0.444135 0.035577 0.139581
O11   O     O_2   0.723522 0.536610 0.202970 -0.554149
C37   C     C_R   0.732098 0.538234 0.102394 -0.136982
H9    H     H_    0.518059 0.722959 0.346710 0.150334
H10   H     H_    0.520280 0.721417 0.258351 0.135429
H11   H     H_    0.819721 0.555195 0.121396 0.190916
C38   C     C_R   0.738294 0.504842 0.947601 -0.215000
C39   C     C_R   0.737884 0.502866 0.897616 -0.137083
O12   O     O_2   0.732097 0.502964 0.796966 -0.553788
C40   C     C_R   0.734355 0.536252 0.052415 -0.215943
H12   H     H_    0.829889 0.501645 0.964068 0.137669
H13   H     H_    0.521030 0.723108 0.653017 0.150499
H14   H     H_    0.827420 0.501731 0.878725 0.189733
H15   H     H_    0.526043 0.721706 0.741365 0.132801
H16   H     H_    0.824803 0.555528 0.036068 0.139566
C41   C     C_3   0.073560 0.639428 0.525496 -0.454029
C42   C     C_3   0.072581 0.381461 0.537120 -0.468207
H17   H     H_    0.105009 0.727435 0.502527 0.165219
H18   H     H_    0.116634 0.280814 0.527473 0.169618
H19   H     H_    0.114592 0.656384 0.561917 0.170536
H20   H     H_    0.097181 0.403310 0.575353 0.171858
C43   C     C_3   0.929121 0.639116 0.527192 0.063561
C44   C     C_3   0.929546 0.367656 0.530920 0.065268
H21   H     H_    0.897071 0.724794 0.503229 0.150360
H22   H     H_    0.913336 0.279248 0.505797 0.155800
H23   H     H_    0.111997 0.564411 0.428097 0.177753
H24   H     H_    0.100764 0.381021 0.437498 0.179394
H25   H     H_    0.898245 0.588013 0.431741 0.185312
H26   H     H_    0.887284 0.403566 0.432593 0.182583
C45   C     C_3   0.071706 0.483357 0.452135 -0.405125
C46   C     C_3   0.121578 0.500584 0.504266 0.116032
C47   C     C_3   0.878464 0.500345 0.504861 0.049108
C48   C     C_3   0.927444 0.494078 0.452027 -0.524175
C49   C     C_3   0.385235 0.081361 0.475533 -0.232580
C50   C     C_3   0.385309 0.918550 0.475477 -0.232421
H27   H     H_    0.378609 0.120348 0.437894 0.145537
H28   H     H_    0.378847 0.879706 0.437813 0.146673
H29   H     H_    0.299576 0.118763 0.494661 0.143054
H30   H     H_    0.299610 0.881004 0.494532 0.143385
H31   H     H_    0.610223 0.120204 0.434682 0.146212
H32   H     H_    0.610050 0.880087 0.434643 0.145413
C51   C     C_3   0.610060 0.081437 0.472442 -0.234852
C52   C     C_3   0.610007 0.918724 0.472421 -0.235467
C53   C     C_3   0.503762 0.081261 0.548618 -0.237016
C54   C     C_3   0.503120 0.918809 0.548622 -0.237380
N3    N     N_3   0.499750 0.138610 0.498940 -0.031639
N4    N     N_3   0.499750 0.861390 0.498940 -0.031340
H33   H     H_    0.589264 0.119392 0.567429 0.160614
H34   H     H_    0.587558 0.879812 0.567781 0.154940
H35   H     H_    0.421606 0.119822 0.569693 0.144679
H36   H     H_    0.420189 0.881016 0.569438 0.146145
H37   H     H_    0.698709 0.119225 0.488992 0.145515
H38   H     H_    0.698642 0.880884 0.488846 0.140846
N5    N     N_2   0.882254 0.664865 0.575934 -0.289627
H39   H     H_    0.928857 0.611360 0.602459 0.233105
C55   C     C_3   0.868811 0.808858 0.589117 -0.818774
H40   H     H_    0.823040 0.816624 0.625089 0.251465
H41   H     H_    0.809076 0.863952 0.562726 0.228316
H42   H     H_    0.962682 0.859412 0.590671 0.237534
N6    N     N_2   0.865228 0.336058 0.576261 -0.286620
H43   H     H_    0.883238 0.400964 0.604635 0.236882
C56   C     C_3   0.867201 0.192445 0.590825 -0.815337
H44   H     H_    0.807392 0.178517 0.623409 0.248924
H45   H     H_    0.964963 0.160004 0.599352 0.241529
H46   H     H_    0.829010 0.125675 0.561835 0.226326

loop_
_geom_bond_atom_site_label_1
_geom_bond_atom_site_label_2
_geom_bond_distance
_ccdc_geom_bond_type
C53   H35   1.112565 S    
C51   N3    1.487060 S    
C45   C46   1.550659 S    
C52   H38   1.109546 S    
C53   C54   1.572292 S    
C36   H8    1.076579 S    
C17   C29   1.404452 A    
H23   C45   1.113693 S    
C7    C8    1.388963 A    
C12   C15   1.408486 A    
C52   N4    1.487248 S    
Zn1   O7    2.011498 S    
N1    C11   1.422988 S    
C42   H18   1.112874 S    
C37   H11   1.083620 S    
C38   H12   1.076610 S    
C21   C22   1.385794 A    
C40   H16   1.076564 S    
C15   C37   1.394634 A    
N6    C56   1.447635 S    
C23   C24   1.408588 A    
O7    C4    1.288916 A    
C5    C13   1.398344 A    
C7    H10   1.082947 S    
C5    O9    1.350107 S    
C51   H37   1.110751 S    
C50   H30   1.111389 S    
C18   C21   1.415074 A    
C5    N1    1.364721 A    
C19   C20   1.420355 A    
C26   N2    1.364196 A    
C44   C47   1.571439 S    
O5    C3    1.277197 A    
C30   H13   1.083212 S    
C44   N6    1.460758 S    
C22   H6    1.083666 S    
C2    C16   1.459749 S    
C51   C52   1.574811 S    
C37   C40   1.386243 A    
H24   C45   1.113581 S    
C54   H36   1.112690 S    
C55   H42   1.111219 S    
C12   C34   1.416627 A    
C14   H3    1.083626 S    
C53   N3    1.486092 S    
C42   C44   1.534953 S    
C9    C10   1.388919 A    
C41   H17   1.113930 S    
O3    Zn1   2.011255 S    
C50   H28   1.112466 S    
H31   C51   1.112373 S    
C33   C34   1.420277 A    
C56   H45   1.110981 S    
C53   H33   1.111867 S    
C33   C36   1.415112 A    
C34   C35   1.420459 A    
C12   C13   1.408557 A    
O3    C2    1.288798 A    
C21   H7    1.076617 S    
H26   C48   1.114163 S    
C49   N3    1.487595 S    
C49   C50   1.575756 S    
C43   H21   1.116750 S    
C7    C11   1.397053 A    
C27   O10   1.350153 S    
C8    C16   1.404428 A    
C18   C33   1.416363 A    
C9    H1    1.083216 S    
O1    C1    1.277365 A    
C20   C24   1.416569 A    
C41   C46   1.552491 S    
C22   C23   1.394452 A    
C49   H27   1.112453 S    
C31   C32   1.396465 A    
Zn2   O8    2.011473 S    
C19   C38   1.415298 A    
N1    C6    1.364835 A    
C41   C43   1.534202 S    
N5    C55   1.447722 S    
N2    C32   1.421658 S    
C56   H44   1.110516 S    
C54   N4    1.486181 S    
C31   H15   1.082937 S    
C35   C40   1.415147 A    
C44   H22   1.117162 S    
C25   C26   1.398863 A    
C9    C16   1.404415 A    
O8    C4    1.288899 A    
C29   H4    1.083184 S    
H32   C52   1.112394 S    
Zn1   N4    1.998136 S    
N2    C27   1.364336 A    
C14   C36   1.385895 A    
C24   C25   1.408841 A    
C28   C29   1.388770 A    
C55   H40   1.110420 S    
C56   H46   1.109457 S    
Zn1   O5    2.002022 S    
C30   C31   1.388880 A    
C10   H2    1.082947 S    
N5    H39   1.028265 S    
C3    C47   1.448293 S    
C1    C46   1.447201 S    
O1    Zn1   2.002532 S    
C17   C30   1.404574 A    
O2    Zn2   2.002752 S    
C6    C15   1.398655 A    
C4    C17   1.459169 S    
O6    C3    1.278361 A    
O4    Zn2   2.011280 S    
H25   C48   1.113916 S    
C26   O12   1.349991 S    
C8    H9    1.083205 S    
C19   C35   1.416832 A    
C43   N5    1.459912 S    
C25   C39   1.394565 A    
C38   C39   1.386341 A    
O2    C1    1.278643 A    
C13   C14   1.394463 A    
C23   C27   1.398035 A    
N6    H43   1.025421 S    
C28   H5    1.082943 S    
O4    C2    1.288767 A    
C18   C20   1.420422 A    
C54   H34   1.110290 S    
Zn2   N3    1.998132 S    
C43   C47   1.574483 S    
C50   N4    1.487601 S    
C49   H29   1.111696 S    
C28   C32   1.396508 A    
C6    O11   1.350052 S    
Zn2   O6    2.001803 S    
C42   H20   1.113292 S    
C45   C48   1.535343 S    
C41   H19   1.113782 S    
C10   C11   1.397067 A    
C42   C46   1.557505 S    
C47   C48   1.553922 S    
C39   H14   1.083660 S    
C55   H41   1.107398 S    
