data_mof_unit_57624.cif
_audit_creation_date              2012-12-11T16:58:14-0500
_audit_creation_method            fapswitch 2.2
_symmetry_space_group_name_H-M    P1
_symmetry_Int_Tables_number       1
_space_group_crystal_system       triclinic
_cell_length_a                    16.904542
_cell_length_b                    7.249994
_cell_length_c                    16.871188
_cell_angle_alpha                 90.0001
_cell_angle_beta                  100.403167
_cell_angle_gamma                 89.999897
_cell_volume                      2033.70631677

loop_
_atom_site_label
_atom_site_type_symbol
_atom_type_description
_atom_site_fract_x
_atom_site_fract_y
_atom_site_fract_z
_atom_type_partial_charge
O1    O     O_R   0.413450 0.494370 0.415710 -0.532969
O2    O     O_R   0.586550 0.994370 0.584290 -0.532969
O3    O     O_R   0.578420 0.819350 0.429360 -0.540236
O4    O     O_R   0.421580 0.319350 0.570640 -0.540236
C1    C     C_R   0.604733 0.653912 0.413651 0.698224
C2    C     C_R   0.395267 0.153912 0.586349 0.698224
O5    O     O_R   0.413570 0.823780 0.406240 -0.543320
O6    O     O_R   0.586430 0.323780 0.593760 -0.543321
O7    O     O_R   0.420530 0.998740 0.561000 -0.537666
O8    O     O_R   0.579470 0.498740 0.439000 -0.537667
C3    C     C_R   0.385938 0.655334 0.383791 0.685963
C4    C     C_R   0.614062 0.155334 0.616209 0.685963
O9    O     O_3   0.502480 0.662320 0.550800 -0.377467
O10   O     O_3   0.497520 0.162320 0.449200 -0.377467
V1    V     V_3+5 0.499540 0.935370 0.490580 1.384998
V2    V     V_3+5 0.500460 0.435370 0.509420 1.384998
C5    C     C_R   0.734474 0.990313 0.695010 0.114716
C6    C     C_R   0.265526 0.490313 0.304989 0.114716
C7    C     C_R   0.685111 0.146973 0.682472 -0.110626
C8    C     C_R   0.314889 0.646973 0.317528 -0.110627
C9    C     C_R   0.708441 0.299982 0.732861 -0.191432
C10   C     C_R   0.291559 0.799981 0.267139 -0.191433
H1    H     H_    0.673510 0.425596 0.725067 0.145156
H2    H     H_    0.326489 0.925596 0.274933 0.145157
C11   C     C_R   0.774249 0.288786 0.797292 -0.180614
C12   C     C_R   0.225751 0.788786 0.202709 -0.180613
H3    H     H_    0.787669 0.406922 0.836573 0.138842
H4    H     H_    0.212330 0.906921 0.163427 0.138842
C13   C     C_R   0.818854 0.123909 0.813633 -0.108621
C14   C     C_R   0.181146 0.623910 0.186366 -0.108621
C15   C     C_R   0.799353 0.978989 0.758706 0.114130
C16   C     C_R   0.200648 0.478989 0.241294 0.114131
C17   C     C_3   0.783943 0.780272 0.772734 -0.426059
C18   C     C_3   0.216057 0.280272 0.227265 -0.426059
C19   C     C_3   0.713148 0.792552 0.703093 -0.407212
C20   C     C_3   0.286853 0.292552 0.296906 -0.407213
H5    H     H_    0.765663 0.755404 0.831932 0.167793
H6    H     H_    0.234338 0.255405 0.168066 0.167793
H7    H     H_    0.833265 0.690556 0.759480 0.178655
H8    H     H_    0.166736 0.190556 0.240519 0.178654
H9    H     H_    0.653888 0.774581 0.721960 0.173198
H10   H     H_    0.346113 0.274582 0.278038 0.173198
H11   H     H_    0.721756 0.709925 0.649787 0.171150
H12   H     H_    0.278245 0.209924 0.350211 0.171150
C21   C     C_R   0.333510 0.132642 0.638602 -0.056992
C22   C     C_R   0.666489 0.632639 0.361397 -0.056992
C23   C     C_R   0.167750 0.138344 0.863571 -0.110806
C24   C     C_R   0.832250 0.638347 0.136430 -0.110805
C25   C     C_R   0.269829 0.342420 0.821515 0.115759
C26   C     C_R   0.730175 0.842430 0.178491 0.115742
C27   C     C_R   0.216803 0.296894 0.874311 -0.153262
C28   C     C_R   0.783202 0.796905 0.125694 -0.153266
C29   C     C_R   0.174406 0.018136 0.800324 -0.246782
C30   C     C_R   0.825590 0.518131 0.199672 -0.246792
C31   C     C_R   0.227406 0.058208 0.747023 0.146293
C32   C     C_R   0.772591 0.558205 0.252974 0.146300
C33   C     C_R   0.275288 0.220963 0.756630 0.091551
C34   C     C_R   0.724713 0.720966 0.243371 0.091554
C35   C     C_R   0.327730 0.256569 0.701229 -0.247098
C36   C     C_R   0.672271 0.756571 0.298773 -0.247101
C37   C     C_R   0.284522 0.974275 0.630037 -0.162518
C38   C     C_R   0.715475 0.474267 0.369959 -0.162520
C39   C     C_R   0.232176 0.937926 0.683193 -0.182819
C40   C     C_R   0.767819 0.437917 0.316802 -0.182820
H13   H     H_    0.366456 0.376355 0.707610 0.118292
H14   H     H_    0.633548 0.876361 0.292394 0.118293
H15   H     H_    0.287307 0.876033 0.582234 0.125664
H16   H     H_    0.712688 0.376021 0.417760 0.125665
H17   H     H_    0.195859 0.813840 0.674768 0.116591
H18   H     H_    0.804133 0.313827 0.325223 0.116591
H19   H     H_    0.211997 0.386749 0.924263 0.141552
H20   H     H_    0.788012 0.886767 0.075746 0.141557
H21   H     H_    0.136520 0.896548 0.790980 0.130377
H22   H     H_    0.863471 0.396537 0.209011 0.130378
O11   O     O_R   0.920630 0.775410 0.061150 -0.536566
O12   O     O_R   0.079370 0.275410 0.938850 -0.536564
O13   O     O_R   0.086500 0.441450 0.093690 -0.538328
O14   O     O_R   0.913500 0.941450 0.906310 -0.538328
C41   C     C_R   0.114121 0.610290 0.116142 0.685336
C42   C     C_R   0.885879 0.110289 0.883858 0.685335
O15   O     O_R   0.921670 0.445960 0.070740 -0.539724
O16   O     O_R   0.078330 0.945960 0.929260 -0.539723
O17   O     O_R   0.913380 0.271130 0.915780 -0.537369
O18   O     O_R   0.086620 0.771130 0.084220 -0.537369
C43   C     C_R   0.895462 0.615747 0.085748 0.697932
C44   C     C_R   0.104537 0.115747 0.914251 0.697931
O19   O     O_3   0.997500 0.603030 0.949220 -0.375588
O20   O     O_3   0.002500 0.103030 0.050780 -0.375589
V3    V     V_3+5 0.000470 0.329940 0.009420 1.389197
V4    V     V_3+5 0.999530 0.829940 0.990580 1.389198
C45   C     C_3   0.319495 0.519813 0.832328 -0.363836
C46   C     C_3   0.306673 0.646775 0.901404 -0.762819
H23   H     H_    0.242798 0.690579 0.893777 0.230009
H24   H     H_    0.325135 0.576602 0.960367 0.218744
H25   H     H_    0.344170 0.772493 0.901142 0.225432
H26   H     H_    0.384334 0.482804 0.842185 0.178524
H27   H     H_    0.305204 0.601642 0.775854 0.186651
C47   C     C_3   0.680511 0.019826 0.167680 -0.363821
C48   C     C_3   0.693339 0.146806 0.098609 -0.762764
H28   H     H_    0.757216 0.190612 0.106244 0.230002
H29   H     H_    0.674879 0.076639 0.039641 0.218731
H30   H     H_    0.655839 0.272528 0.098869 0.225420
H31   H     H_    0.615671 0.982818 0.157817 0.178518
H32   H     H_    0.694801 0.101645 0.224158 0.186642

loop_
_geom_bond_atom_site_label_1
_geom_bond_atom_site_label_2
_ccdc_geom_bond_type
C2    C21   S    
C29   C31   A    
C20   H10   S    
O1    C3    A    
O2    C4    A    
C2    O7    A    
O14   V4    S    
C24   C30   A    
O13   V3    S    
C17   H7    S    
C27   H19   S    
C22   C38   A    
C18   H8    S    
C7    C9    A    
C41   O18   A    
O14   C42   A    
C33   C35   A    
C34   C36   A    
C47   H31   S    
C25   C33   A    
C37   C39   A    
C38   C40   A    
O11   V4    S    
C17   C19   S    
C45   H26   S    
C30   H22   S    
O11   C43   A    
C39   H17   S    
C25   C27   A    
C31   C39   A    
C26   C28   A    
C15   C17   S    
C40   H18   S    
C19   H11   S    
C18   C20   S    
O12   V3    S    
C23   C29   A    
O15   V3    S    
O5    V1    S    
C36   H14   S    
O6    V2    S    
O18   V4    S    
C25   C45   S    
C42   O17   A    
O13   C41   A    
C11   C13   A    
O17   V3    S    
C30   C32   A    
C3    C8    S    
C26   C47   S    
C26   C34   A    
C23   C44   S    
O4    C2    A    
C45   C46   S    
C23   C27   A    
O16   C44   A    
C46   H25   S    
C17   H5    S    
C16   C18   S    
O4    V2    S    
O5    C3    A    
C28   H20   S    
C37   H15   S    
C48   H28   S    
O6    C4    A    
C46   H24   S    
O1    V2    S    
C45   H27   S    
O2    V1    S    
C14   C41   S    
C48   H29   S    
C8    C10   A    
C12   C14   A    
C31   C33   A    
C5    C15   A    
C10   H2    S    
C20   H12   S    
C6    C16   A    
O12   C44   A    
O3    V1    S    
C9    C11   A    
C21   C35   A    
C22   C36   A    
C18   H6    S    
C24   C43   S    
C29   H21   S    
O3    C1    A    
O9    V2    S    
C11   H3    S    
C1    C22   S    
C12   H4    S    
O16   V4    S    
C38   H16   S    
C9    H1    S    
O7    V1    S    
C1    O8    A    
C13   C15   A    
O8    V2    S    
C35   H13   S    
C14   C16   A    
C32   C40   A    
C13   C42   S    
C47   H32   S    
C4    C7    S    
C21   C37   A    
C46   H23   S    
C5    C7    A    
C32   C34   A    
C6    C8    A    
C19   H9    S    
C24   C28   A    
C48   H30   S    
O20   V3    S    
C47   C48   S    
C10   C12   A    
O19   V4    S    
O10   V1    S    
C5    C19   S    
C6    C20   S    
O15   C43   A    
