data_mof_unit_28140.cif
_audit_creation_date              2012-10-26T19:52:29-0400
_audit_creation_method            fapswitch 2.2
_symmetry_space_group_name_H-M    P1
_symmetry_Int_Tables_number       1
_space_group_crystal_system       triclinic
_cell_length_a                    9.576407
_cell_length_b                    10.827152
_cell_length_c                    13.433217
_cell_angle_alpha                 90.442447
_cell_angle_beta                  72.71327
_cell_angle_gamma                 90.328187
_cell_volume                      1329.86329172

loop_
_atom_site_label
_atom_site_type_symbol
_atom_type_description
_atom_site_fract_x
_atom_site_fract_y
_atom_site_fract_z
_atom_type_partial_charge
C1    C     C_R   0.499496 0.737516 0.502157 0.567281
C2    C     C_R   0.375147 0.507686 0.814266 0.001486
C3    C     C_R   0.369077 0.935431 0.516234 0.011377
C4    C     C_R   0.421583 0.497999 0.699985 0.527023
C5    C     C_R   0.495892 0.870569 0.512766 0.011637
C6    C     C_R   0.617266 0.936398 0.524150 -0.163396
C7    C     C_R   0.616819 0.065261 0.524050 -0.161213
C8    C     C_R   0.494979 0.129248 0.512583 0.004489
C9    C     C_R   0.368360 0.062603 0.516387 -0.033892
C10   C     C_3   0.269746 0.068666 0.448682 -0.224566
C11   C     C_3   0.270240 0.927974 0.448191 0.109785
C12   C     C_R   0.441032 0.509414 0.977087 0.038453
C13   C     C_R   0.963486 0.518714 0.410137 0.114897
C14   C     C_R   0.888655 0.489469 0.590327 -0.023461
C15   C     C_R   0.036689 0.489504 0.590341 -0.032451
C16   C     C_R   0.499011 0.262374 0.501946 0.549484
C17   C     C_R   0.110917 0.517781 0.410003 0.177549
C18   C     C_3   0.151944 0.437909 0.314005 0.102202
C19   C     C_3   0.993754 0.442224 0.313473 -0.247203
C20   C     C_R   0.578312 0.497830 0.300273 0.556666
C21   C     C_R   0.760814 0.363327 0.036580 -0.128791
C22   C     C_R   0.622341 0.479151 0.187521 0.006291
C23   C     C_R   0.465217 0.465409 0.873518 0.029170
C24   C     C_R   0.249329 0.576225 0.862756 -0.133508
C25   C     C_R   0.218454 0.611003 0.966570 -0.137991
C26   C     C_R   0.314710 0.581621 0.022508 -0.117266
C27   C     C_R   0.543112 0.477975 0.031177 0.036081
C28   C     C_R   0.661103 0.397321 0.983552 0.052640
C29   C     C_R   0.675613 0.347726 0.885100 -0.149587
C30   C     C_R   0.577837 0.379489 0.831630 -0.136403
C31   C     C_R   0.530439 0.521995 0.132088 -0.120954
C32   C     C_R   0.740229 0.402591 0.138731 -0.135716
Cu1   Cu    Cu3+1 0.359330 0.500020 0.500010 0.989685
Cu2   Cu    Cu3+1 0.640670 0.499980 0.499990 0.930403
H1    H     H_    0.811123 0.367304 0.181237 0.119355
H2    H     H_    0.762291 0.282935 0.849516 0.102841
H3    H     H_    0.935935 0.351662 0.326617 0.151342
H4    H     H_    0.850730 0.301634 0.000733 0.111536
H5    H     H_    0.447422 0.587002 0.171457 0.112262
H6    H     H_    0.178079 0.608058 0.819004 0.123811
H7    H     H_    0.285552 0.615976 0.101297 0.098164
H8    H     H_    0.122016 0.665428 0.002913 0.122537
H9    H     H_    0.590262 0.333966 0.757573 0.133985
H10   H     H_    0.714892 0.889066 0.527922 0.140340
H11   H     H_    0.434584 0.914511 0.319296 0.329378
H12   H     H_    0.714261 0.113983 0.527792 0.134479
H13   H     H_    0.124939 0.283353 0.392678 0.321064
H14   H     H_    0.161210 0.107739 0.491317 0.104584
H15   H     H_    0.323929 0.110922 0.371573 0.192361
H16   H     H_    0.162154 0.885739 0.488003 0.152851
H17   H     H_    0.804813 0.479405 0.663751 0.131908
H18   H     H_    0.060533 0.479245 0.663517 0.118731
H19   H     H_    0.228222 0.483363 0.245790 0.142904
H20   H     H_    0.979513 0.496036 0.247057 0.102497
N1    N     N_R   0.852320 0.499070 0.499340 -0.236098
N2    N     N_R   0.148230 0.499110 0.499340 -0.224938
O1    O     O_R   0.381190 0.680360 0.500000 -0.473297
O2    O     O_3   0.198500 0.319070 0.331100 -0.680638
O3    O     O_R   0.618780 0.680320 0.499990 -0.503514
O4    O     O_R   0.323230 0.500000 0.650990 -0.522908
O5    O     O_R   0.560820 0.499960 0.650980 -0.516954
O6    O     O_R   0.381220 0.319680 0.500010 -0.474374
O7    O     O_R   0.618810 0.319640 0.500000 -0.517516
O8    O     O_R   0.439180 0.500040 0.349020 -0.466555
O9    O     O_R   0.676770 0.500000 0.349010 -0.510603
O10   O     O_3   0.336857 0.875754 0.349068 -0.689732

loop_
_geom_bond_atom_site_label_1
_geom_bond_atom_site_label_2
_ccdc_geom_bond_type
C25   H8    S    
C20   O8    A    
C2    C4    S    
C7    H12   S    
C6    C7    A    
C3    C9    A    
C16   O7    A    
C1    O1    A    
C9    C10   S    
C14   H17   S    
C29   H2    S    
C11   O10   S    
C13   C17   A    
C15   N2    A    
C4    O4    A    
Cu1   N2    S    
C14   N1    A    
C8    C9    A    
Cu2   N1    S    
C8    C16   S    
C11   H16   S    
C6    H10   S    
C15   H18   S    
C24   C25   A    
H13   O2    S    
C2    C24   A    
C10   H15   S    
C12   C23   A    
C29   C30   A    
C22   C32   A    
Cu1   O8    S    
C1    C5    S    
C19   H20   S    
C28   C29   A    
C24   H6    S    
C21   C28   A    
C31   H5    S    
C17   C18   S    
Cu1   O4    S    
C17   N2    A    
C2    C23   A    
C1    O3    A    
C10   H14   S    
C5    C6    A    
C21   C32   A    
C30   H9    S    
C3    C11   S    
C10   C11   S    
C13   C19   S    
C12   C27   A    
C27   C31   A    
C32   H1    S    
C3    C5    A    
C20   O9    A    
C7    C8    A    
Cu1   Cu2   S    
C23   C30   A    
Cu2   O9    S    
C18   C19   S    
C22   C31   A    
C12   C26   A    
C27   C28   A    
C14   C15   A    
Cu2   O7    S    
Cu1   O1    S    
C19   H3    S    
C18   H19   S    
C16   O6    A    
C25   C26   A    
Cu2   O3    S    
H11   O10   S    
C4    O5    A    
C18   O2    S    
Cu2   O5    S    
C21   H4    S    
C26   H7    S    
C20   C22   S    
Cu1   O6    S    
C13   N1    A    
