data_mof_unit_30582.cif
_audit_creation_date              2012-12-10T19:01:24-0500
_audit_creation_method            fapswitch 2.2
_symmetry_space_group_name_H-M    P1
_symmetry_Int_Tables_number       1
_space_group_crystal_system       triclinic
_cell_length_a                    9.56103
_cell_length_b                    10.849968
_cell_length_c                    15.460529
_cell_angle_alpha                 89.10457
_cell_angle_beta                  74.284027
_cell_angle_gamma                 90.959249
_cell_volume                      1543.31474878

loop_
_atom_site_label
_atom_site_type_symbol
_atom_type_description
_atom_site_fract_x
_atom_site_fract_y
_atom_site_fract_z
_atom_type_partial_charge
C1    C     C_R   0.995978 0.262609 0.506218 0.799651
C2    C     C_R   0.255455 0.628781 0.059580 0.146206
C3    C     C_R   0.341531 0.554870 0.100676 0.120946
C4    C     C_R   0.917536 0.505988 0.672491 0.829474
C5    C     C_R   0.107546 0.644554 0.101844 -0.086893
C6    C     C_R   0.045696 0.593968 0.187216 -0.120232
C7    C     C_R   0.274003 0.499414 0.184816 -0.209054
C8    C     C_R   0.118000 0.067379 0.510149 0.002742
C9    C     C_R   0.988498 0.129535 0.520854 -0.186686
C10   C     C_R   0.856334 0.059200 0.544605 0.389740
C11   C     C_R   0.861952 0.930699 0.537414 -0.194703
C12   C     C_R   0.688434 0.550439 0.916028 -0.131263
C13   C     C_R   0.996309 0.870977 0.512537 -0.144297
C14   C     C_R   0.122561 0.940844 0.507318 0.105755
C15   C     C_3   0.267700 0.947073 0.438995 0.201552
C16   C     C_R   0.000247 0.737918 0.501528 0.860481
C17   C     C_3   0.260603 0.086419 0.442137 -0.438758
C18   C     C_R   0.607103 0.537939 0.425492 0.155736
C19   C     C_R   0.544195 0.449108 0.569286 -0.002011
C20   C     C_R   0.396201 0.446975 0.569345 0.442270
C21   C     C_R   0.460032 0.535996 0.424778 0.173751
C22   C     C_3   0.476884 0.658767 0.378707 0.180344
C23   C     C_R   0.787220 0.502957 0.962090 0.055068
C24   C     C_3   0.634410 0.662019 0.381039 -0.445084
C25   C     C_R   0.082164 0.502106 0.327812 0.802960
C26   C     C_R   0.872058 0.517782 0.771993 -0.124953
C27   C     C_R   0.130329 0.525321 0.230435 -0.075714
C28   C     C_R   0.932937 0.481652 0.913617 0.451405
C29   C     C_R   0.973311 0.491087 0.819635 -0.348163
C30   C     C_R   0.729105 0.551106 0.820013 -0.029974
C31   C     C_2   0.617196 0.571000 0.771034 0.361601
C32   C     C_R   0.548254 0.587435 0.967858 0.054535
C33   C     C_R   0.492053 0.540937 0.056733 0.051583
C34   C     C_R   0.589476 0.487976 0.099789 -0.309406
C35   C     C_R   0.737058 0.475186 0.055256 0.428006
C36   C     C_R   0.464956 0.673999 0.935385 -0.196452
C37   C     C_R   0.319717 0.691291 0.978974 -0.228819
Cu1   Cu    Cu3+1 0.140670 0.499980 0.500000 0.958794
Cu2   Cu    Cu3+1 0.859330 0.500020 0.500000 0.977480
H1    H     H_    0.041327 0.700612 0.070527 0.139270
H2    H     H_    0.658189 0.733980 0.425784 0.174277
H3    H     H_    0.934591 0.614655 0.221255 0.139666
H4    H     H_    0.257904 0.754812 0.949847 0.157035
H5    H     H_    0.083759 0.470321 0.783314 0.205553
H6    H     H_    0.555427 0.461410 0.169875 0.169364
H7    H     H_    0.512116 0.731995 0.877071 0.191828
H8    H     H_    0.779515 0.415939 0.165512 0.316377
H9    H     H_    0.729888 0.184427 0.607711 0.324909
H10   H     H_    0.359635 0.915295 0.314660 0.335659
H11   H     H_    0.228448 0.343878 0.617799 0.362253
H12   H     H_    0.760697 0.878209 0.550534 0.197873
H13   H     H_    0.366767 0.680702 0.291965 0.360298
H14   H     H_    0.130694 0.440072 0.914870 0.320526
H15   H     H_    0.519206 0.513487 0.787061 0.078425
H16   H     H_    0.357112 0.911138 0.464726 0.096533
H17   H     H_    0.343357 0.129155 0.471509 0.180937
H18   H     H_    0.250466 0.131210 0.378934 0.214445
H19   H     H_    0.575028 0.407682 0.625260 0.148800
H20   H     H_    0.332020 0.439245 0.218430 0.158429
H21   H     H_    0.408584 0.728426 0.420058 0.128753
H22   H     H_    0.712684 0.659654 0.313530 0.208105
N1    N     N_R   0.648210 0.500930 0.499430 -0.214848
N2    N     N_R   0.352300 0.500890 0.499430 -0.266083
O1    O     O_R   0.118810 0.319640 0.500000 -0.601822
O2    O     O_3   0.721336 0.111123 0.571974 -0.717771
O3    O     O_3   0.260984 0.901572 0.355842 -0.726117
O4    O     O_3   0.300190 0.388877 0.641230 -0.753211
O5    O     O_3   0.464666 0.650788 0.290676 -0.722090
O6    O     O_3   0.034233 0.449057 0.958543 -0.665341
O7    O     O_2   0.630080 0.656220 0.716618 -0.537823
O8    O     O_R   0.881230 0.319680 0.499990 -0.567268
O9    O     O_R   0.055580 0.499970 0.629840 -0.574674
O10   O     O_R   0.818000 0.500010 0.629830 -0.568319
O11   O     O_R   0.118770 0.680320 0.500010 -0.581662
O12   O     O_R   0.881190 0.680360 0.500000 -0.574564
O13   O     O_R   0.182000 0.499990 0.370170 -0.574773
O14   O     O_R   0.944420 0.500030 0.370160 -0.575818
O15   O     O_3   0.831174 0.428680 0.101036 -0.664749

loop_
_geom_bond_atom_site_label_1
_geom_bond_atom_site_label_2
_ccdc_geom_bond_type
C24   H22   S    
C16   O12   A    
C20   O4    S    
C19   C20   A    
H14   O6    S    
Cu1   O13   S    
C12   C23   A    
C1    O8    A    
C18   C24   S    
Cu2   O14   S    
C36   C37   A    
C3    C7    A    
C22   H21   S    
C5    C6    A    
C3    C33   A    
C19   N1    A    
C18   C21   A    
C7    C27   A    
C34   C35   A    
C31   O7    D    
C28   O6    S    
C8    C9    A    
C36   H7    S    
Cu2   O12   S    
H9    O2    S    
H11   O4    S    
H13   O5    S    
C13   C14   A    
C12   C32   A    
C24   H2    S    
C9    C10   A    
C7    H20   S    
Cu1   O1    S    
C19   H19   S    
Cu1   Cu2   S    
Cu1   O9    S    
H10   O3    S    
C1    C9    S    
C18   N1    A    
C15   O3    S    
C15   H16   S    
C37   H4    S    
C6    C27   A    
C33   C34   A    
C34   H6    S    
C23   C28   A    
C17   H17   S    
C22   O5    S    
C4    O10   A    
C26   C30   A    
C23   C35   A    
C29   H5    S    
C25   O14   A    
C13   C16   S    
C2    C5    A    
C1    O1    A    
C32   C36   A    
C4    O9    A    
Cu1   N2    S    
Cu1   O11   S    
C10   O2    S    
C15   C17   S    
Cu2   N1    S    
C28   C29   A    
C8    C14   A    
C12   C30   A    
C4    C26   S    
C16   O11   A    
C25   C27   S    
C35   O15   S    
C8    C17   S    
C25   O13   A    
C32   C33   A    
C20   N2    A    
C2    C3    A    
C11   C13   A    
C2    C37   A    
C30   C31   S    
C22   C24   S    
Cu2   O10   S    
C31   H15   S    
C21   N2    A    
C11   H12   S    
C10   C11   A    
C26   C29   A    
C6    H3    S    
C5    H1    S    
Cu2   O8    S    
C14   C15   S    
H8    O15   S    
C21   C22   S    
C17   H18   S    
