data_mof_unit_52134.cif
_audit_creation_date              2013-03-05T15:40:27-0500
_audit_creation_method            fapswitch 2.2
_symmetry_space_group_name_H-M    P1
_symmetry_Int_Tables_number       1
_space_group_crystal_system       triclinic
_cell_length_a                    18.956367
_cell_length_b                    11.077004
_cell_length_c                    18.816193
_cell_angle_alpha                 90.187322
_cell_angle_beta                  89.675541
_cell_angle_gamma                 90.103334
_cell_volume                      3950.92879907

loop_
_atom_site_label
_atom_site_type_symbol
_atom_site_description
_atom_site_fract_x
_atom_site_fract_y
_atom_site_fract_z
_atom_type_partial_charge
O1    O     O_R   0.215090 0.709860 0.828130 -0.532894
O2    O     O_R   0.784910 0.709860 0.171870 -0.525555
O3    O     O_R   0.715090 0.209860 0.828130 -0.533395
O4    O     O_R   0.284910 0.209860 0.171870 -0.525807
O5    O     O_R   0.236990 0.958390 0.823710 -0.470727
O6    O     O_R   0.763010 0.958390 0.176290 -0.465551
O7    O     O_R   0.736990 0.458390 0.823710 -0.474964
O8    O     O_R   0.263010 0.458390 0.176290 -0.465340
C1    C     C_R   0.273553 0.036767 0.855793 0.612197
C2    C     C_R   0.726534 0.036771 0.144312 0.618736
C3    C     C_R   0.773547 0.536783 0.855787 0.606753
C4    C     C_R   0.226538 0.536781 0.144315 0.616599
O9    O     O_R   0.332380 0.074750 0.830850 -0.486549
O10   O     O_R   0.667620 0.074750 0.169150 -0.481243
O11   O     O_R   0.832380 0.574750 0.830850 -0.490139
O12   O     O_R   0.167620 0.574750 0.169150 -0.483468
O13   O     O_R   0.445800 0.917770 0.825070 -0.530728
O14   O     O_R   0.554200 0.917770 0.174930 -0.524407
O15   O     O_R   0.945800 0.417770 0.825070 -0.531680
O16   O     O_R   0.054200 0.417770 0.174930 -0.527347
C5    C     C_R   0.471417 0.822347 0.853509 0.564615
C6    C     C_R   0.528429 0.821924 0.146639 0.573187
C7    C     C_R   0.971424 0.322345 0.853503 0.565788
C8    C     C_R   0.028439 0.321925 0.146630 0.571333
O17   O     O_R   0.456410 0.716580 0.829970 -0.427062
O18   O     O_R   0.543590 0.716580 0.170030 -0.422751
O19   O     O_R   0.956410 0.216580 0.829970 -0.425904
O20   O     O_R   0.043590 0.216580 0.170030 -0.423285
O21   O     O_R   0.321080 0.625290 0.822650 -0.439373
O22   O     O_R   0.678920 0.625290 0.177350 -0.431253
O23   O     O_R   0.821080 0.125290 0.822650 -0.440907
O24   O     O_R   0.178920 0.125290 0.177350 -0.434949
C9    C     C_R   0.259282 0.633750 0.849611 0.573010
C10   C     C_R   0.740732 0.633463 0.150438 0.592710
C11   C     C_R   0.759280 0.133744 0.849608 0.571228
C12   C     C_R   0.240736 0.133456 0.150441 0.584554
O25   O     O_R   0.214930 0.711450 0.668160 -0.453284
O26   O     O_R   0.785070 0.711450 0.331840 -0.454361
O27   O     O_R   0.714930 0.211450 0.668160 -0.451519
O28   O     O_R   0.285070 0.211450 0.331840 -0.503940
O29   O     O_R   0.236850 0.959870 0.675420 -0.437976
O30   O     O_R   0.763150 0.959870 0.324580 -0.487898
O31   O     O_R   0.736850 0.459870 0.675420 -0.446772
O32   O     O_R   0.263150 0.459870 0.324580 -0.485374
C13   C     C_R   0.273579 0.040265 0.646518 0.579033
C14   C     C_R   0.727548 0.045452 0.351910 0.580489
C15   C     C_R   0.771449 0.546542 0.648520 0.570659
C16   C     C_R   0.227567 0.545832 0.351804 0.581268
O33   O     O_R   0.332230 0.076350 0.670880 -0.539828
O34   O     O_R   0.667770 0.076350 0.329120 -0.517913
O35   O     O_R   0.832230 0.576350 0.670880 -0.529909
O36   O     O_R   0.167770 0.576350 0.329120 -0.516578
O37   O     O_R   0.445660 0.919250 0.676780 -0.509169
O38   O     O_R   0.554340 0.919250 0.323220 -0.515447
O39   O     O_R   0.945660 0.419250 0.676780 -0.499974
O40   O     O_R   0.054340 0.419250 0.323220 -0.513836
C17   C     C_R   0.472252 0.823953 0.649592 0.563081
C18   C     C_R   0.532066 0.823213 0.353639 0.550650
C19   C     C_R   0.971283 0.323964 0.648920 0.573848
C20   C     C_R   0.031350 0.323273 0.353087 0.562266
O41   O     O_R   0.456260 0.718170 0.670000 -0.497674
O42   O     O_R   0.543740 0.718170 0.330000 -0.498405
O43   O     O_R   0.956260 0.218170 0.670000 -0.494229
O44   O     O_R   0.043740 0.218170 0.330000 -0.484407
O45   O     O_R   0.320940 0.626760 0.674370 -0.506733
O46   O     O_R   0.679060 0.626760 0.325630 -0.482745
O47   O     O_R   0.820940 0.126760 0.674370 -0.507400
O48   O     O_R   0.179060 0.126760 0.325630 -0.508122
C21   C     C_R   0.259600 0.633745 0.647839 0.592879
C22   C     C_R   0.722604 0.698698 0.359411 0.580688
C23   C     C_R   0.759354 0.133304 0.648153 0.595514
C24   C     C_R   0.239999 0.135677 0.351918 0.573752
Cr1   Cr    Cr6+3 0.230530 0.836340 0.748870 1.111140
Cr2   Cr    Cr6+3 0.769470 0.836340 0.251130 1.085017
Cr3   Cr    Cr6+3 0.730530 0.336340 0.748870 1.102818
Cr4   Cr    Cr6+3 0.269470 0.336340 0.251130 1.078523
Cr5   Cr    Cr6+3 0.387420 0.989430 0.750820 1.043826
Cr6   Cr    Cr6+3 0.612580 0.989430 0.249180 1.043017
Cr7   Cr    Cr6+3 0.887420 0.489430 0.750820 1.050731
Cr8   Cr    Cr6+3 0.112580 0.489430 0.249180 1.051805
Cr9   Cr    Cr6+3 0.385640 0.677860 0.749230 1.133397
Cr10  Cr    Cr6+3 0.614360 0.677860 0.250770 1.142162
Cr11  Cr    Cr6+3 0.885640 0.177860 0.749230 1.138637
Cr12  Cr    Cr6+3 0.114360 0.177860 0.250770 1.145195
O49   O     O_3   0.334530 0.834540 0.749640 -0.293755
O50   O     O_3   0.665470 0.834540 0.250360 -0.332078
O51   O     O_3   0.834530 0.334540 0.749640 -0.289177
O52   O     O_3   0.165470 0.334540 0.250360 -0.302171
C25   C     C_R   0.496711 0.830622 0.074837 -0.036987
C26   C     C_R   0.502745 0.831786 0.925524 -0.036328
C27   C     C_R   0.996741 0.330629 0.074817 -0.036156
C28   C     C_R   0.002776 0.331775 0.925505 -0.036090
C29   C     C_R   0.495904 0.941991 0.038151 -0.052595
C30   C     C_R   0.501965 0.942727 0.963213 -0.052356
C31   C     C_R   0.995957 0.441998 0.038124 -0.052395
C32   C     C_R   0.002018 0.442719 0.963186 -0.052310
C33   C     C_R   0.510143 0.722981 0.963376 0.197819
C34   C     C_R   0.490672 0.722060 0.036097 0.194434
C35   C     C_R   0.010167 0.222973 0.963360 0.196910
C36   C     C_R   0.990696 0.222064 0.036081 0.194504
C37   C     C_R   0.487109 0.052647 0.074356 -0.108360
C38   C     C_R   0.509472 0.054456 0.928198 -0.110151
C39   C     C_R   0.987174 0.552669 0.074317 -0.108199
C40   C     C_R   0.009535 0.554436 0.928160 -0.109970
C41   C     C_R   0.992281 0.662546 0.038560 0.140770
C42   C     C_R   0.003496 0.663453 0.965173 0.139796
C43   C     C_R   0.492211 0.162534 0.038611 0.140867
C44   C     C_R   0.503428 0.163462 0.965223 0.139960
H1    H     H_    0.473955 0.055504 0.130331 0.139615
H2    H     H_    0.522680 0.059019 0.872301 0.136094
H3    H     H_    0.974018 0.555550 0.130290 0.139624
H4    H     H_    0.022739 0.558977 0.872261 0.136459
C45   C     C_2   0.242016 0.573594 0.916109 -0.101860
C46   C     C_2   0.758092 0.573057 0.083952 -0.101447
C47   C     C_2   0.742010 0.073580 0.916103 -0.102481
C48   C     C_2   0.258112 0.073030 0.083966 -0.101442
C49   C     C_2   0.247849 0.565804 0.071138 -0.046290
C50   C     C_2   0.752320 0.565546 0.929084 -0.044075
C51   C     C_2   0.747842 0.065785 0.071130 -0.046434
C52   C     C_2   0.252335 0.065515 0.929098 -0.045009
C53   C     C_2   0.278755 0.481784 0.027635 0.078556
C54   C     C_2   0.721512 0.481097 0.972232 0.082103
C55   C     C_2   0.778754 0.981767 0.027629 0.078409
C56   C     C_2   0.221528 0.981062 0.972246 0.081236
C57   C     C_2   0.288296 0.504535 0.950537 0.204634
C58   C     C_2   0.711869 0.503665 0.049367 0.201083
C59   C     C_2   0.788285 0.004505 0.950525 0.204987
C60   C     C_2   0.211897 0.003617 0.049387 0.202303
H5    H     H_    0.231226 0.652269 0.050603 0.092984
H6    H     H_    0.768708 0.652266 0.949921 0.091953
H7    H     H_    0.731210 0.152242 0.050592 0.092944
H8    H     H_    0.268730 0.152227 0.949938 0.092009
H9    H     H_    0.193297 0.601083 0.942140 0.061310
H10   H     H_    0.806785 0.600948 0.057987 0.061223
H11   H     H_    0.693294 0.101080 0.942136 0.061431
H12   H     H_    0.306802 0.100929 0.058002 0.061812
C61   C     C_2   0.509893 0.835063 0.583267 -0.102681
C62   C     C_2   0.511584 0.829948 0.427515 -0.077760
C63   C     C_2   0.008021 0.335564 0.582273 -0.089114
C64   C     C_2   0.009744 0.328908 0.426463 -0.062885
C65   C     C_2   0.528435 0.735844 0.469035 -0.124400
C66   C     C_2   0.521364 0.735185 0.545328 -0.123383
C67   C     C_2   0.035649 0.242948 0.469290 -0.127121
C68   C     C_2   0.019431 0.236780 0.543717 -0.087358
H13   H     H_    0.546999 0.651168 0.446526 0.181862
H14   H     H_    0.518333 0.646262 0.569433 0.197092
H15   H     H_    0.066951 0.168299 0.448744 0.183787
H16   H     H_    0.012496 0.146911 0.565561 0.215329
H17   H     H_    0.493210 0.915211 0.448734 0.078007
H18   H     H_    0.515866 0.924284 0.560828 0.081030
H19   H     H_    0.978731 0.404547 0.445880 0.120220
H20   H     H_    0.015742 0.424721 0.560207 0.081259
C69   C     C_2   0.245269 0.564112 0.584301 -0.001499
C70   C     C_2   0.718213 0.698662 0.436901 -0.018985
C71   C     C_2   0.744266 0.062977 0.585068 -0.004886
C72   C     C_2   0.246094 0.101430 0.423241 0.046207
C73   C     C_2   0.240916 0.579747 0.424456 0.223685
C74   C     C_2   0.747008 0.592398 0.580528 0.203882
C75   C     C_2   0.741532 0.078743 0.424511 0.224277
C76   C     C_2   0.257989 0.052047 0.572590 0.192127
C77   C     C_2   0.188848 0.550215 0.470784 -0.153210
C78   C     C_2   0.773342 0.697170 0.555159 -0.169671
C79   C     C_2   0.688814 0.052345 0.470717 -0.159552
C80   C     C_2   0.313066 0.052739 0.526733 -0.127389
C81   C     C_2   0.187992 0.584655 0.545026 0.094875
C82   C     C_2   0.771885 0.731987 0.479477 0.060518
C83   C     C_2   0.687937 0.086563 0.544919 0.092422
C84   C     C_2   0.304617 0.054299 0.449748 0.106079
H21   H     H_    0.141435 0.504728 0.452123 0.102321
H22   H     H_    0.807198 0.751306 0.589191 0.118477
H23   H     H_    0.640224 0.011127 0.451719 0.099315
H24   H     H_    0.367012 0.053173 0.546128 0.119473
H25   H     H_    0.288192 0.509901 0.562673 0.097196
H26   H     H_    0.669503 0.665550 0.459606 0.108637
H27   H     H_    0.786377 0.006360 0.564330 0.076639
H28   H     H_    0.205704 0.142336 0.456215 0.085010
N1    N     N_R   0.545786 0.622534 0.929146 0.120088
O53   O     O_R   0.582686 0.641209 0.871606 -0.351362
O54   O     O_R   0.555851 0.521452 0.961943 -0.235802
N2    N     N_R   0.456116 0.619814 0.069436 0.120355
O55   O     O_R   0.418642 0.636470 0.126861 -0.337130
O56   O     O_R   0.447717 0.518396 0.036044 -0.226391
N3    N     N_R   0.045791 0.122505 0.929132 0.119887
O57   O     O_R   0.082670 0.141148 0.871574 -0.344391
O58   O     O_R   0.055872 0.021445 0.961946 -0.235806
N4    N     N_R   0.956129 0.119827 0.069420 0.120389
O59   O     O_R   0.918647 0.136496 0.126838 -0.335929
O60   O     O_R   0.947726 0.018409 0.036029 -0.226399
N5    N     N_3   0.126818 0.645111 0.572960 -0.553736
H29   H     H_    0.083506 0.588150 0.566712 0.204313
H30   H     H_    0.117680 0.721402 0.541895 0.298674
N6    N     N_3   0.831983 0.795398 0.451415 -0.557795
H31   H     H_    0.876716 0.742655 0.460429 0.253287
H32   H     H_    0.837967 0.875649 0.480007 0.234274
N7    N     N_3   0.627571 0.150703 0.571794 -0.554916
H33   H     H_    0.582957 0.097210 0.563723 0.202758
H34   H     H_    0.621570 0.228808 0.541395 0.298359
N8    N     N_3   0.361010 0.015896 0.403908 -0.589678
H35   H     H_    0.370988 0.925206 0.414952 0.284328
H36   H     H_    0.405956 0.065996 0.416805 0.220858
N9    N     N_R   0.302958 0.648640 0.442288 0.054327
O61   O     O_R   0.298902 0.738904 0.486540 -0.328271
O62   O     O_R   0.359854 0.636583 0.403944 -0.328148
N10   N     N_R   0.706391 0.510596 0.537669 0.057898
O63   O     O_R   0.643184 0.479750 0.557945 -0.360339
O64   O     O_R   0.736799 0.451141 0.486275 -0.274019
N11   N     N_R   0.806888 0.137584 0.442921 0.056458
O65   O     O_R   0.862798 0.119150 0.403942 -0.314579
O66   O     O_R   0.807868 0.225338 0.489003 -0.290445
N12   N     N_R   0.187692 0.016348 0.551632 0.051272
O67   O     O_R   0.133767 0.056961 0.587313 -0.369206
O68   O     O_R   0.178760 0.924220 0.509484 -0.316281
N13   N     N_3   0.987800 0.773237 0.077476 -0.471067
H37   H     H_    0.941526 0.770737 0.107774 0.214184
H38   H     H_    0.029641 0.774684 0.113401 0.279749
N14   N     N_3   0.007452 0.775117 0.927612 -0.465605
H39   H     H_    0.054416 0.775220 0.898404 0.215368
H40   H     H_    0.966423 0.775552 0.890758 0.278977
N15   N     N_3   0.487734 0.273214 0.077539 -0.471283
H41   H     H_    0.441476 0.270687 0.107863 0.213946
H42   H     H_    0.529593 0.274672 0.113442 0.279805
N16   N     N_3   0.507394 0.275139 0.927677 -0.465805
H43   H     H_    0.554370 0.275256 0.898489 0.214961
H44   H     H_    0.466381 0.275582 0.890807 0.279050
N17   N     N_3   0.301955 0.368035 0.055533 -0.574515
H45   H     H_    0.317344 0.309609 0.014797 0.244841
H46   H     H_    0.347184 0.385389 0.085129 0.297057
N18   N     N_3   0.698840 0.366816 0.944021 -0.572398
H47   H     H_    0.683660 0.308317 0.984618 0.242294
H48   H     H_    0.653586 0.382945 0.914332 0.293870
N19   N     N_3   0.801970 0.868033 0.055533 -0.575356
H49   H     H_    0.817374 0.809610 0.014800 0.244918
H50   H     H_    0.847193 0.885410 0.085135 0.297060
N20   N     N_3   0.198845 0.866793 0.944030 -0.573426
H51   H     H_    0.183647 0.808302 0.984625 0.242473
H52   H     H_    0.153598 0.882943 0.914335 0.294138
N21   N     N_R   0.342184 0.441310 0.911512 0.083694
O69   O     O_R   0.324300 0.352793 0.869706 -0.368825
O70   O     O_R   0.404859 0.487820 0.905464 -0.241383
N22   N     N_R   0.658164 0.439773 0.088237 0.083717
O71   O     O_R   0.676347 0.352795 0.130604 -0.354575
O72   O     O_R   0.594998 0.484248 0.093310 -0.238672
N23   N     N_R   0.842159 0.941264 0.911489 0.083692
O73   O     O_R   0.824253 0.852819 0.869640 -0.372911
O74   O     O_R   0.904849 0.987725 0.905468 -0.241130
N24   N     N_R   0.158200 0.939722 0.088266 0.083438
O75   O     O_R   0.176405 0.852863 0.130709 -0.358592
O76   O     O_R   0.095021 0.984155 0.093299 -0.238477

loop_
_geom_bond_atom_site_label_1
_geom_bond_atom_site_label_2
_geom_bond_distance
_ccdc_geom_bond_type
C18   O42   1.263767 A    
Cr11  O51   1.989160 S    
C61   C66   1.332235 D    
O4    C12   1.256612 A    
O47   Cr11  1.954633 S    
C29   C30   1.414129 A    
C24   C72   1.401272 S    
C26   C30   1.416884 A    
O39   C19   1.272832 A    
O20   Cr12  2.078736 S    
C74   N10   1.436658 S    
N9    O61   1.301160 A    
C66   H14   1.087052 S    
C36   N4    1.450067 S    
C31   C32   1.414122 A    
C64   C67   1.344753 D    
C28   C32   1.416833 A    
C68   H16   1.085719 S    
C58   N22   1.436872 S    
Cr6   O50   1.988993 S    
C40   C42   1.396592 A    
C33   C34   1.415290 A    
C53   N17   1.437180 S    
O27   Cr3   2.073030 S    
N13   H37   1.043835 S    
N2    O55   1.302558 A    
C67   H15   1.087364 S    
C84   N8    1.434048 S    
C77   C81   1.446927 S    
C76   C80   1.350731 D    
N14   H40   1.044951 S    
O25   C21   1.265272 A    
N3    O58   1.295205 A    
O35   Cr7   2.077258 S    
C50   C54   1.368536 D    
C46   C58   1.335232 D    
O48   C24   1.262777 A    
O47   C23   1.272239 A    
C45   C57   1.336622 D    
C72   C84   1.327439 D    
C37   H1    1.081363 S    
N23   O73   1.300726 A    
C69   H25   1.088421 S    
C63   H20   1.081959 S    
O8    Cr4   1.959795 S    
C47   C59   1.336617 D    
C39   H3    1.081342 S    
O30   C14   1.270346 A    
O32   Cr4   1.945027 S    
C1    O9    1.278488 A    
O44   Cr12  2.046751 S    
O7    C3    1.263997 A    
C49   C53   1.367845 D    
C2    C51   1.469242 S    
C53   C57   1.483246 S    
C78   C82   1.476990 S    
C3    O11   1.278485 A    
O11   Cr7   2.055691 S    
C4    O12   1.279507 A    
O21   C9    1.277418 A    
C71   C83   1.338124 D    
N1    O54   1.295205 A    
C37   C43   1.395541 A    
C51   H7    1.082030 S    
C43   C44   1.396022 A    
C38   C44   1.396613 A    
N8    H35   1.044325 S    
C7    O19   1.283142 A    
C27   C36   1.409006 A    
C49   H5    1.082036 S    
Cr4   O52   1.971660 S    
C26   C33   1.409558 A    
C35   N3    1.449979 S    
C42   N14   1.428229 S    
O2    Cr2   2.062906 S    
C65   H13   1.086220 S    
C56   C60   1.482355 S    
C77   H21   1.088912 S    
C9    C45   1.454923 S    
O2    C10   1.256631 A    
O42   Cr10  2.046751 S    
Cr5   O49   1.985745 S    
O18   Cr10  2.078736 S    
C45   H9    1.086492 S    
N21   O69   1.300719 A    
O17   Cr9   2.075682 S    
N10   O63   1.300804 A    
N9    O62   1.301053 A    
N16   H43   1.043587 S    
C13   C76   1.430162 S    
N20   H52   1.042352 S    
O34   Cr6   2.070936 S    
Cr7   O51   1.985745 S    
N18   H47   1.042263 S    
C31   C39   1.410075 A    
C44   N16   1.428220 S    
O6    Cr2   1.959795 S    
N24   O76   1.298500 A    
C5    C26   1.485842 S    
N13   H38   1.045103 S    
C62   H17   1.081604 S    
O31   Cr3   1.951070 S    
O24   Cr12  1.929640 S    
O9    Cr5   2.055691 S    
O30   Cr2   1.945027 S    
C41   N13   1.428492 S    
O22   C10   1.277014 A    
O1    C9    1.258785 A    
N11   O65   1.301515 A    
O48   Cr12  1.958577 S    
C8    O20   1.282194 A    
C23   C71   1.447298 S    
C80   C84   1.458449 S    
C57   N21   1.436621 S    
C59   N23   1.436634 S    
N14   H39   1.043589 S    
C39   C41   1.395557 A    
O3    C11   1.258782 A    
C2    O10   1.279513 A    
C29   C37   1.410067 A    
N15   H41   1.043840 S    
C40   H4    1.081119 S    
O16   Cr8   1.952895 S    
O7    Cr3   1.953128 S    
N23   O74   1.298691 A    
Cr10  O50   1.986154 S    
O29   Cr1   1.951070 S    
O13   C5    1.283709 A    
O40   C20   1.278859 A    
O43   Cr11  2.047824 S    
C33   N1    1.449977 S    
O12   Cr8   2.058484 S    
N6    H32   1.043889 S    
C54   C58   1.482306 S    
O15   C7    1.283732 A    
N3    O57   1.302564 A    
O5    C1    1.264002 A    
C50   H6    1.082035 S    
O46   Cr10  1.958577 S    
O39   Cr7   1.934592 S    
C63   C68   1.328288 D    
C16   C73   1.440185 S    
O45   Cr9   1.954633 S    
C35   C36   1.415281 A    
C78   H22   1.087325 S    
C13   O33   1.268463 A    
C79   C83   1.445550 S    
O8    C4    1.266607 A    
C54   N18   1.437077 S    
N22   O72   1.298501 A    
N17   H45   1.042303 S    
C46   H10   1.086718 S    
O23   Cr11  1.931031 S    
C17   C61   1.439554 S    
C75   N11   1.442280 S    
N19   H50   1.042257 S    
O29   C13   1.253072 A    
Cr2   O50   1.971660 S    
O15   Cr7   1.958220 S    
C83   N7    1.436662 S    
C64   H19   1.085569 S    
Cr1   O49   1.971737 S    
C20   C64   1.439086 S    
C43   N15   1.428500 S    
Cr3   O51   1.971737 S    
O26   C22   1.297755 A    
N10   O64   1.300796 A    
O21   Cr9   1.931031 S    
N12   O67   1.299992 A    
O28   C24   1.254200 A    
N12   O68   1.301774 A    
C81   N5    1.436349 S    
N21   O70   1.298693 A    
C6    O18   1.282167 A    
N18   H48   1.042356 S    
O38   C18   1.279523 A    
C75   C79   1.353104 D    
C61   H18   1.081490 S    
C80   H24   1.087730 S    
C73   N9    1.441425 S    
N20   H51   1.042265 S    
C34   N2    1.450063 S    
C12   C48   1.453163 S    
C8    C27   1.485418 S    
C73   C77   1.353530 D    
C55   C59   1.483296 S    
C22   C70   1.459965 S    
C79   H23   1.088938 S    
O3    Cr3   2.068802 S    
O14   Cr6   1.952895 S    
O26   Cr2   2.080356 S    
C71   H27   1.086051 S    
C5    O17   1.283178 A    
N24   O75   1.300737 A    
N16   H44   1.044945 S    
O37   C17   1.274989 A    
O22   Cr10  1.929640 S    
N2    O56   1.295392 A    
C69   C81   1.337104 D    
O14   C6    1.283190 A    
C19   O43   1.269762 A    
O5    Cr1   1.953128 S    
C52   H8    1.082026 S    
Cr12  O52   1.986154 S    
O31   C15   1.266980 A    
C62   C65   1.344734 D    
C72   H28   1.081905 S    
O6    C2    1.266600 A    
C15   O35   1.271515 A    
O24   C12   1.277063 A    
C17   O41   1.269927 A    
C48   H12   1.086715 S    
C51   C55   1.367866 D    
C10   C46   1.453182 S    
C76   N12   1.445908 S    
C41   C42   1.396015 A    
C14   O34   1.262135 A    
C19   C63   1.437004 S    
O25   Cr1   2.073030 S    
O40   Cr8   1.936650 S    
C25   C34   1.408991 A    
C20   O44   1.263260 A    
O1    Cr1   2.068802 S    
N6    H31   1.045575 S    
C32   C40   1.410553 A    
O38   Cr6   1.936650 S    
N4    O59   1.302556 A    
C60   N24   1.436868 S    
Cr8   O52   1.988993 S    
O32   C16   1.272518 A    
O41   Cr9   2.047824 S    
C65   C66   1.441081 S    
O13   Cr5   1.958220 S    
C18   C62   1.442890 S    
O46   C22   1.311728 A    
C47   H11   1.086489 S    
O45   C21   1.270603 A    
C14   C75   1.439748 S    
O19   Cr11  2.075682 S    
N22   O71   1.300730 A    
N17   H46   1.042251 S    
C6    C25   1.485393 S    
O33   Cr5   2.077258 S    
O23   C11   1.277427 A    
N15   H42   1.045105 S    
O10   Cr6   2.058485 S    
C25   C29   1.415751 A    
N5    H29   1.041518 S    
C21   C69   1.447396 S    
O4    Cr4   2.062906 S    
C82   N6    1.436247 S    
C38   H2    1.081114 S    
C52   C56   1.368553 D    
C74   C78   1.350110 D    
C27   C31   1.415807 A    
N7    H33   1.043299 S    
O28   Cr4   2.080356 S    
C16   O36   1.260619 A    
C70   H26   1.079355 S    
C55   N19   1.437181 S    
C11   C47   1.454929 S    
C30   C38   1.410555 A    
N1    O53   1.302563 A    
C48   C60   1.335201 D    
N19   H49   1.042307 S    
N11   O66   1.300641 A    
C1    C52   1.468671 S    
O27   C23   1.263764 A    
C7    C28   1.485808 S    
C70   C82   1.348745 D    
N8    H36   1.045245 S    
C4    C49   1.469213 S    
N5    H30   1.044393 S    
O37   Cr5   1.934592 S    
O36   Cr8   2.070936 S    
C3    C50   1.468629 S    
N4    O60   1.295390 A    
C56   N20   1.437069 S    
O16   C8    1.283178 A    
Cr9   O49   1.989160 S    
C67   C68   1.433887 S    
C28   C35   1.409557 A    
N7    H34   1.045450 S    
C15   C74   1.456442 S    
