data_mof_unit_31725.cif
_audit_creation_date              2012-12-10T18:50:52-0500
_audit_creation_method            fapswitch 2.2
_symmetry_space_group_name_H-M    P1
_symmetry_Int_Tables_number       1
_space_group_crystal_system       triclinic
_cell_length_a                    10.704534
_cell_length_b                    9.827491
_cell_length_c                    15.740415
_cell_angle_alpha                 90.077174
_cell_angle_beta                  90.236339
_cell_angle_gamma                 89.976108
_cell_volume                      1655.85564785

loop_
_atom_site_label
_atom_site_type_symbol
_atom_type_description
_atom_site_fract_x
_atom_site_fract_y
_atom_site_fract_z
_atom_type_partial_charge
C1    C     C_R   0.259823 0.500012 0.499871 0.859787
C2    C     C_R   0.935772 0.618351 0.476330 -0.199897
C3    C     C_R   0.872511 0.499894 0.499527 -0.009094
C4    C     C_R   0.127418 0.499962 0.499604 -0.009187
C5    C     C_R   0.575476 0.072075 0.554423 -0.075607
C6    C     C_R   0.575491 0.928087 0.554411 -0.078298
C7    C     C_R   0.499917 0.499920 0.338243 0.913146
C8    C     C_R   0.424241 0.927922 0.445700 -0.073851
C9    C     C_R   0.424253 0.071910 0.445693 -0.073374
C10   C     C_R   0.740114 0.499976 0.499857 0.860168
C11   C     C_R   0.500287 0.500099 0.661747 0.912067
C12   C     C_3   0.634297 0.451781 0.949580 -0.439497
C13   C     C_3   0.480606 0.648461 0.049956 -0.478390
C14   C     C_3   0.406812 0.405420 0.050175 -0.471858
C15   C     C_3   0.400604 0.399953 0.951499 -0.083376
C16   C     C_3   0.464431 0.644911 0.952108 -0.064241
C17   C     C_1   0.500975 0.500317 0.750433 -0.211859
C18   C     C_3   0.513421 0.502471 0.083023 0.306662
C19   C     C_3   0.502364 0.499890 0.917074 0.263879
C20   C     C_3   0.402589 0.252420 0.913866 -0.409294
C21   C     C_3   0.304741 0.231825 0.843087 -0.355879
C22   C     C_3   0.315708 0.090749 0.803010 -0.874726
C23   C     C_3   0.647876 0.460370 0.048893 0.262401
C24   C     C_3   0.504651 0.776072 0.903677 -0.399937
C25   C     C_3   0.644176 0.809593 0.899735 -0.320406
C26   C     C_3   0.668049 0.929195 0.840125 -0.915304
C27   C     C_3   0.752551 0.570831 0.067752 -0.461033
C28   C     C_3   0.769504 0.621074 0.160168 -0.337938
C29   C     C_3   0.884655 0.711892 0.168467 -0.908519
C30   C     C_3   0.704180 0.323877 0.086733 -0.396762
C31   C     C_3   0.629849 0.190421 0.081340 -0.369092
C32   C     C_3   0.713942 0.067026 0.096591 -0.919372
C33   C     C_1   0.501296 0.500105 0.825644 -0.092892
C34   C     C_1   0.508488 0.501028 0.174385 -0.106397
C35   C     C_1   0.503719 0.499941 0.249551 -0.218835
C36   C     C_R   0.064138 0.381388 0.522529 -0.202585
C37   C     C_R   0.063776 0.618399 0.476397 -0.198354
C38   C     C_R   0.936166 0.381355 0.522493 -0.199760
H1    H     H_    0.361316 0.652143 0.942629 0.117828
H2    H     H_    0.653686 0.346940 0.927514 0.158893
H3    H     H_    0.113210 0.289612 0.541176 0.156088
H4    H     H_    0.112588 0.710168 0.457780 0.150866
H5    H     H_    0.887396 0.289567 0.541130 0.151719
H6    H     H_    0.886664 0.710087 0.457654 0.155757
H7    H     H_    0.635814 0.126780 0.597910 0.124774
H8    H     H_    0.635853 0.873501 0.597873 0.126099
H9    H     H_    0.409322 0.077221 0.773967 0.267912
H10   H     H_    0.300826 0.010693 0.851644 0.249070
H11   H     H_    0.243742 0.079042 0.752528 0.249886
H12   H     H_    0.307054 0.441556 0.933996 0.139096
H13   H     H_    0.209453 0.243430 0.869996 0.210165
H14   H     H_    0.316572 0.309260 0.792550 0.233844
H15   H     H_    0.495262 0.227267 0.887313 0.205907
H16   H     H_    0.381867 0.176247 0.963949 0.197222
H17   H     H_    0.636660 0.904250 0.774559 0.261355
H18   H     H_    0.617761 0.021061 0.862751 0.259726
H19   H     H_    0.769583 0.952134 0.838746 0.247689
H20   H     H_    0.677633 0.840510 0.963494 0.214793
H21   H     H_    0.698000 0.721566 0.875949 0.222811
H22   H     H_    0.467298 0.770101 0.837718 0.213847
H23   H     H_    0.363703 0.873196 0.402356 0.122637
H24   H     H_    0.456701 0.864199 0.933820 0.193539
H25   H     H_    0.970419 0.653873 0.152272 0.259112
H26   H     H_    0.876331 0.801238 0.125640 0.263553
H27   H     H_    0.893262 0.748938 0.234931 0.254145
H28   H     H_    0.687878 0.682629 0.180008 0.230128
H29   H     H_    0.780692 0.535246 0.205063 0.220898
H30   H     H_    0.844071 0.530301 0.045814 0.194581
H31   H     H_    0.738502 0.661088 0.028032 0.198460
H32   H     H_    0.783866 0.057534 0.044955 0.260461
H33   H     H_    0.763148 0.076383 0.158608 0.270331
H34   H     H_    0.363742 0.126500 0.402334 0.126274
H35   H     H_    0.656304 0.973112 0.097650 0.248609
H36   H     H_    0.558360 0.188698 0.132101 0.225803
H37   H     H_    0.586323 0.178079 0.018334 0.227894
H38   H     H_    0.795194 0.305587 0.054658 0.198351
H39   H     H_    0.726413 0.337953 0.154988 0.199866
H40   H     H_    0.391577 0.683425 0.079307 0.158420
H41   H     H_    0.315689 0.445515 0.073468 0.158366
H42   H     H_    0.410924 0.303471 0.078612 0.166746
H43   H     H_    0.550306 0.725652 0.069302 0.182086
H44   H     H_    0.708463 0.510401 0.917101 0.140583
N1    N     N_R   0.499970 0.857200 0.499980 -0.077428
N2    N     N_R   0.499970 0.142800 0.499980 -0.077512
O1    O     O_R   0.316750 0.614620 0.499990 -0.626851
O2    O     O_R   0.316750 0.385380 0.499990 -0.627867
O3    O     O_R   0.499990 0.614720 0.377140 -0.617495
O4    O     O_R   0.499990 0.385280 0.377140 -0.613866
O5    O     O_R   0.683220 0.614710 0.500000 -0.627012
O6    O     O_R   0.683220 0.385290 0.500000 -0.626862
O7    O     O_R   0.499980 0.614620 0.622860 -0.614923
O8    O     O_R   0.499980 0.385380 0.622860 -0.615022
Zn1   Zn    Zn3+2 0.499980 0.653120 0.500000 0.942520
Zn2   Zn    Zn3+2 0.499980 0.346880 0.500000 0.943631

loop_
_geom_bond_atom_site_label_1
_geom_bond_atom_site_label_2
_ccdc_geom_bond_type
C22   H10   S    
C29   H25   S    
C8    N1    A    
C14   C18   S    
C9    H34   S    
C26   H17   S    
C4    C36   A    
C15   C19   S    
C12   C23   S    
C13   C18   S    
C28   C29   S    
C30   C31   S    
N1    Zn1   S    
C13   H43   S    
C34   C35   T    
C15   H12   S    
C37   H4    S    
C27   H30   S    
O2    Zn2   S    
C30   H39   S    
O1    Zn1   S    
C11   O8    A    
C7    O3    A    
C7    O4    A    
C3    C38   A    
C2    H6    S    
C8    C9    A    
C23   C27   S    
C27   H31   S    
C8    H23   S    
C22   H9    S    
C29   H26   S    
C16   C24   S    
C21   C22   S    
C36   H3    S    
C17   C33   T    
O6    Zn2   S    
C32   H33   S    
C1    O1    A    
C15   C20   S    
O4    Zn2   S    
C18   C23   S    
C23   C30   S    
C28   H29   S    
C24   C25   S    
C10   O5    A    
C20   H16   S    
C19   C33   S    
C32   H35   S    
C5    N2    A    
C31   H36   S    
C32   H32   S    
C16   H1    S    
C25   C26   S    
C5    H7    S    
C12   H2    S    
C28   H28   S    
O7    Zn1   S    
C30   H38   S    
C31   H37   S    
C31   C32   S    
C24   H22   S    
O8    Zn2   S    
C12   H44   S    
N2    Zn2   S    
C14   H41   S    
C4    C37   A    
C18   C34   S    
C22   H11   S    
C29   H27   S    
C14   H42   S    
C25   H20   S    
C21   H13   S    
C1    O2    A    
C13   H40   S    
C11   C17   S    
C24   H24   S    
C6    N1    A    
C6    H8    S    
C7    C35   S    
C20   H15   S    
C26   H18   S    
C1    C4    S    
C36   C38   A    
C2    C3    A    
C38   H5    S    
C3    C10   S    
C2    C37   A    
C5    C6    A    
C16   C19   S    
O3    Zn1   S    
C12   C19   S    
O5    Zn1   S    
C26   H19   S    
C9    N2    A    
C11   O7    A    
C20   C21   S    
C10   O6    A    
C13   C16   S    
C27   C28   S    
C14   C15   S    
C25   H21   S    
C21   H14   S    
