data_mof_unit_67230.cif
_audit_creation_date              2013-03-05T16:01:26-0500
_audit_creation_method            fapswitch 2.2
_symmetry_space_group_name_H-M    P1
_symmetry_Int_Tables_number       1
_space_group_crystal_system       triclinic
_cell_length_a                    20.014889
_cell_length_b                    20.410627
_cell_length_c                    8.554421
_cell_angle_alpha                 90.040254
_cell_angle_beta                  91.920139
_cell_angle_gamma                 90.090541
_cell_volume                      3492.65397307

loop_
_atom_site_label
_atom_site_type_symbol
_atom_site_description
_atom_site_fract_x
_atom_site_fract_y
_atom_site_fract_z
_atom_type_partial_charge
P1    P     P_3+3 0.136530 0.426510 0.931350 0.778850
P2    P     P_3+3 0.136530 0.573490 0.431350 0.787317
P3    P     P_3+3 0.636530 0.926510 0.931350 0.779959
P4    P     P_3+3 0.636530 0.073490 0.431350 0.782897
O1    O     O_2   0.130070 0.404060 0.104920 -0.248336
O2    O     O_2   0.130070 0.595940 0.604920 -0.242329
O3    O     O_2   0.630070 0.904060 0.104920 -0.248862
O4    O     O_2   0.630070 0.095940 0.604920 -0.247716
O5    O     O_3   0.075780 0.466370 0.861070 -0.224722
O6    O     O_3   0.075780 0.533630 0.361070 -0.225952
O7    O     O_3   0.575780 0.966370 0.861070 -0.229226
O8    O     O_3   0.575780 0.033630 0.361070 -0.229132
O9    O     O_3   0.022320 0.344950 0.359800 -0.264335
O10   O     O_3   0.022320 0.655050 0.859800 -0.252284
O11   O     O_3   0.522320 0.844950 0.359800 -0.266240
O12   O     O_3   0.522320 0.155050 0.859800 -0.263367
O13   O     O_2   0.135810 0.295942 0.258254 -0.374264
O14   O     O_2   0.134961 0.705158 0.757231 -0.364993
O15   O     O_2   0.633922 0.794111 0.253628 -0.366813
O16   O     O_2   0.635776 0.204218 0.756332 -0.365273
O17   O     O_3   0.210064 0.473785 0.939313 -0.578451
O18   O     O_3   0.209928 0.526491 0.437197 -0.573558
O19   O     O_3   0.710037 0.973895 0.935915 -0.568895
O20   O     O_3   0.710362 0.026969 0.434729 -0.569135
O21   O     O_3   0.048576 0.208233 0.336477 -0.603396
O22   O     O_3   0.046717 0.791751 0.836451 -0.627428
O23   O     O_3   0.546443 0.707681 0.340739 -0.592132
O24   O     O_3   0.549361 0.291844 0.838985 -0.609508
C1    C     C_3   0.971336 0.125088 0.417482 0.380194
C2    C     C_3   0.955670 0.866213 0.882599 0.343975
C3    C     C_3   0.468387 0.625542 0.428997 0.364984
C4    C     C_3   0.473966 0.374008 0.931767 0.358178
P5    P     P_3+3 0.863410 0.426100 0.379280 0.721639
P6    P     P_3+3 0.863410 0.573900 0.879280 0.711418
P7    P     P_3+3 0.363410 0.926100 0.379280 0.722012
P8    P     P_3+3 0.363410 0.073900 0.879280 0.715490
P9    P     P_3+3 0.917322 0.284418 0.927323 0.607960
P10   P     P_3+3 0.916718 0.715024 0.428168 0.621925
P11   P     P_3+3 0.416458 0.785040 0.928300 0.608311
P12   P     P_3+3 0.416919 0.215090 0.428578 0.611852
O25   O     O_2   0.869860 0.403670 0.205810 -0.288670
O26   O     O_2   0.869860 0.596330 0.705810 -0.286628
O27   O     O_2   0.369860 0.903670 0.205810 -0.293257
O28   O     O_2   0.369860 0.096330 0.705810 -0.293320
O29   O     O_3   0.977590 0.344880 0.951200 -0.309631
O30   O     O_3   0.977590 0.655120 0.451200 -0.308120
O31   O     O_3   0.477590 0.844880 0.951200 -0.309834
O32   O     O_3   0.477590 0.155120 0.451200 -0.302849
O33   O     O_2   0.867171 0.293781 0.059100 -0.305471
O34   O     O_2   0.865926 0.703953 0.557593 -0.298208
O35   O     O_2   0.365546 0.796675 0.057260 -0.324378
O36   O     O_2   0.364962 0.202175 0.554585 -0.324585
O37   O     O_3   0.787789 0.469323 0.381554 -0.607861
O38   O     O_3   0.788215 0.529355 0.876333 -0.628873
O39   O     O_3   0.288937 0.971224 0.377871 -0.591212
O40   O     O_3   0.288397 0.029080 0.876717 -0.614574
O41   O     O_3   0.955402 0.208757 0.968623 -0.560452
O42   O     O_3   0.953290 0.790855 0.475588 -0.507434
O43   O     O_3   0.452417 0.709207 0.977495 -0.517703
O44   O     O_3   0.452731 0.290386 0.484193 -0.488427
C5    C     C_3   0.023420 0.211519 0.931068 0.191618
C6    C     C_3   0.020648 0.791477 0.432563 0.244127
C7    C     C_3   0.521177 0.711091 0.948270 0.216375
C8    C     C_3   0.520134 0.291542 0.442319 0.215081
H1    H     H_    0.052334 0.232931 0.031748 0.083774
H2    H     H_    0.052821 0.772912 0.530952 0.103348
H3    H     H_    0.547833 0.740680 0.039644 0.061300
H4    H     H_    0.550481 0.259985 0.523091 0.048633
H5    H     H_    0.032350 0.243290 0.828612 0.120397
H6    H     H_    0.029826 0.760492 0.328862 0.076176
H7    H     H_    0.530951 0.733300 0.833234 0.095745
H8    H     H_    0.526183 0.273799 0.321360 0.089079
C9    C     C_3   0.048755 0.142188 0.894093 0.400036
C10   C     C_3   0.041006 0.861638 0.392614 0.411046
C11   C     C_3   0.549394 0.641383 0.951155 0.497936
C12   C     C_3   0.546436 0.361828 0.454182 0.441918
H9    H     H_    0.009163 0.104997 0.913775 0.089155
H10   H     H_    0.006914 0.880022 0.297455 0.087026
H11   H     H_    0.552147 0.622766 0.073081 0.105253
H12   H     H_    0.550396 0.376148 0.579224 0.120755
C13   C     C_3   0.794939 0.466623 0.814345 1.504758
C14   C     C_3   0.792100 0.531906 0.318178 1.427432
C15   C     C_3   0.295605 0.966408 0.814834 1.509305
C16   C     C_3   0.297565 0.034271 0.319821 1.492884
C17   C     C_3   0.724523 0.438315 0.787227 0.245680
C18   C     C_3   0.720811 0.559873 0.309993 0.340224
C19   C     C_3   0.225553 0.937169 0.789207 0.239638
C20   C     C_3   0.229149 0.067411 0.312207 0.279705
H13   H     H_    0.699464 0.434872 0.901199 0.170089
H14   H     H_    0.702649 0.565139 0.430713 0.182435
H15   H     H_    0.200181 0.935124 0.902963 0.147061
H16   H     H_    0.208431 0.068460 0.431310 0.189560
Ba1   Ba    Ba6+2 0.999980 0.452130 0.155200 1.958487
Ba2   Ba    Ba6+2 0.999980 0.547870 0.655200 1.965693
Ba3   Ba    Ba6+2 0.499980 0.952130 0.155200 1.962987
Ba4   Ba    Ba6+2 0.499980 0.047870 0.655200 1.958167
C21   C     C_3   0.200367 0.536883 0.998016 1.478510
C22   C     C_3   0.201170 0.464286 0.501271 1.438632
C23   C     C_3   0.701985 0.036408 0.999651 1.478483
C24   C     C_3   0.703239 0.964487 0.499152 1.458933
C25   C     C_3   0.267598 0.564698 0.060363 0.849477
C26   C     C_3   0.269412 0.438684 0.563212 0.861363
C27   C     C_3   0.769293 0.059145 0.071972 0.871653
C28   C     C_3   0.771280 0.942596 0.568924 0.900504
O45   O     O_3   0.924190 0.533610 0.949240 -0.214978
O46   O     O_3   0.924190 0.466390 0.449240 -0.209273
O47   O     O_3   0.424190 0.033610 0.949240 -0.215227
O48   O     O_3   0.424190 0.966390 0.449240 -0.212714
P13   P     P_3+3 0.083322 0.716010 0.885307 0.651266
P14   P     P_3+3 0.083926 0.284630 0.385546 0.665119
P15   P     P_3+3 0.584412 0.215094 0.884914 0.661738
P16   P     P_3+3 0.583393 0.784141 0.384565 0.671514
C29   C     C_3   0.987445 0.199088 0.411872 1.534416
C30   C     C_3   0.984609 0.797317 0.908725 1.524102
C31   C     C_3   0.486697 0.699412 0.422699 1.477329
C32   C     C_3   0.487769 0.300209 0.912919 1.488374
C33   C     C_R   0.245960 0.306708 0.997320 0.886045
C34   C     C_R   0.245787 0.693425 0.495921 0.891671
C35   C     C_R   0.746737 0.807462 0.995587 0.903287
C36   C     C_R   0.745829 0.193341 0.496817 0.897038
C37   C     C_R   0.150726 0.347200 0.823462 0.090543
C38   C     C_R   0.150317 0.653025 0.322953 0.099167
C39   C     C_R   0.651162 0.847378 0.822221 0.083250
C40   C     C_R   0.650056 0.153263 0.324122 0.094776
C41   C     C_R   0.112490 0.337513 0.684455 0.421398
C42   C     C_R   0.111340 0.663310 0.185132 0.430436
C43   C     C_R   0.612530 0.837131 0.683905 0.431560
C44   C     C_R   0.611527 0.163335 0.185733 0.431847
C45   C     C_R   0.125866 0.286111 0.582723 0.017090
C46   C     C_R   0.125338 0.714349 0.082311 -0.009232
C47   C     C_R   0.627377 0.786973 0.579452 0.013503
C48   C     C_R   0.626664 0.213407 0.081418 0.016304
C49   C     C_R   0.171652 0.237595 0.629101 0.679552
C50   C     C_R   0.172453 0.762077 0.126650 0.668274
C51   C     C_R   0.675979 0.740476 0.621412 0.608323
C52   C     C_R   0.674472 0.260643 0.124568 0.571009
C53   C     C_R   0.209823 0.243487 0.770006 -0.203735
C54   C     C_R   0.210389 0.756246 0.267844 -0.141538
C55   C     C_R   0.713570 0.746128 0.763225 -0.190925
C56   C     C_R   0.711433 0.255537 0.267218 -0.206027
C57   C     C_R   0.201914 0.299884 0.865589 -0.330450
C58   C     C_R   0.201940 0.700113 0.364043 -0.345627
C59   C     C_R   0.703569 0.801081 0.862238 -0.326810
C60   C     C_R   0.701969 0.200135 0.365041 -0.314478
C61   C     C_R   0.802109 0.702172 0.942934 -0.196071
C62   C     C_R   0.801187 0.298759 0.444761 -0.175264
C63   C     C_R   0.300484 0.200896 0.945786 -0.182319
C64   C     C_R   0.300462 0.799214 0.444870 -0.195751
C65   C     C_R   0.792478 0.757327 0.041633 -0.114028
C66   C     C_R   0.791973 0.243284 0.542365 -0.137174
C67   C     C_R   0.291965 0.256720 0.042776 -0.121989
C68   C     C_R   0.291264 0.743765 0.542309 -0.124569
C69   C     C_R   0.851127 0.653326 0.987844 0.079480
C70   C     C_R   0.851411 0.346776 0.487850 0.082766
C71   C     C_R   0.350899 0.153121 0.988245 0.080467
C72   C     C_R   0.350772 0.847062 0.488126 0.086480
C73   C     C_R   0.886846 0.660779 0.131013 0.572999
C74   C     C_R   0.887842 0.338924 0.629990 0.570560
C75   C     C_R   0.388097 0.161494 0.129285 0.588707
C76   C     C_R   0.387706 0.838778 0.629524 0.582612
C77   C     C_R   0.874124 0.712750 0.232282 0.013749
C78   C     C_R   0.874492 0.287341 0.731819 0.047579
C79   C     C_R   0.375456 0.213379 0.230877 0.038340
C80   C     C_R   0.374046 0.787457 0.731840 0.050299
C81   C     C_R   0.827422 0.761027 0.188164 -0.142040
C82   C     C_R   0.827774 0.239067 0.687437 -0.146891
C83   C     C_R   0.328106 0.261048 0.187593 -0.153437
C84   C     C_R   0.326085 0.740145 0.688628 -0.171108
C85   C     C_R   0.761693 0.697670 0.804796 0.058477
C86   C     C_R   0.759678 0.304017 0.308623 0.052988
C87   C     C_R   0.257906 0.194916 0.811415 0.074126
C88   C     C_R   0.258589 0.804785 0.309386 0.143233
H17   H     H_    0.765890 0.655550 0.729626 0.199387
H18   H     H_    0.764018 0.346118 0.233479 0.203920
H19   H     H_    0.261708 0.152381 0.737227 0.196180
H20   H     H_    0.262670 0.847163 0.234964 0.198800
F1    F     F_    0.936855 0.231638 0.329597 -0.740592
F2    F     F_    0.939474 0.752792 0.843602 -0.678582
F3    F     F_    0.435516 0.733817 0.347229 -0.744746
F4    F     F_    0.437046 0.271255 0.823030 -0.735823
F5    F     F_    0.687402 0.479862 0.690383 -0.648608
F6    F     F_    0.678508 0.516794 0.229669 -0.630085
F7    F     F_    0.188308 0.976939 0.688296 -0.637349
F8    F     F_    0.186062 0.031530 0.215208 -0.645358
N1    N     N_3   0.726985 0.373712 0.715027 -0.230379
H21   H     H_    0.677843 0.357293 0.696584 0.174668
H22   H     H_    0.749263 0.341510 0.795799 0.132826
N2    N     N_3   0.717593 0.623477 0.232984 -0.168824
H23   H     H_    0.751672 0.655104 0.289058 0.115002
H24   H     H_    0.731880 0.617305 0.117817 0.102593
N3    N     N_3   0.229094 0.871590 0.722617 -0.215295
H25   H     H_    0.180324 0.854503 0.702557 0.190560
H26   H     H_    0.250678 0.840747 0.807378 0.124919
N4    N     N_3   0.234550 0.133921 0.252196 -0.238630
H27   H     H_    0.260906 0.161620 0.336330 0.116489
H28   H     H_    0.186702 0.154167 0.245124 0.205266
F9    F     F_    0.156447 0.535616 0.117187 -0.689496
F10   F     F_    0.158380 0.466824 0.622407 -0.677128
F11   F     F_    0.655607 0.035693 0.113903 -0.688651
F12   F     F_    0.657655 0.964841 0.615182 -0.690348
F13   F     F_    0.175357 0.576858 0.880838 -0.666173
F14   F     F_    0.175500 0.422314 0.388273 -0.684122
F15   F     F_    0.681719 0.079511 0.883830 -0.679308
F16   F     F_    0.682548 0.921024 0.384093 -0.678131
F17   F     F_    0.285813 0.534885 0.199107 -0.738461
F18   F     F_    0.288448 0.472745 0.696269 -0.710279
F19   F     F_    0.788015 0.017221 0.191425 -0.719546
F20   F     F_    0.788335 0.981840 0.695026 -0.711178
F21   F     F_    0.260982 0.630883 0.088702 -0.745076
F22   F     F_    0.264153 0.373272 0.601567 -0.740803
F23   F     F_    0.762978 0.121519 0.131794 -0.737987
F24   F     F_    0.767115 0.878475 0.619149 -0.722325
N5    N     N_3   0.320538 0.554424 0.949739 -0.187029
H29   H     H_    0.333018 0.504760 0.951312 0.149043
H30   H     H_    0.363377 0.578192 0.994299 0.153655
N6    N     N_3   0.321708 0.446309 0.449540 -0.196120
H31   H     H_    0.337116 0.495241 0.448738 0.158184
H32   H     H_    0.302254 0.435018 0.338060 0.164816
N7    N     N_3   0.821412 0.059658 0.957099 -0.196823
H33   H     H_    0.838060 0.011846 0.942619 0.146085
H34   H     H_    0.862606 0.084391 0.007083 0.121128
N8    N     N_3   0.823523 0.947620 0.454625 -0.199212
H35   H     H_    0.836739 0.996929 0.444885 0.144982
H36   H     H_    0.866266 0.924723 0.501821 0.185384
F25   F     F_    0.990519 0.222767 0.563743 -0.766536
F26   F     F_    0.991672 0.786134 0.067897 -0.848453
F27   F     F_    0.493890 0.722402 0.574447 -0.788446
F28   F     F_    0.488525 0.272479 0.060452 -0.792295
N9    N     N_3   0.922580 0.112581 0.537860 -0.178390
H37   H     H_    0.921885 0.062377 0.561819 0.158614
H38   H     H_    0.874983 0.125303 0.494049 0.138407
N10   N     N_3   0.006342 0.916686 0.917236 -0.194295
H39   H     H_    0.984084 0.962750 0.903308 0.126193
H40   H     H_    0.023201 0.912904 0.033830 0.120653
N11   N     N_3   0.429253 0.612185 0.567046 -0.136496
H41   H     H_    0.426229 0.561455 0.582478 0.193870
H42   H     H_    0.380488 0.628840 0.545766 0.125930
N12   N     N_3   0.416649 0.383830 0.031416 -0.171883
H43   H     H_    0.414643 0.433262 0.062900 0.179734
H44   H     H_    0.372511 0.372963 0.967900 0.124981
N13   N     N_3   0.944693 0.102277 0.265455 -0.205535
H45   H     H_    0.982016 0.107204 0.184131 0.110178
H46   H     H_    0.934941 0.052039 0.273430 0.126286
N14   N     N_3   0.897463 0.874587 0.980253 -0.183703
H47   H     H_    0.864741 0.908054 0.926841 0.224448
H48   H     H_    0.912014 0.893333 0.089998 0.064878
N15   N     N_3   0.429559 0.605646 0.288561 -0.194094
H49   H     H_    0.456856 0.616075 0.190337 0.157822
H50   H     H_    0.423726 0.554727 0.290720 0.183264
N16   N     N_3   0.462095 0.405231 0.779000 -0.193850
H51   H     H_    0.455264 0.455485 0.796293 0.191686
H52   H     H_    0.417872 0.387174 0.726313 0.161466
F29   F     F_    0.065019 0.138427 0.738652 -0.588159
F30   F     F_    0.105747 0.862478 0.340541 -0.679909
F31   F     F_    0.508361 0.600422 0.861558 -0.627774
F32   F     F_    0.502639 0.404201 0.376397 -0.595303
F33   F     F_    0.063773 0.380617 0.642645 -0.582573
F34   F     F_    0.061554 0.620916 0.145190 -0.587148
F35   F     F_    0.562365 0.879004 0.644846 -0.582719
F36   F     F_    0.561619 0.121124 0.145834 -0.581879
F37   F     F_    0.178630 0.184373 0.536803 -0.686095
F38   F     F_    0.181380 0.814191 0.031427 -0.709839
F39   F     F_    0.686566 0.689615 0.523485 -0.693493
F40   F     F_    0.684995 0.311618 0.026853 -0.703868
N17   N     N_3   0.813066 0.812611 0.295457 -0.104825
H53   H     H_    0.795781 0.792309 0.398658 0.210163
H54   H     H_    0.857158 0.838580 0.318869 0.167414
N18   N     N_3   0.815085 0.186300 0.792268 -0.110243
H55   H     H_    0.798837 0.205101 0.898053 0.201644
H56   H     H_    0.859811 0.160896 0.810222 0.172443
N19   N     N_3   0.313218 0.311715 0.296236 -0.125462
H57   H     H_    0.294830 0.290334 0.397032 0.202099
H58   H     H_    0.357546 0.336739 0.323837 0.201508
N20   N     N_3   0.309161 0.690535 0.798226 -0.108149
H59   H     H_    0.291515 0.713343 0.897972 0.210957
H60   H     H_    0.352518 0.664380 0.826519 0.192859
F41   F     F_    0.930833 0.613992 0.178767 -0.593558
F42   F     F_    0.933325 0.384782 0.675989 -0.593912
F43   F     F_    0.432957 0.115320 0.175645 -0.592127
F44   F     F_    0.433366 0.884476 0.675300 -0.592801
F45   F     F_    0.248077 0.363769 0.077442 -0.676889
F46   F     F_    0.248203 0.636295 0.575576 -0.661052
F47   F     F_    0.747857 0.864062 0.077525 -0.655560
F48   F     F_    0.747424 0.136409 0.577142 -0.656943
F49   F     F_    0.029537 0.090854 0.455443 -0.598209
F50   F     F_    0.934988 0.871820 0.727277 -0.644998
F51   F     F_    0.526877 0.589041 0.440247 -0.584923
F52   F     F_    0.529830 0.402581 0.004088 -0.594508
N21   N     N_3   0.107979 0.126575 0.990703 -0.225139
H61   H     H_    0.127418 0.082366 0.950442 0.225755
H62   H     H_    0.092525 0.117638 0.104168 0.131419
N22   N     N_3   0.036186 0.904566 0.528184 -0.150068
H63   H     H_    0.073232 0.891203 0.611070 0.185957
H64   H     H_    0.047378 0.952254 0.492751 0.219723
N23   N     N_3   0.616236 0.640764 0.889392 -0.186605
H65   H     H_    0.633632 0.592475 0.892579 0.229466
H66   H     H_    0.647055 0.667372 0.967298 0.004968
N24   N     N_3   0.612443 0.366640 0.387844 -0.273794
H67   H     H_    0.606489 0.365408 0.266001 0.218551
H68   H     H_    0.632085 0.412805 0.416176 0.232758
F53   F     F_    0.826385 0.469869 0.675411 -0.706829
F54   F     F_    0.816724 0.528191 0.171319 -0.720882
F55   F     F_    0.326346 0.969943 0.675011 -0.709089
F56   F     F_    0.322003 0.030761 0.173024 -0.709908
F57   F     F_    0.831215 0.427365 0.917129 -0.705157
F58   F     F_    0.832966 0.571254 0.411586 -0.704372
F59   F     F_    0.332837 0.927704 0.916944 -0.705682
F60   F     F_    0.340957 0.069781 0.415755 -0.702804

loop_
_geom_bond_atom_site_label_1
_geom_bond_atom_site_label_2
_geom_bond_distance
_ccdc_geom_bond_type
C35   C65   1.421182 A    
O10   P13   1.750257 S    
C23   C27   1.534506 S    
C49   C53   1.410264 A    
C19   H15   1.113407 S    
C35   C59   1.413544 A    
C29   F1    1.384566 S    
P6    O26   1.562666 D    
C52   C56   1.409661 A    
C51   C55   1.410473 A    
C32   F28   1.383160 S    
C44   F36   1.352993 S    
C34   F46   1.351081 S    
N16   H52   1.046139 S    
N19   H57   1.044353 S    
C24   C28   1.535684 S    
N14   H47   1.042156 S    
C6    H6    1.109568 S    
N20   H59   1.043879 S    
C28   N8    1.458829 S    
O24   C32   1.414781 S    
P4    Ba4   3.428903 S    
C25   N5    1.459402 S    
O2    Ba2   2.827481 S    
C36   C60   1.412394 A    
P2    O18   1.755113 S    
P4    O8    1.564915 S    
C63   C71   1.442231 A    
Ba4   O48   2.824857 S    
C46   C50   1.398112 A    
P3    C39   1.893038 S    
N5    H30   1.045142 S    
O24   P15   1.756815 S    
N12   H44   1.044923 S    
C42   F34   1.353679 S    
N3    H25   1.044748 S    
P6    Ba2   3.432582 S    
C80   C84   1.401206 A    
C18   H14   1.111428 S    
C35   F47   1.350609 S    
C22   C26   1.540623 S    
O37   C14   1.391672 S    
O22   C30   1.411480 S    
C31   F27   1.382909 S    
N9    H37   1.045295 S    
O16   P15   1.546672 D    
O17   C21   1.398164 S    
C29   F25   1.385242 S    
C62   C70   1.441676 A    
C72   C76   1.406722 A    
N10   H40   1.045112 S    
C4    C32   1.541151 S    
C10   F30   1.384341 S    
C45   C49   1.398868 A    
N18   H56   1.042211 S    
P6    O38   1.756553 S    
C32   F4    1.384322 S    
P8    O28   1.562666 D    
N24   H67   1.045388 S    
P9    O29   1.731502 S    
O40   C15   1.393578 S    
P11   O31   1.733813 S    
C86   H18   1.078633 S    
P6    C69   1.888243 S    
P12   O32   1.731924 S    
C1    C29   1.545022 S    
O32   Ba4   2.827396 S    
O20   C24   1.398590 S    
P5    O46   1.568967 S    
C16   C20   1.527698 S    
C13   F53   1.364975 S    
O41   C5    1.410266 S    
C15   F55   1.365188 S    
O43   C7    1.407445 S    
O44   C8    1.407525 S    
N22   H64   1.045808 S    
C67   C83   1.416094 A    
C55   C85   1.418793 A    
P16   C47   1.859847 S    
C43   C47   1.397236 A    
P3    O7    1.567353 S    
Ba3   O48   2.994795 S    
C73   F41   1.353896 S    
C5    H1    1.110382 S    
P1    Ba1   3.429813 S    
C70   C74   1.406079 A    
C9    H9    1.113438 S    
P3    Ba3   3.429813 S    
P11   C80   1.857986 S    
C11   H11   1.109988 S    
O38   C13   1.393950 S    
P9    O41   1.754139 S    
O12   P15   1.751986 S    
P9    C78   1.854624 S    
O23   C31   1.416229 S    
P11   O35   1.545147 D    
O18   C22   1.396367 S    
C75   F43   1.353133 S    
C63   C67   1.422840 A    
C76   F44   1.353261 S    
O14   P13   1.547247 D    
O29   Ba1   2.824400 S    
C13   F57   1.379254 S    
N23   H66   1.044245 S    
C49   F37   1.352631 S    
C8    H4    1.111290 S    
N6    H32   1.043408 S    
C11   F31   1.384056 S    
C19   F7    1.385485 S    
N1    H22   1.043622 S    
C66   C82   1.414812 A    
P4    C40   1.892911 S    
P14   C45   1.858923 S    
N2    H24   1.042619 S    
N13   H45   1.042502 S    
C16   F56   1.364717 S    
C55   C59   1.423469 A    
C30   F2    1.383942 S    
O8    Ba3   2.824737 S    
P7    O27   1.562175 D    
C84   N20   1.428497 S    
C62   C66   1.422744 A    
C33   F45   1.350827 S    
C3    C31   1.552460 S    
C17   N1    1.457284 S    
O12   Ba4   2.826301 S    
C6    H2    1.109739 S    
C71   C75   1.406525 A    
C21   F9    1.368463 S    
P2    Ba2   3.428903 S    
C65   C81   1.416706 A    
C27   F23   1.379331 S    
C25   F21   1.379647 S    
C3    N11   1.464303 S    
N8    H36   1.044837 S    
C37   C41   1.406054 A    
O28   Ba4   2.833979 S    
C41   C45   1.394610 A    
Ba1   O46   2.994795 S    
C26   F18   1.375887 S    
C39   C43   1.406922 A    
O30   Ba2   2.827396 S    
C48   C52   1.397949 A    
N21   H61   1.045881 S    
C33   C67   1.421106 A    
C64   C88   1.412081 A    
C34   C68   1.419117 A    
N17   H54   1.042281 S    
O22   P13   1.756476 S    
C24   F12   1.370527 S    
C26   N6    1.460574 S    
C43   F35   1.353082 S    
C28   F24   1.381010 S    
C18   F6    1.385626 S    
C1    F49   1.388611 S    
C23   F15   1.376792 S    
O11   P16   1.751387 S    
C3    F51   1.389260 S    
C64   C68   1.421439 A    
C21   F13   1.374729 S    
C4    F52   1.387132 S    
C1    N9    1.464504 S    
C7    C11   1.531506 S    
N14   H48   1.045649 S    
N20   H60   1.041228 S    
C12   F32   1.386815 S    
P1    C37   1.889400 S    
P10   O30   1.734093 S    
P12   O44   1.753462 S    
C82   N18   1.429829 S    
P8    C71   1.887040 S    
C85   H17   1.078278 S    
C9    N21   1.457921 S    
O5    Ba2   2.829012 S    
C13   C17   1.532747 S    
C88   H20   1.078973 S    
O7    Ba4   2.829012 S    
O42   C6    1.409375 S    
C15   C19   1.531872 S    
Ba2   O45   2.994672 S    
C18   N2    1.456721 S    
N5    H29   1.044360 S    
C51   F39   1.354867 S    
P1    O1    1.563623 D    
C76   C80   1.398030 A    
P3    O3    1.563623 D    
O11   Ba3   2.829297 S    
P4    O20   1.757205 S    
C74   F42   1.353666 S    
C42   C46   1.397947 A    
C11   N23   1.454835 S    
C78   C82   1.400731 A    
P10   C77   1.854966 S    
O25   Ba1   2.831313 S    
O27   Ba3   2.831313 S    
N11   H41   1.045820 S    
C40   C44   1.406441 A    
C14   F58   1.380484 S    
N15   H50   1.045884 S    
N4    H27   1.043526 S    
N24   H68   1.045594 S    
C68   C84   1.414107 A    
P2    C38   1.894496 S    
C61   C85   1.412353 A    
C54   C88   1.418430 A    
C37   C57   1.446043 A    
P1    O5    1.567353 S    
C54   C58   1.424265 A    
N23   H65   1.045890 S    
C16   F60   1.379294 S    
C17   H13   1.113466 S    
C17   F5    1.385332 S    
O6    Ba1   2.824737 S    
C5    C9    1.540149 S    
N16   H51   1.046065 S    
C14   C18   1.537078 S    
O9    Ba1   2.829297 S    
C33   C57   1.413961 A    
N3    H26   1.043623 S    
P8    O40   1.756392 S    
O21   C29   1.414284 S    
C30   F26   1.383382 S    
P9    O33   1.546269 D    
P11   O43   1.753537 S    
C10   N22   1.458872 S    
Ba3   O47   2.829132 S    
C9    F29   1.381636 S    
Ba4   O47   2.994672 S    
C77   C81   1.402447 A    
C73   C77   1.398166 A    
N7    H33   1.040350 S    
C19   N3    1.457084 S    
C2    C30   1.535326 S    
C53   C57   1.423589 A    
N12   H43   1.045262 S    
C56   C86   1.417932 A    
O26   Ba2   2.833979 S    
P6    O45   1.571421 S    
C56   C60   1.423425 A    
C27   F19   1.376013 S    
P5    Ba1   3.431662 S    
P7    Ba3   3.431662 S    
C36   C66   1.419960 A    
P5    O25   1.562175 D    
N9    H38   1.045180 S    
C12   N24   1.458408 S    
C24   F16   1.377513 S    
N1    H21   1.045508 S    
C4    N12   1.465919 S    
N10   H39   1.046193 S    
C28   F20   1.376599 S    
C69   C73   1.405323 A    
C20   F8    1.384836 S    
C36   F48   1.350269 S    
N18   H55   1.044762 S    
C10   H10   1.110424 S    
C23   F11   1.370346 S    
C2    F50   1.383247 S    
C6    C10   1.530266 S    
C64   C72   1.440852 A    
O39   C16   1.392232 S    
O10   Ba2   2.826301 S    
C61   C65   1.423927 A    
C27   N7    1.456911 S    
O19   C23   1.398868 S    
P1    O17   1.757991 S    
Ba1   Ba2   4.701206 S    
C41   F33   1.353689 S    
C52   F40   1.355697 S    
P3    O19   1.758704 S    
Ba3   Ba4   4.701206 S    
O4    Ba4   2.827481 S    
P4    O4    1.563130 D    
O13   P14   1.546872 D    
O15   P16   1.547374 D    
N22   H63   1.045276 S    
C83   N19   1.428353 S    
C47   C51   1.398494 A    
C4    N16   1.466706 S    
C2    N10   1.467592 S    
P7    O48   1.568967 S    
Ba1   O45   2.829132 S    
C20   H16   1.113009 S    
P7    C72   1.884154 S    
N17   H53   1.044653 S    
C61   C69   1.443080 A    
C50   F38   1.355447 S    
C81   N17   1.432064 S    
P8    O47   1.571421 S    
N11   H42   1.044291 S    
C3    N15   1.465562 S    
P2    O2    1.563130 D    
C44   C48   1.396784 A    
C63   C87   1.412879 A    
P5    O37   1.753760 S    
C7    H3    1.109381 S    
C22   F10   1.367307 S    
P7    O39   1.753095 S    
C20   N4    1.456806 S    
N6    H31   1.044890 S    
P12   C79   1.859009 S    
P5    C70   1.886102 S    
C26   F22   1.379745 S    
P12   O36   1.545135 D    
C87   H19   1.079335 S    
N2    H23   1.043210 S    
N13   H46   1.046185 S    
C38   C42   1.407786 A    
C79   C83   1.400629 A    
O9    P14   1.752603 S    
N7    H34   1.045095 S    
P8    Ba4   3.432582 S    
C15   F59   1.378978 S    
N4    H28   1.043539 S    
C8    C12   1.529468 S    
P10   O42   1.752589 S    
C25   F17   1.372795 S    
O21   P14   1.756122 S    
O23   P16   1.760652 S    
C62   C86   1.411957 A    
C75   C79   1.398235 A    
C12   H12   1.108911 S    
C38   C58   1.444597 A    
P2    O6    1.564915 S    
C5    H5    1.109752 S    
N19   H58   1.043139 S    
Ba2   O46   2.824857 S    
C1    N13   1.464356 S    
C22   F14   1.377113 S    
C7    H7    1.106970 S    
C34   C58   1.412715 A    
C50   C54   1.410167 A    
O1    Ba1   2.830125 S    
N15   H49   1.039459 S    
P10   O34   1.544470 D    
O3    Ba3   2.830125 S    
N21   H62   1.044634 S    
C8    H8    1.106572 S    
N8    H35   1.044305 S    
C31   F3    1.384879 S    
C53   C87   1.419531 A    
C74   C78   1.398090 A    
C14   F54   1.366892 S    
P15   C48   1.856602 S    
C39   C59   1.445636 A    
P13   C46   1.858393 S    
O31   Ba3   2.824400 S    
C40   C60   1.445468 A    
C2    N14   1.466269 S    
C21   C25   1.538342 S    
