data_mof_unit_64227.cif
_audit_creation_date              2012-12-10T17:05:08-0500
_audit_creation_method            fapswitch 2.2
_symmetry_space_group_name_H-M    P1
_symmetry_Int_Tables_number       1
_space_group_crystal_system       triclinic
_cell_length_a                    15.088577
_cell_length_b                    15.075972
_cell_length_c                    19.408493
_cell_angle_alpha                 89.299823
_cell_angle_beta                  91.011817
_cell_angle_gamma                 90.467597
_cell_volume                      4413.78886173

loop_
_atom_site_label
_atom_site_type_symbol
_atom_type_description
_atom_site_fract_x
_atom_site_fract_y
_atom_site_fract_z
_atom_type_partial_charge
C1    C     C_R   0.484360 0.260065 0.508991 0.505584
C2    C     C_2   0.539167 0.494797 0.018492 0.301460
C3    C     C_2   0.472395 0.532147 0.981394 0.090910
C4    C     C_R   0.515316 0.739696 0.489596 0.507823
C5    C     C_R   0.487829 0.512757 0.762966 -0.003652
C6    C     C_R   0.472835 0.163771 0.507263 0.018321
C7    C     C_R   0.523825 0.835548 0.486390 0.028864
C8    C     C_R   0.618174 0.966210 0.492486 -0.010195
C9    C     C_R   0.608318 0.874397 0.488881 -0.109736
C10   C     C_R   0.448228 0.887945 0.487366 -0.113353
C11   C     C_R   0.456623 0.979739 0.493594 0.024376
C12   C     C_R   0.538028 0.494838 0.094461 0.024400
C13   C     C_R   0.542006 0.019770 0.495777 0.030576
C14   C     C_R   0.548732 0.111960 0.501826 -0.115592
C15   C     C_R   0.388076 0.123363 0.506257 -0.015105
C16   C     C_R   0.259884 0.512484 0.488450 0.510536
C17   C     C_R   0.380644 0.031650 0.499023 -0.122339
C18   C     C_R   0.163341 0.513441 0.481521 -0.001640
C19   C     C_R   0.835302 0.480802 0.518459 0.003852
C20   C     C_R   0.968803 0.457410 0.586935 -0.122365
C21   C     C_R   0.876586 0.457193 0.581569 -0.016147
C22   C     C_R   0.885856 0.504798 0.461529 -0.091269
C23   C     C_R   0.524271 0.414438 0.129114 -0.168176
C24   C     C_R   0.978339 0.507923 0.467103 0.087650
C25   C     C_R   0.019819 0.483185 0.530431 -0.011922
C26   C     C_R   0.111829 0.485191 0.536815 -0.122033
C27   C     C_R   0.122587 0.539710 0.419162 -0.112783
C28   C     C_R   0.739520 0.486327 0.512057 0.502837
C29   C     C_R   0.029930 0.536492 0.411142 0.245847
C30   C     C_R   0.491249 0.509639 0.687639 0.503064
C31   C     C_R   0.510286 0.490012 0.312680 0.511978
C32   C     C_R   0.520771 0.491769 0.237646 -0.009643
C33   C     C_R   0.538004 0.573258 0.203001 -0.025787
C34   C     C_R   0.515526 0.412197 0.200309 -0.039896
C35   C     C_R   0.546796 0.574676 0.130539 0.235578
C36   C     C_1   0.549576 0.654088 0.242039 0.218380
C37   C     C_1   0.517526 0.686116 0.897468 0.246437
C38   C     C_1   0.307724 0.174575 0.509210 0.236474
C39   C     C_1   0.706974 0.002970 0.494418 0.200499
C40   C     C_1   0.825536 0.431818 0.641043 0.224567
C41   C     C_1   0.397459 0.573801 0.013255 0.216239
C42   C     C_1   0.497731 0.327756 0.233574 0.242631
C43   C     C_R   0.454291 0.445391 0.874580 0.325655
C44   C     C_R   0.464672 0.436890 0.802924 0.244991
C45   C     C_R   0.504508 0.594024 0.795076 -0.168086
C46   C     C_R   0.497554 0.601682 0.866117 -0.059078
C47   C     C_R   0.472637 0.527333 0.905870 0.039812
H1    H     H_    0.613143 0.144314 0.502813 0.145710
H2    H     H_    0.517917 0.353612 0.100055 0.161823
H3    H     H_    0.494562 0.349377 0.734687 0.345330
H4    H     H_    0.034687 0.579285 0.316180 0.336789
H5    H     H_    0.415837 0.321972 0.887714 0.382945
H6    H     H_    0.650047 0.430711 0.019863 0.337927
H7    H     H_    0.564815 0.703743 0.123018 0.349735
H8    H     H_    0.315467 0.000679 0.497471 0.124190
H9    H     H_    0.666613 0.832747 0.488355 0.137397
H10   H     H_    0.383146 0.856791 0.486593 0.122136
H11   H     H_    0.143432 0.465563 0.585210 0.148839
H12   H     H_    0.162932 0.561019 0.376299 0.133267
H13   H     H_    0.000770 0.438662 0.635418 0.132705
H14   H     H_    0.852419 0.523759 0.413734 0.176885
H15   H     H_    0.522273 0.651989 0.764484 0.155040
N1    N     N_1   0.558822 0.718533 0.273265 -0.262656
N2    N     N_1   0.533522 0.753709 0.922642 -0.217931
N3    N     N_1   0.243362 0.215592 0.511544 -0.255973
N4    N     N_1   0.778069 0.032356 0.495960 -0.257595
N5    N     N_1   0.784561 0.411533 0.688643 -0.261056
N6    N     N_1   0.337645 0.607082 0.038690 -0.244430
N7    N     N_1   0.483479 0.260171 0.260231 -0.254017
O1    O     O_3   0.500000 0.500000 0.500000 -0.460645
O2    O     O_R   0.437070 0.459640 0.654640 -0.524135
O3    O     O_R   0.556790 0.436390 0.349710 -0.526250
O4    O     O_R   0.547170 0.557950 0.655150 -0.534952
O5    O     O_R   0.458970 0.546010 0.340500 -0.528331
O6    O     O_3   0.454390 0.353910 0.774262 -0.682356
O7    O     O_3   0.988906 0.561016 0.349656 -0.692966
O8    O     O_3   0.429581 0.374471 0.916199 -0.665953
O9    O     O_3   0.606973 0.453099 0.984728 -0.655894
O10   O     O_3   0.563995 0.651401 0.092869 -0.673991
O11   O     O_R   0.306870 0.560460 0.447950 -0.544956
O12   O     O_R   0.697260 0.434930 0.470830 -0.532962
O13   O     O_R   0.434240 0.306870 0.546470 -0.525764
O14   O     O_R   0.561630 0.697750 0.534750 -0.543227
O15   O     O_R   0.542340 0.296600 0.470110 -0.532652
O16   O     O_R   0.461800 0.698790 0.448670 -0.525975
O17   O     O_R   0.296600 0.461110 0.533510 -0.529914
O18   O     O_R   0.699270 0.543500 0.547710 -0.529423
Zn1   Zn    Zn3+2 0.433070 0.575010 0.435400 0.966698
Zn2   Zn    Zn3+2 0.418400 0.433070 0.557650 0.977530
Zn3   Zn    Zn3+2 0.575700 0.573520 0.558390 0.961704
Zn4   Zn    Zn3+2 0.572830 0.418400 0.448560 0.976810

loop_
_geom_bond_atom_site_label_1
_geom_bond_atom_site_label_2
_ccdc_geom_bond_type
C7    C10   A    
C8    C13   A    
C27   C29   A    
O1    Zn4   S    
C34   C42   S    
O1    Zn1   S    
C30   O2    A    
C29   O7    S    
C45   C46   A    
C1    O15   A    
C4    O14   A    
C12   C23   A    
O13   Zn2   S    
C19   C21   A    
O4    Zn3   S    
C5    C30   S    
C23   H2    S    
C20   C25   A    
C45   H15   S    
C33   C36   S    
C7    C9    A    
C3    C47   S    
C24   C29   A    
C6    C15   A    
C11   C17   A    
C8    C9    A    
C40   N5    T    
C18   C26   A    
O15   Zn4   S    
C20   H13   S    
C36   N1    T    
C17   H8    S    
C2    C12   S    
C13   C14   A    
C16   O17   A    
O1    Zn3   S    
C4    C7    S    
C41   N6    T    
C1    C6    S    
C19   C22   A    
H4    O7    S    
O3    Zn4   S    
C31   O5    A    
C14   H1    S    
C4    O16   A    
C25   C26   A    
C30   O4    A    
C5    C45   A    
C42   N7    T    
C16   O11   A    
C32   C34   A    
C44   O6    S    
C43   C44   A    
C15   C38   S    
C2    O9    S    
C6    C14   A    
C31   C32   S    
O2    Zn2   S    
C38   N3    T    
C23   C34   A    
C10   H10   S    
C28   O18   A    
C9    H9    S    
C24   C25   A    
C12   C35   A    
C19   C28   S    
C26   H11   S    
C31   O3    A    
C8    C39   S    
C5    C44   A    
C39   N4    T    
C22   C24   A    
O1    Zn2   S    
H5    O8    S    
C37   N2    T    
H7    O10   S    
O16   Zn1   S    
C15   C17   A    
O14   Zn3   S    
C46   C47   A    
C3    C41   S    
C28   O12   A    
C18   C27   A    
O17   Zn2   S    
C43   O8    S    
C32   C33   A    
H6    O9    S    
C1    O13   A    
O11   Zn1   S    
C27   H12   S    
H3    O6    S    
C22   H14   S    
C11   C13   A    
C21   C40   S    
C35   O10   S    
C33   C35   A    
C2    C3    D    
C10   C11   A    
O12   Zn4   S    
C20   C21   A    
C16   C18   S    
O18   Zn3   S    
O5    Zn1   S    
C37   C46   S    
C43   C47   A    
