data_mof_unit_6820.cif
_audit_creation_date              2012-12-11T18:44:56-0500
_audit_creation_method            fapswitch 2.2
_symmetry_space_group_name_H-M    P1
_symmetry_Int_Tables_number       1
_space_group_crystal_system       triclinic
_cell_length_a                    8.181788
_cell_length_b                    14.333014
_cell_length_c                    18.747631
_cell_angle_alpha                 96.981578
_cell_angle_beta                  91.531038
_cell_angle_gamma                 91.836039
_cell_volume                      2180.06826592

loop_
_atom_site_label
_atom_site_type_symbol
_atom_type_description
_atom_site_fract_x
_atom_site_fract_y
_atom_site_fract_z
_atom_type_partial_charge
Ba1   Ba    Ba6+2 0.843240 0.541620 0.463500 1.652861
Ba2   Ba    Ba6+2 0.346570 0.458460 0.536510 1.662188
C1    C     C_3   0.652888 0.876100 0.269769 -0.097463
C2    C     C_3   0.570176 0.777672 0.263261 0.283871
C3    C     C_3   0.489301 0.295563 0.322505 0.389359
C4    C     C_3   0.424752 0.247874 0.249785 0.333012
C5    C     C_3   0.101083 0.198179 0.743140 0.834830
C6    C     C_3   0.099401 0.297022 0.783151 -0.191917
C7    C     C_3   0.653516 0.231094 0.736613 0.332921
C8    C     C_3   0.598199 0.127970 0.730738 -0.282869
C9    C     C_R   0.998087 0.459572 0.050269 -0.025274
C10   C     C_R   0.906484 0.412962 0.099065 0.036072
C11   C     C_R   0.749534 0.373505 0.077335 0.148508
C12   C     C_3   0.094940 0.731324 0.257550 0.408344
C13   C     C_R   0.688266 0.379245 0.007306 -0.095617
C14   C     C_R   0.780846 0.422639 0.958076 0.014718
C15   C     C_R   0.935920 0.463324 0.979318 0.012559
C16   C     C_R   0.720671 0.424162 0.887551 -0.109825
C17   C     C_R   0.815510 0.462988 0.836072 -0.039526
C18   C     C_R   0.969771 0.506995 0.857475 0.006783
C19   C     C_R   0.028874 0.507235 0.929510 -0.001786
C20   C     C_R   0.763491 0.455947 0.763169 -0.036836
C21   C     C_R   0.865048 0.491036 0.712792 -0.290736
C22   C     C_R   0.013289 0.539477 0.732927 0.047135
C23   C     C_3   0.065457 0.749745 0.179441 -0.097201
C24   C     C_R   0.066310 0.549018 0.806834 -0.043542
C25   C     C_R   0.152371 0.501595 0.072047 -0.005073
C26   C     C_R   0.212681 0.501185 0.143824 -0.003770
C27   C     C_R   0.119144 0.456269 0.193865 -0.051969
C28   C     C_R   0.972191 0.407658 0.168806 -0.038654
C29   C     C_R   0.213986 0.597056 0.831749 -0.064157
C30   C     C_R   0.274925 0.594663 0.902320 0.028302
C31   C     C_R   0.182832 0.549105 0.951317 0.007086
C32   C     C_R   0.244723 0.546147 0.022363 0.018618
C33   C     C_R   0.428749 0.635910 0.924387 -0.082390
C34   C     C_3   0.181448 0.747662 0.608760 0.321320
C35   C     C_R   0.490919 0.631937 0.994056 -0.086320
C36   C     C_R   0.399395 0.587915 0.043551 0.038122
C37   C     C_R   0.366385 0.546051 0.165255 -0.053863
C38   C     C_R   0.459699 0.586606 0.114041 -0.122273
C39   C     C_R   0.421023 0.550318 0.237651 -0.025208
C40   C     C_R   0.323167 0.511123 0.287495 -0.289483
C41   C     C_R   0.174565 0.463052 0.267419 0.036522
C42   C     C_R   0.696497 0.938459 0.540782 -0.039782
C43   C     C_R   0.510852 0.800941 0.496986 0.062682
C44   C     C_R   0.368931 0.766318 0.457967 -0.298956
C45   C     C_3   0.193568 0.854325 0.622306 -0.415539
C46   C     C_R   0.262547 0.826875 0.428614 -0.019477
C47   C     C_R   0.305716 0.922574 0.431538 0.051647
C48   C     C_R   0.454642 0.957787 0.465797 0.017829
C49   C     C_R   0.555471 0.898294 0.501605 -0.052931
C50   C     C_R   0.640892 0.092288 0.504630 -0.039393
C51   C     C_R   0.740948 0.034200 0.541708 0.004268
C52   C     C_R   0.684936 0.188554 0.506078 0.025293
C53   C     C_R   0.824862 0.225726 0.544581 -0.255252
C54   C     C_R   0.930022 0.167842 0.577086 -0.010346
C55   C     C_R   0.887674 0.072166 0.576629 -0.133502
C56   C     C_3   0.999715 0.250571 0.387374 0.338089
C57   C     C_R   0.500670 0.052782 0.466480 -0.019626
C58   C     C_3   0.947263 0.147926 0.366994 -0.384462
C59   C     C_3   0.689521 0.681756 0.677296 0.364749
C60   C     C_3   0.668804 0.709269 0.757643 0.341586
H1    H     H_    0.508633 0.770169 0.314610 -0.012223
H2    H     H_    0.298934 0.877009 0.659640 0.120465
H3    H     H_    0.210636 0.884770 0.571461 0.065131
H4    H     H_    0.078899 0.881115 0.646238 0.112107
H5    H     H_    0.896843 0.289140 0.412257 -0.010280
H6    H     H_    0.104622 0.255036 0.426372 0.073467
H7    H     H_    0.834520 0.142063 0.332338 0.144476
H8    H     H_    0.924182 0.113816 0.415776 0.053809
H9    H     H_    0.044884 0.110742 0.336459 0.163264
H10   H     H_    0.820434 0.672884 0.666538 -0.033677
H11   H     H_    0.619493 0.614402 0.661394 -0.019677
H12   H     H_    0.721289 0.890226 0.322189 0.147937
H13   H     H_    0.708531 0.651184 0.787888 -0.128842
H14   H     H_    0.536214 0.716745 0.766935 0.038236
H15   H     H_    0.478710 0.769728 0.217932 -0.006373
H16   H     H_    0.384206 0.326694 0.351937 -0.002456
H17   H     H_    0.579166 0.352718 0.314157 -0.054648
H18   H     H_    0.368435 0.302085 0.220098 -0.110362
H19   H     H_    0.529770 0.217449 0.219575 0.040344
H20   H     H_    0.742253 0.879306 0.226398 0.126308
H21   H     H_    0.133534 0.698569 0.143400 0.064239
H22   H     H_    0.975706 0.178930 0.720696 -0.239573
H23   H     H_    0.063984 0.346997 0.745427 0.016657
H24   H     H_    0.010924 0.299295 0.827086 0.036982
H25   H     H_    0.222224 0.318633 0.807233 0.144545
H26   H     H_    0.744619 0.246024 0.781777 -0.013624
H27   H     H_    0.711083 0.242892 0.685235 -0.026840
H28   H     H_    0.705597 0.082806 0.723312 0.060147
H29   H     H_    0.512534 0.110227 0.683721 0.137536
H30   H     H_    0.046763 0.659022 0.262326 0.053243
H31   H     H_    0.536032 0.113425 0.780379 0.135826
H32   H     H_    0.567827 0.349085 0.991023 0.072514
H33   H     H_    0.825428 0.483275 0.656823 0.068264
H34   H     H_    0.600986 0.392285 0.872993 0.096337
H35   H     H_    0.905314 0.367202 0.203974 0.122836
H36   H     H_    0.285459 0.634778 0.796322 0.087770
H37   H     H_    0.501850 0.670851 0.887667 0.066311
H38   H     H_    0.610391 0.664090 0.009418 0.069340
H39   H     H_    0.578931 0.619054 0.128537 0.092164
H40   H     H_    0.228376 0.735326 0.270149 -0.144562
H41   H     H_    0.366127 0.515281 0.342893 0.073545
H42   H     H_    0.334632 0.692402 0.455194 0.071771
H43   H     H_    0.970590 0.027448 0.601481 0.047606
H44   H     H_    0.858801 0.299279 0.544312 0.055440
H45   H     H_    0.774102 0.896465 0.570573 0.105758
H46   H     H_    0.424994 0.095897 0.436949 0.148058
H47   H     H_    0.933507 0.738751 0.164286 0.129992
H48   H     H_    0.299566 0.720592 0.590247 0.001028
H49   H     H_    0.084820 0.726885 0.566817 0.076433
O1    O     O_2   0.887710 0.436190 0.327560 -0.458585
O2    O     O_3   0.631294 0.753853 0.640650 -0.635289
O3    O     O_3   0.013275 0.797458 0.303999 -0.598420
O4    O     O_2   0.301980 0.563840 0.672490 -0.465471
O5    O     O_3   0.054330 0.556590 0.583490 -0.497680
O6    O     O_3   0.555270 0.390630 0.635330 -0.455223
O7    O     O_3   0.143947 0.713609 0.673272 -0.646680
O8    O     O_3   0.637720 0.384870 0.467990 -0.475678
O9    O     O_3   0.145220 0.339960 0.601250 -0.467795
O10   O     O_2   0.255677 0.172827 0.553495 -0.476492
O11   O     O_3   0.219978 0.196142 0.689974 -0.585236
O12   O     O_3   0.135370 0.443490 0.416520 -0.497334
O13   O     O_3   0.551980 0.615210 0.532020 -0.487455
O14   O     O_2   0.394410 0.269100 0.474240 -0.455238
O15   O     O_3   0.566551 0.228251 0.358888 -0.647548
O16   O     O_2   0.420064 0.458593 0.756074 -0.486242
O17   O     O_3   0.518407 0.287485 0.750975 -0.564657
O18   O     O_3   0.634420 0.609440 0.364670 -0.455853
O19   O     O_2   0.758238 0.535893 0.244208 -0.490513
O20   O     O_3   0.046019 0.286741 0.324820 -0.617523
O21   O     O_3   0.690343 0.710952 0.248407 -0.591801
O22   O     O_2   0.795290 0.730930 0.525800 -0.473876
O23   O     O_3   0.044470 0.660110 0.398750 -0.478384
O24   O     O_2   0.921369 0.826066 0.436579 -0.486446
P1    P     P_3+3 0.061800 0.409390 0.339760 0.983408
P2    P     P_3+3 0.622760 0.718740 0.547830 0.980789
P3    P     P_3+3 0.060796 0.779585 0.392736 0.952502
P4    P     P_3+3 0.127890 0.590690 0.660240 0.970178
P5    P     P_3+3 0.133788 0.218360 0.607289 0.954448
P6    P     P_3+3 0.622745 0.601963 0.271614 0.955125
P7    P     P_3+3 0.576418 0.266266 0.451135 0.950260
P8    P     P_3+3 0.565374 0.399948 0.728540 0.967501
O25   O     O_3   0.748619 0.797468 0.780319 -0.626901
C61   C     C_3   0.890442 0.786076 0.822266 0.182011
H50   H     H_    0.858932 0.756824 0.872693 0.029425
H51   H     H_    0.952062 0.856001 0.837405 0.060559
H52   H     H_    0.977810 0.740668 0.791360 0.036390
N1    N     N_3   0.534728 0.949484 0.264934 -0.503753
H53   H     H_    0.437464 0.938388 0.298140 0.182075
H54   H     H_    0.488085 0.944029 0.212085 0.174660
O26   O     O_3   0.308962 0.176100 0.260415 -0.615019
C62   C     C_3   0.241226 0.135834 0.193379 0.211433
H55   H     H_    0.337155 0.105045 0.157618 0.017479
H56   H     H_    0.171864 0.188283 0.166803 0.033554
H57   H     H_    0.153921 0.077938 0.202447 0.056064
O27   O     O_3   0.144538 0.136853 0.793640 -0.648929
C63   C     C_3   0.125372 0.042590 0.762072 0.184576
H58   H     H_    0.207552 0.028355 0.716126 0.048829
H59   H     H_    0.995976 0.024383 0.744847 0.025280
H60   H     H_    0.160253 0.996054 0.802673 0.062061
N2    N     N_3   0.651269 0.329055 0.126778 -0.521774
H61   H     H_    0.612263 0.382107 0.165128 0.169409
H62   H     H_    0.545478 0.297223 0.100741 0.161652
N3    N     N_3   0.196136 0.985345 0.402594 -0.503687
H63   H     H_    0.087534 0.984424 0.430571 0.190992
H64   H     H_    0.170745 0.961198 0.348459 0.177614
N4    N     N_3   0.118642 0.844932 0.167934 -0.501816
H65   H     H_    0.050420 0.893551 0.199678 0.199476
H66   H     H_    0.241197 0.855890 0.184631 0.168546

loop_
_geom_bond_atom_site_label_1
_geom_bond_atom_site_label_2
_ccdc_geom_bond_type
O24   P3    D    
C55   H43   S    
C53   C54   A    
O22   P2    D    
N3    H63   S    
C16   H34   S    
C39   C40   A    
C17   C18   A    
C40   H41   S    
C13   H32   S    
C61   H50   S    
C11   N2    S    
C2    O21   S    
Ba2   O12   S    
C47   N3    S    
C10   C11   A    
C2    H1    S    
O27   C63   S    
Ba2   P4    S    
C6    H23   S    
O10   P5    D    
C26   C27   A    
C33   C35   A    
C22   C24   A    
C16   C17   A    
Ba1   O18   S    
N1    H54   S    
C7    H26   S    
C3    C4    S    
C54   P5    S    
C33   H37   S    
C12   H40   S    
Ba2   O4    S    
O18   P6    S    
C43   C49   A    
C56   C58   S    
C13   C14   A    
C54   C55   A    
C34   C45   S    
Ba1   Ba2   S    
Ba1   O8    S    
C29   H36   S    
C1    H12   S    
O19   P6    D    
C63   H60   S    
C38   H39   S    
Ba2   O5    S    
C42   C51   A    
C14   C15   A    
C20   P8    S    
C21   C22   A    
O9    P5    S    
Ba1   O5    S    
C58   H8    S    
C62   H56   S    
Ba1   P1    S    
C34   O7    S    
C7    C8    S    
O14   P7    D    
C45   H4    S    
C23   H47   S    
O5    P4    S    
C4    O26   S    
N4    H66   S    
C5    H22   S    
C24   C29   A    
C25   C32   A    
C4    H19   S    
C27   C41   A    
C63   H59   S    
C60   H14   S    
N3    H64   S    
C41   P1    S    
O1    P1    D    
Ba1   O22   S    
C61   H51   S    
Ba2   O6    S    
C50   C52   A    
C31   C32   A    
N2    H62   S    
C22   P4    S    
C44   C46   A    
C1    N1    S    
C7    O17   S    
C53   H44   S    
C30   C33   A    
O13   P2    S    
C5    C6    S    
C17   C20   A    
C37   C39   A    
O20   P1    S    
C7    H27   S    
C45   H2    S    
C51   C55   A    
C58   H9    S    
C59   H11   S    
C12   O3    S    
C44   H42   S    
O15   P7    S    
C15   C19   A    
C3    O15   S    
C34   H49   S    
Ba1   O12   S    
C39   P6    S    
C35   C36   A    
C50   C57   A    
C23   N4    S    
C4    H18   S    
C29   C30   A    
C28   H35   S    
C9    C25   A    
C56   O20   S    
Ba2   O8    S    
C8    H31   S    
C1    H20   S    
C43   P2    S    
C48   C49   A    
O16   P8    D    
O26   C62   S    
C62   H57   S    
C12   H30   S    
C59   H10   S    
C56   H6    S    
N4    H65   S    
C52   P7    S    
O4    P4    D    
C8    H29   S    
C11   C13   A    
C34   H48   S    
C63   H58   S    
O2    P2    S    
C60   H13   S    
C3    H17   S    
C40   C41   A    
C48   C57   A    
C5    O11   S    
C1    C2    S    
Ba1   O23   S    
C37   C38   A    
C61   H52   S    
Ba1   P2    S    
C50   C51   A    
C42   C49   A    
N2    H61   S    
C42   H45   S    
O21   P6    S    
C52   C53   A    
C9    C15   A    
Ba2   O9    S    
O6    P8    S    
C32   C36   A    
C60   O25   S    
O25   C61   S    
O23   P3    S    
C9    C10   A    
C5    O27   S    
Ba2   O13   S    
C57   H46   S    
C26   C37   A    
C46   P3    S    
O12   P1    S    
C6    H25   S    
C30   C31   A    
C10   C28   A    
C3    H16   S    
Ba1   O13   S    
O11   P5    S    
C2    H15   S    
Ba1   O1    S    
N1    H53   S    
C36   C38   A    
C18   C24   A    
C58   H7    S    
C46   C47   A    
C21   H33   S    
C6    H24   S    
O3    P3    S    
C12   C23   S    
C59   C60   S    
O17   P8    S    
C59   O2    S    
C27   C28   A    
Ba2   O14   S    
C43   C44   A    
C56   H5    S    
C19   C31   A    
C18   C19   A    
C8    H28   S    
C14   C16   A    
C47   C48   A    
C25   C26   A    
C23   H21   S    
O8    P7    S    
C20   C21   A    
C62   H55   S    
C45   H3    S    
C35   H38   S    
O7    P4    S    
