data_mof_unit_19892.cif
_audit_creation_date              2012-10-26T19:58:22-0400
_audit_creation_method            fapswitch 2.2
_symmetry_space_group_name_H-M    P1
_symmetry_Int_Tables_number       1
_space_group_crystal_system       triclinic
_cell_length_a                    7.461983
_cell_length_b                    8.688964
_cell_length_c                    13.392789
_cell_angle_alpha                 94.140157
_cell_angle_beta                  78.216881
_cell_angle_gamma                 103.07852
_cell_volume                      827.691703947

loop_
_atom_site_label
_atom_site_type_symbol
_atom_type_description
_atom_site_fract_x
_atom_site_fract_y
_atom_site_fract_z
_atom_type_partial_charge
Br1   Br    Br    0.318670 0.679267 0.209967 -0.552733
C1    C     C_R   0.545236 0.800108 0.503070 0.550220
C2    C     C_R   0.345939 0.501963 0.806314 -0.007595
C3    C     C_2   0.570677 0.968020 0.504514 -0.146213
C4    C     C_R   0.401856 0.500060 0.694228 0.526460
C5    C     C_2   0.429397 0.031950 0.495299 -0.139973
C6    C     C_R   0.454773 0.199897 0.496905 0.552527
C7    C     C_R   0.600611 0.522749 0.307011 0.575079
C8    C     C_R   0.894764 0.647888 0.049272 -0.127311
C9    C     C_R   0.657055 0.562826 0.198594 0.009111
C10   C     C_R   0.166042 0.417887 0.849299 -0.140196
C11   C     C_R   0.119187 0.386264 0.952624 -0.148984
C12   C     C_R   0.427537 0.534278 0.976156 0.049145
C13   C     C_R   0.248770 0.441365 0.015312 -0.106558
C14   C     C_R   0.477104 0.566284 0.870645 0.023026
C15   C     C_R   0.564986 0.582482 0.037703 0.051568
C16   C     C_R   0.754662 0.636735 0.991788 0.025522
C17   C     C_R   0.798998 0.682053 0.890555 -0.137049
C18   C     C_R   0.658842 0.657336 0.832897 -0.119790
C19   C     C_R   0.520164 0.579124 0.144079 0.127972
C20   C     C_R   0.845498 0.597268 0.149924 -0.152769
Cu1   Cu    Cu3+1 0.321300 0.483160 0.488710 0.998275
Cu2   Cu    Cu3+1 0.678700 0.516840 0.511290 0.966877
H1    H     H_    0.952963 0.592902 0.191572 0.192063
H2    H     H_    0.706822 0.039385 0.513223 0.133317
H3    H     H_    0.209583 0.405827 0.093911 0.154402
H4    H     H_    0.293271 0.960570 0.486555 0.146840
H5    H     H_    0.011137 0.618402 0.579436 0.231102
H6    H     H_    0.988858 0.381654 0.420548 0.247207
H7    H     H_    0.941389 0.737871 0.856244 0.111270
H8    H     H_    0.041312 0.688297 0.015157 0.155202
H9    H     H_    0.064565 0.368031 0.801828 0.140679
H10   H     H_    0.982581 0.315585 0.984074 0.135562
H11   H     H_    0.697732 0.707263 0.758071 0.142080
N1    N     N_2   0.947230 0.542220 0.528320 -0.253931
N2    N     N_2   0.052770 0.457780 0.471680 -0.237352
O1    O     O_R   0.383920 0.714220 0.492660 -0.489993
O2    O     O_R   0.685730 0.742660 0.511730 -0.504352
O3    O     O_R   0.275440 0.478800 0.636790 -0.514692
O4    O     O_R   0.577250 0.507240 0.655860 -0.510455
O5    O     O_R   0.314270 0.257340 0.488270 -0.496551
O6    O     O_R   0.616080 0.285780 0.507340 -0.505779
O7    O     O_R   0.422750 0.492760 0.344140 -0.451331
O8    O     O_R   0.724560 0.521200 0.363210 -0.501898

loop_
_geom_bond_atom_site_label_1
_geom_bond_atom_site_label_2
_ccdc_geom_bond_type
C1    C3    S    
C10   C11   A    
C6    O6    A    
C5    C6    S    
C17   H7    S    
Cu2   O2    S    
Cu1   N2    S    
C1    O2    A    
C5    H4    S    
H6    N2    S    
C7    O7    A    
C15   C19   A    
C6    O5    A    
C16   C17   A    
C12   C13   A    
C13   H3    S    
C14   C18   A    
C1    O1    A    
C8    C20   A    
Cu2   O6    S    
Cu1   O3    S    
C7    C9    S    
C11   C13   A    
C10   H9    S    
C3    H2    S    
Cu2   N1    S    
C12   C14   A    
C9    C20   A    
C20   H1    S    
Cu1   O5    S    
C2    C10   A    
C8    H8    S    
Cu2   O4    S    
C7    O8    A    
C2    C14   A    
C3    C5    D    
C17   C18   A    
C12   C15   A    
C8    C16   A    
C4    O3    A    
Cu1   Cu2   S    
Br1   C19   S    
C11   H10   S    
C4    O4    A    
Cu1   O1    S    
Cu1   O7    S    
Cu2   O8    S    
N1    N2    D    
H5    N1    S    
C9    C19   A    
C15   C16   A    
C2    C4    S    
C18   H11   S    
