data_mof_unit_30011.cif
_audit_creation_date              2012-12-10T18:21:14-0500
_audit_creation_method            fapswitch 2.2
_symmetry_space_group_name_H-M    P1
_symmetry_Int_Tables_number       1
_space_group_crystal_system       triclinic
_cell_length_a                    9.461218
_cell_length_b                    10.626584
_cell_length_c                    17.156607
_cell_angle_alpha                 89.52807
_cell_angle_beta                  85.61998
_cell_angle_gamma                 90.099172
_cell_volume                      1719.8316876

loop_
_atom_site_label
_atom_site_type_symbol
_atom_type_description
_atom_site_fract_x
_atom_site_fract_y
_atom_site_fract_z
_atom_type_partial_charge
C1    C     C_R   0.499927 0.740482 0.499730 0.773786
C2    C     C_R   0.500073 0.259518 0.500268 0.773785
C3    C     C_3   0.557993 0.959444 0.430840 -0.153563
C4    C     C_3   0.442008 0.040555 0.569154 -0.153571
C5    C     C_3   0.634529 0.040974 0.488844 -0.164539
C6    C     C_3   0.365473 0.959025 0.511150 -0.164552
C7    C     C_3   0.500900 0.122453 0.500297 0.044006
C8    C     C_3   0.499102 0.877547 0.499697 0.044005
C9    C     C_3   0.424679 0.043172 0.442303 -0.191183
C10   C     C_3   0.575323 0.956828 0.557691 -0.191178
C11   C     C_3   0.947751 0.384770 0.496154 -0.448678
C12   C     C_3   0.052249 0.615229 0.503845 -0.448700
C13   C     C_3   0.040906 0.437282 0.558194 0.500096
C14   C     C_3   0.959094 0.562718 0.441805 0.500070
C15   C     C_3   0.057227 0.449527 0.437950 0.501187
C16   C     C_3   0.942774 0.550473 0.562049 0.501216
C17   C     C_R   0.480771 0.500422 0.649594 0.833257
C18   C     C_R   0.519228 0.499580 0.350406 0.833228
C19   C     C_R   0.467681 0.499770 0.734135 -0.064827
C20   C     C_R   0.532315 0.500246 0.265865 -0.064854
C21   C     C_R   0.504011 0.391751 0.775571 0.417926
C22   C     C_R   0.495952 0.608264 0.224437 0.417901
C23   C     C_R   0.485250 0.391857 0.857188 -0.238320
C24   C     C_R   0.514704 0.608175 0.142821 -0.238279
C25   C     C_R   0.441205 0.501336 0.896608 0.088909
C26   C     C_R   0.558776 0.498712 0.103392 0.088876
C27   C     C_R   0.405089 0.608562 0.854794 -0.164788
C28   C     C_R   0.594927 0.391488 0.145198 -0.164804
C29   C     C_R   0.416632 0.607178 0.773534 -0.279589
C30   C     C_R   0.583389 0.392855 0.226457 -0.279568
C31   C     C_2   0.438660 0.504338 0.981971 -0.077886
C32   C     C_2   0.561320 0.495724 0.018028 -0.077886
Cu1   Cu    Cu3+1 0.356850 0.500010 0.499980 1.004775
Cu2   Cu    Cu3+1 0.643150 0.499990 0.500020 1.004788
H1    H     H_    0.900177 0.289689 0.492474 0.138691
H2    H     H_    0.099823 0.710311 0.507525 0.138700
H3    H     H_    0.611418 0.309575 0.258692 0.140067
H4    H     H_    0.388627 0.690458 0.741293 0.140060
H5    H     H_    0.370357 0.693477 0.884878 0.132654
H6    H     H_    0.629681 0.306585 0.115106 0.132661
H7    H     H_    0.493717 0.692638 0.109928 0.127266
H8    H     H_    0.506206 0.307397 0.890091 0.127227
H9    H     H_    0.744996 0.076626 0.479818 0.115445
H10   H     H_    0.255006 0.923372 0.520177 0.115446
H11   H     H_    0.603528 0.923724 0.373852 0.153722
H12   H     H_    0.396474 0.076276 0.626142 0.153720
H13   H     H_    0.363453 0.081935 0.395165 0.132460
H14   H     H_    0.636550 0.918061 0.604827 0.132447
N1    N     N_3   0.141720 0.500030 0.499940 -0.230371
N2    N     N_3   0.858280 0.499970 0.500060 -0.230368
O1    O     O_R   0.379130 0.683150 0.499960 -0.587464
O2    O     O_R   0.620870 0.316850 0.500040 -0.587470
O3    O     O_R   0.620910 0.683140 0.500000 -0.592786
O4    O     O_R   0.379090 0.316860 0.500000 -0.592776
O5    O     O_R   0.365090 0.500030 0.613580 -0.541149
O6    O     O_R   0.634910 0.499970 0.386420 -0.541140
O7    O     O_R   0.606870 0.500020 0.613610 -0.531003
O8    O     O_R   0.393130 0.499980 0.386390 -0.531038
O9    O     O_3   0.543017 0.283172 0.735609 -0.613205
C33   C     C_3   0.684828 0.253447 0.748299 0.097269
H15   H     H_    0.698132 0.234351 0.811164 0.135387
H16   H     H_    0.757718 0.331011 0.726993 0.193936
C34   C     C_3   0.726061 0.134887 0.703532 -0.847270
H17   H     H_    0.724908 0.153051 0.639776 0.254742
H18   H     H_    0.833819 0.104773 0.716972 0.198648
H19   H     H_    0.649897 0.058248 0.720954 0.249686
O10   O     O_3   0.456932 0.716834 0.264404 -0.613213
C35   C     C_3   0.315080 0.746485 0.251770 0.097308
H20   H     H_    0.242252 0.668935 0.273172 0.194004
H21   H     H_    0.301648 0.765444 0.188903 0.135421
C36   C     C_3   0.273889 0.865121 0.296467 -0.847353
H22   H     H_    0.275095 0.847066 0.360232 0.254707
H23   H     H_    0.350042 0.941738 0.278978 0.249724
H24   H     H_    0.166118 0.895208 0.283039 0.198669
O11   O     O_3   0.125302 0.409576 0.366490 -0.540720
C37   C     C_3   0.117380 0.277790 0.361171 0.075217
H25   H     H_    0.005852 0.247946 0.355344 0.133977
H26   H     H_    0.158441 0.230945 0.413185 0.127508
C38   C     C_3   0.206989 0.236151 0.288702 -0.800252
H27   H     H_    0.320333 0.258188 0.294850 0.241626
H28   H     H_    0.194865 0.133384 0.280831 0.188651
H29   H     H_    0.172347 0.285574 0.236265 0.259754
O12   O     O_3   0.874700 0.590428 0.633509 -0.540690
C39   C     C_3   0.882612 0.722215 0.638823 0.075210
H30   H     H_    0.841546 0.769051 0.586807 0.127509
H31   H     H_    0.994138 0.752068 0.644647 0.133970
C40   C     C_3   0.793000 0.763858 0.711290 -0.800234
H32   H     H_    0.827651 0.714449 0.763730 0.259757
H33   H     H_    0.805108 0.866627 0.719154 0.188640
H34   H     H_    0.679659 0.741805 0.705145 0.241629
C41   C     C_R   0.702478 0.492984 0.973942 0.155378
C42   C     C_R   0.769496 0.606002 0.949471 -0.144791
C43   C     C_R   0.904265 0.604069 0.909782 -0.141275
C44   C     C_R   0.972313 0.489462 0.893839 -0.044493
C45   C     C_R   0.906018 0.376599 0.918012 -0.152613
C46   C     C_R   0.771846 0.378190 0.958361 -0.186163
H35   H     H_    0.717746 0.695314 0.961600 0.116642
H36   H     H_    0.956145 0.691448 0.891535 0.121385
H37   H     H_    0.076608 0.488142 0.863129 0.146492
H38   H     H_    0.958882 0.287903 0.905796 0.121645
H39   H     H_    0.721760 0.290144 0.976913 0.107148
C47   C     C_R   0.297499 0.507074 0.026056 0.155360
C48   C     C_R   0.228111 0.621863 0.041618 -0.186171
C49   C     C_R   0.093934 0.623451 0.081962 -0.152623
C50   C     C_R   0.027655 0.510587 0.106149 -0.044512
C51   C     C_R   0.095725 0.395983 0.090225 -0.141265
C52   C     C_R   0.230498 0.394055 0.050541 -0.144778
H40   H     H_    0.278183 0.709910 0.023054 0.107168
H41   H     H_    0.041053 0.712144 0.094163 0.121654
H42   H     H_    0.923356 0.511903 0.136854 0.146492
H43   H     H_    0.043857 0.308604 0.108482 0.121383
H44   H     H_    0.282264 0.304746 0.038427 0.116644
O13   O     O_3   0.089573 0.383813 0.626701 -0.537495
C53   C     C_3   0.088596 0.251736 0.621806 0.061689
H45   H     H_    0.159240 0.219025 0.571297 0.152021
H46   H     H_    0.979520 0.216223 0.615939 0.128577
C54   C     C_3   0.140582 0.196807 0.696535 -0.795493
H47   H     H_    0.249538 0.231003 0.704346 0.274343
H48   H     H_    0.069312 0.225981 0.747636 0.240672
H49   H     H_    0.141350 0.092461 0.693494 0.183325
O14   O     O_3   0.910425 0.616184 0.373298 -0.537502
C55   C     C_3   0.911401 0.748261 0.378192 0.061664
H50   H     H_    0.020477 0.783774 0.384059 0.128577
H51   H     H_    0.840757 0.780972 0.428700 0.152030
C56   C     C_3   0.859415 0.803188 0.303462 -0.795508
H52   H     H_    0.858660 0.907535 0.306498 0.183327
H53   H     H_    0.930677 0.774003 0.252361 0.240681
H54   H     H_    0.750454 0.769002 0.295654 0.274330

loop_
_geom_bond_atom_site_label_1
_geom_bond_atom_site_label_2
_ccdc_geom_bond_type
C25   C31   S    
C15   O11   S    
C50   H42   S    
C34   H18   S    
C26   C32   S    
C43   C44   A    
C27   C29   A    
C1    C8    S    
C52   H44   S    
C2    C7    S    
C39   C40   S    
C40   H32   S    
C6    C9    S    
C53   H45   S    
C4    H12   S    
Cu2   O6    S    
Cu1   O8    S    
C23   H8    S    
C33   C34   S    
C37   H26   S    
C19   C21   A    
C16   N2    S    
C21   O9    S    
C54   H48   S    
C49   H41   S    
C32   C41   S    
C51   C52   A    
C28   H6    S    
Cu1   N1    S    
C38   H29   S    
C33   H16   S    
C1    O3    A    
C41   C46   A    
C11   C15   S    
C11   H1    S    
C18   O8    A    
C31   C32   D    
C27   H5    S    
C35   H20   S    
C29   H4    S    
Cu2   O7    S    
C37   C38   S    
C48   H40   S    
C12   H2    S    
C17   O5    A    
C18   O6    A    
C23   C25   A    
C5    H9    S    
C34   H19   S    
O9    C33   S    
C14   O14   S    
C6    H10   S    
C46   H39   S    
C24   H7    S    
C47   C48   A    
C4    C7    S    
C49   C50   A    
C42   H35   S    
C12   N1    S    
C51   H43   S    
Cu2   N2    S    
O10   C35   S    
C31   C47   S    
C12   C16   S    
C37   H25   S    
C4    C6    S    
C3    C8    S    
C2    O4    A    
C54   H49   S    
C41   C42   A    
C36   H23   S    
C45   H38   S    
C20   C30   A    
C3    H11   S    
C16   O12   S    
C38   H27   S    
C30   H3    S    
C33   H15   S    
O11   C37   S    
C3    C9    S    
C56   H54   S    
C53   H46   S    
O12   C39   S    
Cu1   Cu2   S    
C47   C52   A    
C39   H30   S    
C1    O1    A    
O14   C55   S    
C2    O2    A    
C13   N1    S    
C8    C10   S    
C12   C14   S    
C9    H13   S    
C21   C23   A    
C10   H14   S    
C56   H52   S    
C22   C24   A    
C40   H34   S    
Cu1   O1    S    
C4    C10   S    
C19   C29   A    
C48   C49   A    
C5    C7    S    
O13   C53   S    
Cu1   O4    S    
C7    C9    S    
Cu2   O2    S    
C24   C26   A    
C20   C22   A    
C3    C5    S    
C36   H24   S    
C6    C8    S    
C38   H28   S    
C25   C27   A    
C50   C51   A    
C26   C28   A    
C55   C56   S    
C40   H33   S    
C36   H22   S    
C11   N2    S    
C54   H47   S    
C11   C13   S    
C14   N2    S    
C44   H37   S    
C35   C36   S    
C28   C30   A    
C42   C43   A    
C17   C19   S    
C18   C20   S    
C15   N1    S    
C44   C45   A    
C22   O10   S    
C53   C54   S    
C34   H17   S    
C5    C10   S    
Cu2   O3    S    
C35   H21   S    
C13   C16   S    
C45   C46   A    
C56   H53   S    
C14   C15   S    
C39   H31   S    
C55   H50   S    
C55   H51   S    
C43   H36   S    
C13   O13   S    
Cu1   O5    S    
C17   O7    A    
