data_mof_unit_24583.cif
_audit_creation_date              2012-12-10T19:04:15-0500
_audit_creation_method            fapswitch 2.2
_symmetry_space_group_name_H-M    P1
_symmetry_Int_Tables_number       1
_space_group_crystal_system       triclinic
_cell_length_a                    10.671034
_cell_length_b                    10.77872
_cell_length_c                    9.617257
_cell_angle_alpha                 89.918615
_cell_angle_beta                  91.055628
_cell_angle_gamma                 90.485122
_cell_volume                      1105.94947328

loop_
_atom_site_label
_atom_site_type_symbol
_atom_type_description
_atom_site_fract_x
_atom_site_fract_y
_atom_site_fract_z
_atom_type_partial_charge
C1    C     C_R   0.499648 0.262744 0.499904 0.812356
C2    C     C_3   0.958066 0.459887 0.375111 0.346925
C3    C     C_3   0.043347 0.384991 0.470783 0.397103
C4    C     C_3   0.124025 0.500066 0.496446 -0.112404
C5    C     C_R   0.409165 0.063043 0.573883 0.097315
C6    C     C_R   0.496559 0.129449 0.496980 -0.081267
C7    C     C_R   0.572505 0.065422 0.403963 -0.241469
C8    C     C_R   0.572817 0.935981 0.404562 -0.208149
C9    C     C_R   0.496041 0.870517 0.496867 -0.119337
C10   C     C_R   0.407984 0.935407 0.573026 0.138649
C11   C     C_3   0.371252 0.928432 0.721947 0.178249
C12   C     C_R   0.259986 0.500316 0.498833 0.868823
C13   C     C_3   0.373648 0.069881 0.722939 -0.522441
C14   C     C_R   0.521254 0.607476 0.074344 0.134822
C15   C     C_R   0.461936 0.398755 0.073398 -0.076437
C16   C     C_R   0.460519 0.399351 0.925198 -0.094090
C17   C     C_R   0.529017 0.605086 0.927794 0.199981
C18   C     C_3   0.651411 0.675138 0.933955 0.775169
C19   C     C_3   0.631751 0.691480 0.091547 -0.672301
C20   C     C_R   0.499417 0.737256 0.499794 0.829519
C21   C     C_R   0.740445 0.496552 0.500555 0.856629
C22   C     C_3   0.045187 0.533446 0.624032 -0.198870
C23   C     C_3   0.962915 0.415222 0.596706 -0.336434
C24   C     C_3   0.877452 0.493179 0.499852 -0.102371
C25   C     C_3   0.959891 0.608746 0.524482 0.474620
C26   C     C_3   0.039924 0.576796 0.396587 -0.423682
Cu1   Cu    Cu3+1 0.499990 0.499980 0.640670 0.999211
Cu2   Cu    Cu3+1 0.500010 0.500020 0.359330 0.966518
H1    H     H_    0.934944 0.337858 0.665217 0.163795
H2    H     H_    0.441664 0.884154 0.791626 0.179142
H3    H     H_    0.280152 0.112665 0.736117 0.225486
H4    H     H_    0.450023 0.108689 0.790194 0.164024
H5    H     H_    0.432947 0.315579 0.127242 0.153642
H6    H     H_    0.429156 0.317305 0.870241 0.145310
H7    H     H_    0.704995 0.656761 0.164521 0.202580
H8    H     H_    0.600586 0.786317 0.118972 0.194362
H9    H     H_    0.083109 0.567359 0.725438 0.172253
H10   H     H_    0.073385 0.639463 0.313166 0.149054
H11   H     H_    0.635988 0.115135 0.336634 0.161810
H12   H     H_    0.637439 0.887528 0.338757 0.158562
N1    N     N_R   0.500800 0.500930 0.147930 -0.177445
N2    N     N_R   0.500800 0.500890 0.852020 -0.193778
O1    O     O_R   0.500000 0.319640 0.618810 -0.600118
O2    O     O_R   0.500010 0.319680 0.381230 -0.588018
O3    O     O_R   0.316850 0.499950 0.618770 -0.587318
O4    O     O_R   0.316860 0.499990 0.381190 -0.575683
O5    O     O_R   0.499990 0.680320 0.618770 -0.549009
O6    O     O_R   0.500000 0.680360 0.381190 -0.587476
O7    O     O_R   0.683140 0.500010 0.618810 -0.533111
O8    O     O_R   0.683150 0.500050 0.381230 -0.568096
O9    O     O_3   0.752918 0.600852 0.886462 -0.570395
C27   C     C_3   0.799035 0.515106 0.986453 0.063453
H13   H     H_    0.724403 0.472700 0.049851 0.187477
H14   H     H_    0.869652 0.562768 0.054267 0.178859
C28   C     C_3   0.860320 0.407019 0.915597 -0.781937
H15   H     H_    0.952114 0.437297 0.875422 0.237765
H16   H     H_    0.876815 0.330223 0.990458 0.218916
H17   H     H_    0.796782 0.371242 0.832027 0.259936
O10   O     O_3   0.640845 0.787601 0.859451 -0.602894
C29   C     C_3   0.751222 0.859656 0.875595 0.114564
H18   H     H_    0.786511 0.862157 0.985329 0.122083
H19   H     H_    0.825415 0.821559 0.808918 0.226394
C30   C     C_3   0.723612 0.992299 0.831004 -0.866314
H20   H     H_    0.652948 0.033018 0.900505 0.240854
H21   H     H_    0.810567 0.049450 0.837627 0.210564
H22   H     H_    0.686513 0.993868 0.722385 0.265248
O11   O     O_3   0.910352 0.725751 0.559024 -0.577386
C31   C     C_3   0.990027 0.820481 0.509049 0.074542
H23   H     H_    0.977525 0.829446 0.394375 0.133381
H24   H     H_    0.090430 0.801820 0.534751 0.192839
C32   C     C_3   0.956690 0.943831 0.574261 -0.763351
H25   H     H_    0.974674 0.940592 0.688156 0.250724
H26   H     H_    0.016210 0.018351 0.530063 0.222337
H27   H     H_    0.856723 0.965459 0.552315 0.241738
O12   O     O_3   0.912203 0.413781 0.248850 -0.764162
H28   H     H_    0.987880 0.395681 0.194425 0.327086
O13   O     O_3   0.091601 0.268245 0.439931 -0.745865
H29   H     H_    0.017858 0.216606 0.412965 0.320737
O14   O     O_3   0.249960 0.879703 0.734567 -0.737892
H30   H     H_    0.232138 0.880923 0.835423 0.324091

loop_
_geom_bond_atom_site_label_1
_geom_bond_atom_site_label_2
_ccdc_geom_bond_type
C28   H15   S    
C30   H21   S    
C13   H4    S    
C3    C23   S    
C25   O11   S    
C21   O7    A    
C7    C8    A    
O13   H29   S    
Cu2   O4    S    
C29   C30   S    
C23   H1    S    
C19   H8    S    
C5    C6    A    
C15   C16   A    
Cu2   N1    S    
O9    C27   S    
C29   H19   S    
C18   C19   S    
C17   N2    A    
C9    C20   S    
C16   H6    S    
C31   H23   S    
Cu2   O8    S    
C1    O1    A    
C11   H2    S    
C8    C9    A    
C22   C25   S    
C23   C24   S    
C4    C12   S    
C9    C10   A    
C5    C13   S    
C27   C28   S    
Cu1   O3    S    
C30   H22   S    
O10   C29   S    
C14   C17   A    
C21   O8    A    
C27   H14   S    
C18   O9    S    
O11   C31   S    
C24   C25   S    
C15   N1    A    
C12   O4    A    
C32   H26   S    
C26   H10   S    
C25   C26   S    
C30   H20   S    
C22   H9    S    
Cu2   O2    S    
C1    C6    S    
C29   H18   S    
O12   H28   S    
C4    C22   S    
C1    O2    A    
C17   C18   S    
C2    C26   S    
C20   O6    A    
C11   O14   S    
C14   N1    A    
C28   H16   S    
C2    C24   S    
C28   H17   S    
C3    C4    S    
C3    O13   S    
C16   N2    A    
C27   H13   S    
Cu1   O5    S    
Cu2   O6    S    
C14   C19   S    
C13   H3    S    
C12   O3    A    
C32   H27   S    
C4    C26   S    
C6    C7    A    
C2    C3    S    
C5    C10   A    
C19   H7    S    
C11   C13   S    
Cu1   N2    S    
C31   C32   S    
C20   O5    A    
C10   C11   S    
O14   H30   S    
Cu1   O1    S    
C18   O10   S    
C32   H25   S    
C31   H24   S    
C21   C24   S    
Cu1   Cu2   S    
C7    H11   S    
C22   C23   S    
C8    H12   S    
C15   H5    S    
C2    O12   S    
Cu1   O7    S    
