data_mof_unit_44557.cif
_audit_creation_date              2012-12-10T19:07:03-0500
_audit_creation_method            fapswitch 2.2
_symmetry_space_group_name_H-M    P1
_symmetry_Int_Tables_number       1
_space_group_crystal_system       triclinic
_cell_length_a                    27.790031
_cell_length_b                    10.811687
_cell_length_c                    9.558557
_cell_angle_alpha                 89.961536
_cell_angle_beta                  89.830464
_cell_angle_gamma                 89.671908
_cell_volume                      2871.87620485

loop_
_atom_site_label
_atom_site_type_symbol
_atom_type_description
_atom_site_fract_x
_atom_site_fract_y
_atom_site_fract_z
_atom_type_partial_charge
C1    C     C_R   0.499286 0.262359 0.500015 0.822573
C2    C     C_R   0.279186 0.496088 0.631168 -0.095181
C3    C     C_R   0.253524 0.504966 0.505885 0.356670
C4    C     C_R   0.101844 0.509340 0.518515 -0.064171
C5    C     C_R   0.127642 0.397043 0.530237 -0.015211
C6    C     C_R   0.102838 0.285648 0.543154 -0.137466
C7    C     C_R   0.127291 0.622193 0.507087 -0.046567
C8    C     C_R   0.354448 0.501360 0.501589 -0.037012
C9    C     C_R   0.645076 0.501575 0.500502 -0.010926
C10   C     C_R   0.974580 0.394604 0.539861 0.042338
C11   C     C_R   0.973900 0.617923 0.486962 0.051522
C12   C     C_R   0.407460 0.500283 0.500253 0.798791
C13   C     C_R   0.948960 0.505840 0.511971 0.066075
C14   C     C_R   0.947925 0.287132 0.572561 -0.206049
C15   C     C_R   0.897932 0.288011 0.572209 -0.145148
C16   C     C_R   0.872467 0.395862 0.539463 -0.019509
C17   C     C_R   0.897823 0.505069 0.509235 -0.044487
C18   C     C_R   0.871935 0.613528 0.476327 -0.019645
C19   C     C_R   0.821436 0.610755 0.474175 0.534324
C20   C     C_R   0.821949 0.397379 0.537537 0.532992
C21   C     C_R   0.721347 0.432719 0.403728 -0.096506
C22   C     C_R   0.671182 0.431687 0.402538 -0.213670
C23   C     C_R   0.499182 0.737615 0.500065 0.799483
C24   C     C_R   0.669678 0.571876 0.600412 -0.240111
C25   C     C_R   0.719843 0.572695 0.601817 -0.104114
C26   C     C_R   0.745892 0.503250 0.503345 0.351241
C27   C     C_R   0.025718 0.394497 0.534821 0.047665
C28   C     C_R   0.050650 0.508108 0.517665 0.070399
C29   C     C_R   0.024855 0.620209 0.498819 0.044420
C30   C     C_R   0.052967 0.284105 0.545201 -0.207314
C31   C     C_R   0.100870 0.734838 0.505897 0.000405
C32   C     C_R   0.946837 0.724081 0.449291 -0.205717
C33   C     C_R   0.896889 0.721813 0.444746 -0.146518
C34   C     C_R   0.592378 0.500189 0.499971 0.808959
C35   C     C_R   0.050744 0.732058 0.497550 -0.276622
C36   C     C_R   0.497966 0.063634 0.625670 0.063651
C37   C     C_R   0.494827 0.129225 0.500323 -0.098163
C38   C     C_R   0.485290 0.064614 0.376034 -0.201170
C39   C     C_R   0.485276 0.935712 0.376210 -0.202623
C40   C     C_R   0.494642 0.870776 0.500789 -0.122424
C41   C     C_R   0.497482 0.936159 0.626505 0.139001
C42   C     C_3   0.534768 0.929476 0.739448 -0.070501
C43   C     C_3   0.535356 0.070196 0.737251 -0.399045
C44   C     C_R   0.537513 0.450947 0.073545 0.233164
C45   C     C_R   0.178002 0.398151 0.527519 0.536153
C46   C     C_R   0.461399 0.543908 0.074502 -0.075991
C47   C     C_R   0.461391 0.543830 0.925955 -0.109967
C48   C     C_R   0.537507 0.450031 0.926008 0.312241
C49   C     C_3   0.588901 0.491666 0.921343 -0.262976
C50   C     C_3   0.588444 0.492695 0.079780 -0.561913
C51   C     C_R   0.178080 0.616743 0.494532 0.564324
C52   C     C_R   0.278207 0.511897 0.378266 -0.097106
C53   C     C_R   0.328427 0.509928 0.375951 -0.210634
C54   C     C_R   0.329317 0.494482 0.629255 -0.209872
Cu1   Cu    Cu3+1 0.500000 0.499980 0.640670 0.962377
Cu2   Cu    Cu3+1 0.500000 0.500020 0.359330 0.946866
H1    H     H_    0.348322 0.487729 0.727734 0.153774
H2    H     H_    0.258437 0.518611 0.281087 0.139458
H3    H     H_    0.963278 0.810059 0.418826 0.141162
H4    H     H_    0.650092 0.626866 0.676440 0.132270
H5    H     H_    0.877883 0.805790 0.415982 0.188464
H6    H     H_    0.738523 0.627032 0.679509 0.146120
H7    H     H_    0.032431 0.820290 0.499291 0.124772
H8    H     H_    0.480020 0.112968 0.277943 0.167757
H9    H     H_    0.480068 0.887512 0.278146 0.168371
H10   H     H_    0.260189 0.490725 0.730045 0.140180
H11   H     H_    0.569165 0.886509 0.703828 0.166384
H12   H     H_    0.521410 0.115256 0.833913 0.214548
H13   H     H_    0.569888 0.107950 0.697460 0.221374
H14   H     H_    0.430634 0.581389 0.129784 0.142797
H15   H     H_    0.430655 0.581365 0.871040 0.151085
H16   H     H_    0.593182 0.585290 0.874858 0.143723
H17   H     H_    0.611945 0.421509 0.128405 0.191994
H18   H     H_    0.592049 0.587149 0.124441 0.217168
H19   H     H_    0.121940 0.198241 0.550760 0.194748
H20   H     H_    0.652847 0.374002 0.327631 0.139617
H21   H     H_    0.741199 0.378350 0.327697 0.145606
H22   H     H_    0.879285 0.203203 0.597907 0.187911
H23   H     H_    0.964548 0.200857 0.602204 0.139166
H24   H     H_    0.036902 0.193870 0.551374 0.134217
H25   H     H_    0.346802 0.515513 0.276104 0.150954
N1    N     N_R   0.201970 0.506633 0.508866 -0.477892
N2    N     N_R   0.797535 0.503803 0.505030 -0.468371
N3    N     N_R   0.500300 0.500930 0.147930 -0.184496
N4    N     N_R   0.500310 0.500890 0.852020 -0.209495
O1    O     O_R   0.500000 0.319640 0.618810 -0.556349
O2    O     O_2   0.797392 0.293614 0.569000 -0.534244
O3    O     O_2   0.203551 0.719096 0.464249 -0.487596
O4    O     O_2   0.796400 0.713865 0.440592 -0.536387
O5    O     O_R   0.500010 0.319680 0.381230 -0.584569
O6    O     O_R   0.430260 0.500000 0.618780 -0.590588
O7    O     O_R   0.430270 0.500040 0.381190 -0.590961
O8    O     O_R   0.499990 0.680320 0.618770 -0.583623
O9    O     O_R   0.500000 0.680360 0.381190 -0.580929
O10   O     O_R   0.569730 0.499960 0.618810 -0.566391
O11   O     O_R   0.569740 0.500000 0.381220 -0.584560
O12   O     O_2   0.202960 0.291367 0.541451 -0.516555
C55   C     C_2   0.122740 0.858703 0.523034 0.470928
H26   H     H_    0.108847 0.936625 0.463559 0.031708
O13   O     O_2   0.153617 0.876917 0.611141 -0.481414
C56   C     C_3   0.515600 0.875544 0.876782 -0.813868
H27   H     H_    0.540943 0.896985 0.962861 0.233794
H28   H     H_    0.479602 0.914353 0.903430 0.236859
H29   H     H_    0.512812 0.773640 0.868151 0.253770
C57   C     C_2   0.623812 0.397387 0.863514 0.420119
H30   H     H_    0.662152 0.413005 0.874167 0.080711
O14   O     O_2   0.609867 0.304308 0.804349 -0.554530

loop_
_geom_bond_atom_site_label_1
_geom_bond_atom_site_label_2
_ccdc_geom_bond_type
C10   C27   A    
C21   C26   A    
C1    O5    A    
C41   C42   S    
C12   O6    A    
C45   N1    A    
C22   H20   S    
Cu1   Cu2   S    
C8    C53   A    
C6    H19   S    
Cu2   O9    S    
C57   O14   D    
C28   C29   A    
C56   H27   S    
C26   N2    S    
C47   N4    A    
C36   C37   A    
C34   O11   A    
C50   H18   S    
C5    C6    A    
C9    C22   A    
C15   H22   S    
C42   H11   S    
C23   C40   S    
C20   O2    S    
C53   H25   S    
C18   C19   A    
C31   C55   S    
Cu1   O6    S    
C43   H12   S    
C49   H16   S    
C16   C20   A    
C30   H24   S    
Cu2   O5    S    
C56   H28   S    
C21   C22   A    
C27   C30   A    
C39   H9    S    
C36   C41   A    
C4    C7    A    
C19   N2    A    
C4    C28   A    
Cu2   N3    S    
C38   H8    S    
C7    C31   A    
C34   O10   A    
Cu1   O10   S    
C2    C54   A    
C50   H17   S    
C8    C54   A    
C39   C40   A    
C16   C17   A    
C49   C57   S    
C44   N3    A    
C25   C26   A    
C5    C45   A    
C23   O8    A    
Cu1   N4    S    
C37   C38   A    
C19   O4    S    
C8    C12   S    
C3    N1    S    
C17   C18   A    
C14   H23   S    
C24   C25   A    
C51   N1    A    
C47   H15   S    
C52   H2    S    
C46   N3    A    
C48   C49   S    
C6    C30   A    
C11   C32   A    
C49   C50   S    
C56   H29   S    
C55   O13   D    
C10   C14   A    
C9    C34   S    
C31   C35   A    
C42   C43   S    
C42   C56   S    
C52   C53   A    
C44   C50   S    
C1    O1    A    
Cu2   O11   S    
C46   C47   A    
C40   C41   A    
C14   C15   A    
C12   O7    A    
C4    C5    A    
C2    H10   S    
C10   C13   A    
C51   O3    S    
C3    C52   A    
C9    C24   A    
C1    C37   S    
C57   H30   S    
C29   C35   A    
C23   O9    A    
C13   C17   A    
C32   C33   A    
Cu1   O1    S    
C2    C3    A    
C7    C51   A    
C45   O12   S    
C11   C13   A    
C38   C39   A    
C25   H6    S    
C18   C33   A    
C46   H14   S    
C44   C48   A    
Cu2   O7    S    
C11   C29   A    
C33   H5    S    
C55   H26   S    
C20   N2    A    
C21   H21   S    
C27   C28   A    
C48   N4    A    
C36   C43   S    
C35   H7    S    
C24   H4    S    
C32   H3    S    
C43   H13   S    
Cu1   O8    S    
C15   C16   A    
C54   H1    S    
