data_mof_unit_20126.cif
_audit_creation_date              2012-12-10T21:07:40-0500
_audit_creation_method            fapswitch 2.2
_symmetry_space_group_name_H-M    P1
_symmetry_Int_Tables_number       1
_space_group_crystal_system       triclinic
_cell_length_a                    8.624275
_cell_length_b                    17.548017
_cell_length_c                    16.865931
_cell_angle_alpha                 91.710002
_cell_angle_beta                  98.40481
_cell_angle_gamma                 92.113718
_cell_volume                      2521.73744313

loop_
_atom_site_label
_atom_site_type_symbol
_atom_type_description
_atom_site_fract_x
_atom_site_fract_y
_atom_site_fract_z
_atom_type_partial_charge
C1    C     C_R   0.501182 0.353566 0.499323 0.945784
C2    C     C_R   0.499587 0.646488 0.500740 0.896785
C3    C     C_1   0.509626 0.966527 0.501883 -0.030496
C4    C     C_1   0.512937 0.034176 0.501851 -0.026366
C5    C     C_R   0.455020 0.432117 0.825914 -0.264471
C6    C     C_R   0.542921 0.567929 0.173812 -0.260785
C7    C     C_R   0.455558 0.434803 0.742074 0.023359
C8    C     C_R   0.542880 0.565345 0.257692 0.040694
C9    C     C_R   0.543053 0.564855 0.756772 0.400288
C10   C     C_R   0.458131 0.434891 0.243443 0.352066
C11   C     C_R   0.511383 0.567418 0.837669 0.317308
C12   C     C_R   0.489578 0.432381 0.162531 0.281295
C13   C     C_R   0.483737 0.498864 0.874836 -0.069138
C14   C     C_R   0.515450 0.501008 0.125099 -0.070147
C15   C     C_1   0.493577 0.498204 0.963204 0.196949
C16   C     C_1   0.505246 0.501560 0.036712 0.179643
C17   C     C_R   0.201459 0.500648 0.479774 0.954821
C18   C     C_R   0.798563 0.499413 0.520176 0.974818
C19   C     C_2   0.041827 0.515821 0.473081 0.049913
C20   C     C_2   0.958023 0.483915 0.526559 0.113413
C21   C     C_R   0.417831 0.847898 0.552516 -0.114226
C22   C     C_R   0.599421 0.153807 0.450946 -0.127516
C23   C     C_R   0.414745 0.768773 0.552172 -0.132225
C24   C     C_R   0.595789 0.232775 0.449853 -0.078757
C25   C     C_R   0.500409 0.728812 0.501393 -0.029899
C26   C     C_R   0.505047 0.271427 0.499136 -0.012682
C27   C     C_R   0.583867 0.767836 0.448699 -0.131184
C28   C     C_R   0.422756 0.231442 0.551588 -0.153831
C29   C     C_R   0.586996 0.846761 0.449140 -0.146930
C30   C     C_R   0.426423 0.152704 0.552611 -0.147284
C31   C     C_R   0.505045 0.886277 0.501432 0.131076
C32   C     C_R   0.513804 0.114378 0.501975 0.129390
H1    H     H_    0.352467 0.879025 0.592169 0.155980
H2    H     H_    0.668280 0.123616 0.412279 0.158226
H3    H     H_    0.429032 0.378354 0.852047 0.211453
H4    H     H_    0.567603 0.621762 0.147479 0.199906
H5    H     H_    0.424694 0.383345 0.705531 0.182027
H6    H     H_    0.572792 0.616975 0.294067 0.181416
N1    N     N_R   0.500040 0.500030 0.707230 -0.162000
N2    N     N_R   0.499960 0.499970 0.292770 -0.155675
O1    O     O_R   0.500000 0.389130 0.566570 -0.622269
O2    O     O_R   0.500000 0.610870 0.433430 -0.623778
O3    O     O_R   0.499990 0.389100 0.433480 -0.576486
O4    O     O_R   0.500010 0.610900 0.566520 -0.572149
O5    O     O_R   0.271750 0.500010 0.550980 -0.603531
O6    O     O_R   0.728250 0.499990 0.449020 -0.600537
O7    O     O_R   0.271740 0.499980 0.417890 -0.534898
O8    O     O_R   0.728260 0.500020 0.582110 -0.532369
Zn1   Zn    Zn3+2 0.500010 0.500020 0.588860 1.098744
Zn2   Zn    Zn3+2 0.499990 0.499980 0.411140 1.101266
S1    S     S_3+6 0.980905 0.592533 0.409743 0.034474
O9    O     O_2   0.893287 0.560153 0.331783 -0.236804
O10   O     O_2   0.876215 0.643846 0.448852 -0.357700
O11   O     O_3   0.137410 0.644629 0.389902 -0.518388
H7    H     H_    0.168052 0.678588 0.438011 0.336320
S2    S     S_3+6 0.017580 0.405958 0.588288 0.022933
O12   O     O_2   0.121140 0.355174 0.547780 -0.344518
O13   O     O_2   0.104918 0.436842 0.666977 -0.272327
O14   O     O_3   0.859068 0.354008 0.605869 -0.569370
H8    H     H_    0.901493 0.312370 0.639927 0.385744
H9    H     H_    0.344628 0.738815 0.590594 0.182442
H10   H     H_    0.664496 0.263643 0.411444 0.186801
H11   H     H_    0.647530 0.737404 0.407833 0.194041
H12   H     H_    0.354844 0.260996 0.591129 0.188613
H13   H     H_    0.653108 0.876899 0.409002 0.155437
H14   H     H_    0.360883 0.121749 0.592408 0.154084
S3    S     S_3+6 0.670173 0.639908 0.730818 0.106823
O15   O     O_2   0.771191 0.615409 0.670659 -0.267888
O16   O     O_2   0.575026 0.705120 0.698950 -0.289955
O17   O     O_3   0.792310 0.671352 0.813220 -0.461505
H15   H     H_    0.844229 0.718603 0.797291 0.397321
S4    S     S_3+6 0.331299 0.359731 0.269585 0.121112
O18   O     O_2   0.426343 0.295234 0.303312 -0.233999
O19   O     O_2   0.228444 0.384554 0.328784 -0.267833
O20   O     O_3   0.211160 0.325953 0.187534 -0.439917
H16   H     H_    0.146511 0.369453 0.169513 0.363565
S5    S     S_3+6 0.500791 0.654919 0.893708 0.085671
O21   O     O_2   0.476919 0.722009 0.840730 -0.204262
O22   O     O_2   0.365167 0.648473 0.940271 -0.299130
O23   O     O_3   0.667285 0.669557 0.958819 -0.503086
H17   H     H_    0.646670 0.712843 0.994323 0.383861
S6    S     S_3+6 0.502930 0.344835 0.107082 0.082613
O24   O     O_2   0.353797 0.329746 0.049581 -0.267663
O25   O     O_2   0.637244 0.352328 0.059770 -0.290323
O26   O     O_3   0.535025 0.270302 0.166667 -0.449168
H18   H     H_    0.530122 0.225176 0.129550 0.394991

loop_
_geom_bond_atom_site_label_1
_geom_bond_atom_site_label_2
_ccdc_geom_bond_type
O4    Zn1   S    
C27   C29   A    
C19   C20   D    
C20   S2    S    
S5    O21   D    
C21   C31   A    
C22   C32   A    
C24   C26   A    
C21   H1    S    
C15   C16   T    
C9    N1    A    
S2    O12   D    
C18   C20   S    
C10   N2    A    
C11   S5    S    
C1    O3    A    
S2    O13   D    
O17   H15   S    
C5    C13   A    
O14   H8    S    
C8    H6    S    
S4    O20   S    
C18   O6    A    
O1    Zn1   S    
O7    Zn2   S    
S5    O22   D    
C21   C23   A    
C22   H2    S    
S1    O9    D    
S4    O19   D    
C2    O4    A    
C5    C7    A    
O23   H17   S    
C6    C8    A    
O26   H18   S    
S3    O15   D    
S3    O16   D    
O20   H16   S    
C9    S3    S    
C6    C14   A    
O5    Zn1   S    
C7    H5    S    
C12   S6    S    
C4    C32   S    
C3    C31   S    
C9    C11   A    
C30   H14   S    
C10   C12   A    
O2    Zn2   S    
C29   H13   S    
C28   H12   S    
C1    O1    A    
O8    Zn1   S    
N1    Zn1   S    
C12   C14   A    
S6    O25   D    
C13   C15   S    
C1    C26   S    
C22   C24   A    
C3    C4    T    
S5    O23   S    
O11   H7    S    
C24   H10   S    
C17   O7    A    
C17   O5    A    
S4    O18   D    
C18   O8    A    
O3    Zn2   S    
C25   C27   A    
S6    O26   S    
O6    Zn2   S    
C26   C28   A    
S2    O14   S    
S3    O17   S    
S1    O11   S    
C28   C30   A    
C29   C31   A    
C30   C32   A    
C11   C13   A    
C2    O2    A    
N2    Zn2   S    
C5    H3    S    
C17   C19   S    
C6    H4    S    
C2    C25   S    
C14   C16   S    
C23   C25   A    
C19   S1    S    
C23   H9    S    
S6    O24   D    
C7    N1    A    
C27   H11   S    
C8    N2    A    
S1    O10   D    
C10   S4    S    
