data_mof_unit_66126.cif
_audit_creation_date              2012-12-10T16:54:13-0500
_audit_creation_method            fapswitch 2.2
_symmetry_space_group_name_H-M    P1
_symmetry_Int_Tables_number       1
_space_group_crystal_system       triclinic
_cell_length_a                    18.538036
_cell_length_b                    18.537666
_cell_length_c                    42.903058
_cell_angle_alpha                 90.0
_cell_angle_beta                  89.999842
_cell_angle_gamma                 90.000118
_cell_volume                      14743.7182411

loop_
_atom_site_label
_atom_site_type_symbol
_atom_type_description
_atom_site_fract_x
_atom_site_fract_y
_atom_site_fract_z
_atom_type_partial_charge
C1    C     C_R   0.500001 0.000000 0.584081 0.838527
C2    C     C_R   0.000038 0.499997 0.281301 0.279761
C3    C     C_R   0.013033 0.564030 0.332299 -0.167809
C4    C     C_R   0.935930 0.512839 0.832296 -0.167838
C5    C     C_R   0.487114 0.935948 0.832297 -0.167842
C6    C     C_R   0.064071 0.487199 0.832295 -0.167826
C7    C     C_R   0.512933 0.064049 0.832298 -0.167816
C8    C     C_R   0.500007 0.000021 0.315705 0.087790
C9    C     C_R   0.000030 0.499997 0.315706 0.087750
C10   C     C_R   0.000001 0.500023 0.815703 0.087793
C11   C     C_R   0.500029 0.999999 0.815705 0.087738
C12   C     C_R   0.500001 0.000006 0.381379 -0.002375
C13   C     C_R   0.000000 0.500030 0.781297 0.279667
C14   C     C_R   0.000008 0.500000 0.381380 -0.002418
C15   C     C_R   0.000000 0.500007 0.881378 -0.002393
C16   C     C_R   0.500008 1.000000 0.881379 -0.002444
C17   C     C_3   0.059806 0.623575 0.686082 -0.388508
C18   C     C_3   0.005235 0.683655 0.692210 -0.838860
C19   C     C_3   0.623316 0.939737 0.686080 -0.388880
C20   C     C_3   0.683563 0.994075 0.692242 -0.839201
C21   C     C_3   0.940139 0.376499 0.686091 -0.388501
C22   C     C_3   0.994683 0.316405 0.692240 -0.838823
C23   C     C_3   0.376762 0.060288 0.686095 -0.388885
C24   C     C_R   0.500037 0.999998 0.781299 0.279763
C25   C     C_3   0.316511 0.005958 0.692264 -0.839185
C26   C     C_3   0.560302 0.123304 0.186080 -0.388810
C27   C     C_3   0.505981 0.183576 0.192240 -0.839078
C28   C     C_3   0.123087 0.439211 0.186079 -0.388781
C29   C     C_3   0.183545 0.493315 0.192274 -0.838991
C30   C     C_3   0.439745 0.876728 0.186094 -0.388794
C31   C     C_3   0.494087 0.816477 0.192254 -0.839103
C32   C     C_3   0.876990 0.560807 0.186095 -0.388786
C33   C     C_3   0.816529 0.506711 0.192295 -0.838961
C34   C     C_3   0.039658 0.631617 0.616155 -0.405081
C35   C     C_R   0.026598 0.561196 0.667674 0.119331
C36   C     C_3   0.971278 0.667663 0.603620 -0.870636
C37   C     C_3   0.631486 0.959967 0.616160 -0.404846
C38   C     C_3   0.667697 0.028245 0.603618 -0.871721
C39   C     C_3   0.960353 0.368397 0.616168 -0.404803
C40   C     C_3   0.028744 0.332344 0.603647 -0.870760
C41   C     C_3   0.368545 0.040060 0.616177 -0.405193
C42   C     C_3   0.332313 0.971788 0.603642 -0.871125
C43   C     C_3   0.540061 0.131486 0.116163 -0.405166
C44   C     C_3   0.471784 0.167705 0.103621 -0.871148
C45   C     C_3   0.131376 0.459540 0.116168 -0.404724
C46   C     C_R   0.561090 0.973193 0.667676 0.119348
C47   C     C_3   0.167784 0.527717 0.103625 -0.871618
C48   C     C_3   0.459968 0.868525 0.116176 -0.404868
C49   C     C_3   0.528254 0.832309 0.103643 -0.871192
C50   C     C_3   0.868656 0.540489 0.116185 -0.405069
C51   C     C_3   0.832227 0.472319 0.103646 -0.870996
C52   C     C_R   0.973385 0.438854 0.667679 0.119375
C53   C     C_R   0.438972 0.026825 0.667684 0.119367
C54   C     C_R   0.526828 0.061081 0.167677 0.119362
C55   C     C_R   0.060994 0.472947 0.167678 0.119303
C56   C     C_R   0.473194 0.938953 0.167683 0.119380
C57   C     C_R   0.000000 0.500001 0.584080 0.838534
C58   C     C_R   0.939069 0.527067 0.167686 0.119319
C59   C     C_R   0.022268 0.562975 0.634613 0.099401
C60   C     C_R   0.562895 0.977538 0.634614 0.099335
C61   C     C_R   0.977728 0.437053 0.634619 0.099232
C62   C     C_R   0.437145 0.022478 0.634622 0.099385
C63   C     C_R   0.522481 0.062889 0.134615 0.099364
C64   C     C_R   0.062823 0.477310 0.134618 0.099338
C65   C     C_R   0.477534 0.937133 0.134621 0.099217
C66   C     C_R   0.937217 0.522704 0.134626 0.099384
C67   C     C_R   0.000001 0.500010 0.618409 -0.101689
C68   C     C_R   0.000001 0.500000 0.084082 0.838497
C69   C     C_R   0.500013 0.000003 0.618411 -0.101564
C70   C     C_R   0.500002 0.000008 0.118411 -0.101606
C71   C     C_R   0.000013 0.500003 0.118413 -0.101716
C72   C     C_R   0.999992 0.500028 0.683865 -0.063958
C73   C     C_R   0.500035 0.000007 0.683867 -0.063762
C74   C     C_R   0.500010 0.000022 0.183867 -0.063784
C75   C     C_R   0.000036 0.500005 0.183870 -0.063756
C76   C     C_R   0.500000 0.000000 0.415738 0.784486
C77   C     C_R   0.000001 0.500000 0.415738 0.784621
C78   C     C_R   0.000000 0.500001 0.915738 0.784490
C79   C     C_R   0.500000 0.000001 0.084081 0.838634
C80   C     C_R   0.500001 0.000000 0.915738 0.784626
C81   C     C_R   0.361257 0.138462 0.500130 0.856185
C82   C     C_R   0.861259 0.361533 0.499958 0.855760
C83   C     C_R   0.638744 0.861538 0.500131 0.856143
C84   C     C_R   0.138461 0.638744 0.500130 0.856049
C85   C     C_R   0.638750 0.138456 0.500134 0.855443
C86   C     C_R   0.138734 0.361527 0.499963 0.855027
C87   C     C_R   0.361528 0.861264 0.499962 0.855113
C88   C     C_R   0.861265 0.638472 0.499962 0.854996
C89   C     C_R   0.861256 0.638461 0.000131 0.856203
C90   C     C_R   0.999996 0.500032 0.718173 0.311155
C91   C     C_R   0.361259 0.861533 0.999959 0.855781
C92   C     C_R   0.138744 0.361539 0.000131 0.856159
C93   C     C_R   0.638461 0.138744 0.000130 0.856072
C94   C     C_R   0.138750 0.638456 0.000134 0.855455
C95   C     C_R   0.638735 0.861528 0.999962 0.855032
C96   C     C_R   0.861529 0.361264 0.999962 0.855125
C97   C     C_R   0.361265 0.138472 0.999962 0.855009
C98   C     C_2   0.192808 0.751064 0.481886 -0.161649
C99   C     C_2   0.248933 0.192803 0.481889 -0.161658
C100  C     C_2   0.808333 0.247796 0.482594 -0.162369
C101  C     C_R   0.500043 0.000001 0.718174 0.311213
C102  C     C_2   0.751063 0.807193 0.481886 -0.161469
C103  C     C_2   0.808334 0.752203 0.482595 -0.161944
C104  C     C_2   0.751056 0.192813 0.481882 -0.161335
C105  C     C_2   0.191668 0.247798 0.482594 -0.162153
C106  C     C_2   0.247799 0.808334 0.482595 -0.161984
C107  C     C_2   0.692809 0.251064 0.981885 -0.161642
C108  C     C_2   0.748935 0.692805 0.981887 -0.161650
C109  C     C_2   0.308335 0.747794 0.982596 -0.162357
C110  C     C_2   0.251063 0.307193 0.981886 -0.161465
C111  C     C_2   0.308333 0.252203 0.982595 -0.161940
C112  C     C_R   0.500012 0.000029 0.218175 0.311174
C113  C     C_2   0.251061 0.692809 0.981884 -0.161330
C114  C     C_2   0.691665 0.747795 0.982596 -0.162152
C115  C     C_2   0.747799 0.308334 0.982595 -0.161979
C116  C     C_2   0.193312 0.694477 0.501369 -0.296953
C117  C     C_2   0.305529 0.193318 0.501367 -0.296929
C118  C     C_2   0.804068 0.308128 0.499755 -0.296812
C119  C     C_2   0.694477 0.806688 0.501370 -0.296982
C120  C     C_2   0.804086 0.691887 0.499767 -0.294987
C121  C     C_2   0.694499 0.193291 0.501381 -0.295441
C122  C     C_2   0.195908 0.308107 0.499772 -0.294887
C123  C     C_R   0.000044 0.499999 0.218177 0.311344
C124  C     C_2   0.308113 0.804086 0.499768 -0.294938
C125  C     C_2   0.693311 0.194478 0.001369 -0.296953
C126  C     C_2   0.805522 0.693311 0.001370 -0.296942
C127  C     C_2   0.304070 0.808127 0.999757 -0.296809
C128  C     C_2   0.194476 0.306688 0.001369 -0.296988
C129  C     C_2   0.304086 0.191887 0.999768 -0.294985
C130  C     C_2   0.194496 0.693293 0.001380 -0.295437
C131  C     C_2   0.695914 0.808113 0.999768 -0.294887
C132  C     C_2   0.808114 0.304085 0.999767 -0.294945
C133  C     C_R   0.435886 0.012560 0.364819 -0.190907
C134  C     C_R   0.500009 0.000027 0.281299 0.279700
C135  C     C_R   0.987377 0.435898 0.364820 -0.190742
C136  C     C_R   0.564119 0.987458 0.364820 -0.191131
C137  C     C_R   0.012650 0.564100 0.364821 -0.190932
C138  C     C_R   0.935863 0.512463 0.864819 -0.190908
C139  C     C_R   0.487474 0.935881 0.864819 -0.190746
C140  C     C_R   0.064138 0.487558 0.864818 -0.191134
C141  C     C_R   0.512553 0.064118 0.864820 -0.190936
C142  C     C_R   0.435956 0.012938 0.332297 -0.167831
C143  C     C_R   0.987016 0.435966 0.332298 -0.167837
C144  C     C_R   0.564054 0.987096 0.332298 -0.167822
H1    H     H_    0.149991 0.756600 0.464763 0.173724
H2    H     H_    0.743400 0.649986 0.964765 0.173703
H3    H     H_    0.053681 0.364723 0.584825 0.262531
H4    H     H_    0.068849 0.324834 0.622588 0.264461
H5    H     H_    0.931407 0.327293 0.629894 0.214051
H6    H     H_    0.923250 0.380661 0.596588 0.212802
H7    H     H_    0.364635 0.946751 0.584830 0.262418
H8    H     H_    0.324651 0.931723 0.622579 0.264558
H9    H     H_    0.278686 0.985712 0.593808 0.242593
H10   H     H_    0.327521 0.069086 0.629912 0.214107
H11   H     H_    0.380899 0.077155 0.596608 0.212760
H12   H     H_    0.446809 0.135411 0.084790 0.262388
H13   H     H_    0.355286 0.738141 0.968028 0.173673
H14   H     H_    0.431682 0.175292 0.122546 0.264579
H15   H     H_    0.485681 0.221367 0.093817 0.242627
H16   H     H_    0.569080 0.172523 0.129895 0.214117
H17   H     H_    0.577163 0.119126 0.096597 0.212751
H18   H     H_    0.135447 0.552913 0.084855 0.262030
H19   H     H_    0.175684 0.567719 0.122573 0.264475
H20   H     H_    0.221321 0.513624 0.093736 0.242721
H21   H     H_    0.172338 0.430415 0.129901 0.214071
H22   H     H_    0.118921 0.422464 0.096603 0.212916
H23   H     H_    0.553242 0.864603 0.084812 0.262394
H24   H     H_    0.256598 0.350011 0.964764 0.173825
H25   H     H_    0.568344 0.824727 0.122573 0.264566
H26   H     H_    0.514362 0.778646 0.093838 0.242606
H27   H     H_    0.430947 0.827494 0.129910 0.214107
H28   H     H_    0.422874 0.880872 0.096605 0.213050
H29   H     H_    0.864547 0.447121 0.084871 0.262258
H30   H     H_    0.824333 0.432315 0.122595 0.264467
H31   H     H_    0.778684 0.486424 0.093765 0.242590
H32   H     H_    0.827709 0.569621 0.129923 0.214083
H33   H     H_    0.881106 0.577564 0.096619 0.212934
H34   H     H_    0.355269 0.261840 0.968016 0.174169
H35   H     H_    0.256575 0.650011 0.964751 0.174307
H36   H     H_    0.644728 0.738156 0.968018 0.174003
H37   H     H_    0.738162 0.355271 0.968016 0.174137
H38   H     H_    0.233771 0.687834 0.519279 0.149771
H39   H     H_    0.312186 0.233792 0.519269 0.149781
H40   H     H_    0.757581 0.320769 0.513945 0.150549
H41   H     H_    0.243388 0.149974 0.464772 0.173703
H42   H     H_    0.687836 0.766228 0.519280 0.149739
H43   H     H_    0.757624 0.679264 0.513975 0.150896
H44   H     H_    0.687902 0.233714 0.519310 0.150448
H45   H     H_    0.242355 0.320719 0.513988 0.150968
H46   H     H_    0.320733 0.757625 0.513976 0.150939
H47   H     H_    0.733769 0.187837 0.019280 0.149762
H48   H     H_    0.812163 0.733772 0.019280 0.149774
H49   H     H_    0.257584 0.820767 0.013947 0.150535
H50   H     H_    0.187835 0.266227 0.019279 0.149731
H51   H     H_    0.257626 0.179266 0.013976 0.150890
H52   H     H_    0.855283 0.238143 0.468026 0.173676
H53   H     H_    0.187889 0.733725 0.019305 0.150440
H54   H     H_    0.742376 0.820736 0.013974 0.150967
H55   H     H_    0.820735 0.257622 0.013974 0.150932
H56   H     H_    0.385677 0.022543 0.376983 0.158864
H57   H     H_    0.977320 0.385703 0.376984 0.159060
H58   H     H_    0.614327 0.977470 0.376984 0.158799
H59   H     H_    0.022700 0.614295 0.376986 0.158863
H60   H     H_    0.885637 0.522368 0.876983 0.158882
H61   H     H_    0.477494 0.885672 0.876983 0.159082
H62   H     H_    0.114364 0.477648 0.876981 0.158814
H63   H     H_    0.756598 0.850011 0.464763 0.173825
H64   H     H_    0.522526 0.114328 0.876984 0.158885
H65   H     H_    0.385682 0.022819 0.320177 0.149169
H66   H     H_    0.977073 0.385703 0.320177 0.149194
H67   H     H_    0.614331 0.977220 0.320178 0.149157
H68   H     H_    0.022984 0.614292 0.320179 0.149166
H69   H     H_    0.885637 0.522642 0.820178 0.149183
H70   H     H_    0.477249 0.885671 0.820176 0.149206
H71   H     H_    0.114365 0.477402 0.820176 0.149170
H72   H     H_    0.522806 0.114326 0.820178 0.149179
H73   H     H_    0.987925 0.709580 0.670200 0.261549
H74   H     H_    0.855270 0.761842 0.468017 0.174171
H75   H     H_    0.957083 0.661863 0.704377 0.271423
H76   H     H_    0.030259 0.725557 0.707213 0.245648
H77   H     H_    0.081091 0.605327 0.708904 0.213857
H78   H     H_    0.108724 0.644899 0.674438 0.187535
H79   H     H_    0.709493 0.011433 0.670239 0.261623
H80   H     H_    0.661947 0.042213 0.704469 0.271519
H81   H     H_    0.725401 0.968836 0.707200 0.245750
H82   H     H_    0.604967 0.918471 0.708888 0.213970
H83   H     H_    0.644478 0.890785 0.674417 0.187660
H84   H     H_    0.012030 0.290477 0.670236 0.261541
H85   H     H_    0.756562 0.150024 0.464745 0.174314
H86   H     H_    0.042820 0.338184 0.704426 0.271419
H87   H     H_    0.969616 0.274507 0.707235 0.245638
H88   H     H_    0.918833 0.394776 0.708905 0.213860
H89   H     H_    0.891226 0.355181 0.674440 0.187550
H90   H     H_    0.290559 0.988612 0.670265 0.261613
H91   H     H_    0.338128 0.957813 0.704485 0.271530
H92   H     H_    0.274690 0.031200 0.707230 0.245748
H93   H     H_    0.395128 0.081550 0.708902 0.213973
H94   H     H_    0.355599 0.109244 0.674436 0.187659
H95   H     H_    0.488613 0.209488 0.170237 0.261641
H96   H     H_    0.144740 0.238169 0.468010 0.174006
H97   H     H_    0.457841 0.161983 0.204479 0.271487
H98   H     H_    0.531242 0.225428 0.207189 0.245714
H99   H     H_    0.581563 0.104950 0.208889 0.213935
H100  H     H_    0.609265 0.144451 0.174417 0.187632
H101  H     H_    0.209519 0.510671 0.170281 0.261561
H102  H     H_    0.162114 0.541492 0.204540 0.271466
H103  H     H_    0.225313 0.467862 0.207210 0.245700
H104  H     H_    0.104633 0.417955 0.208875 0.213932
H105  H     H_    0.144078 0.390198 0.174399 0.187609
H106  H     H_    0.511416 0.790524 0.170253 0.261607
H107  H     H_    0.238164 0.855270 0.468015 0.174140
H108  H     H_    0.542244 0.838102 0.204466 0.271508
H109  H     H_    0.468864 0.774651 0.207226 0.245736
H110  H     H_    0.418488 0.895086 0.208903 0.213939
H111  H     H_    0.390785 0.855562 0.174436 0.187661
H112  H     H_    0.790542 0.489360 0.170305 0.261551
H113  H     H_    0.837959 0.458531 0.204559 0.271472
H114  H     H_    0.774771 0.532171 0.207235 0.245694
H115  H     H_    0.895460 0.582057 0.208890 0.213935
H116  H     H_    0.856000 0.609826 0.174419 0.187606
H117  H     H_    0.946377 0.635293 0.584785 0.262493
H118  H     H_    0.649993 0.256598 0.964762 0.173724
H119  H     H_    0.931141 0.675153 0.622550 0.264480
H120  H     H_    0.985045 0.721376 0.593815 0.242503
H121  H     H_    0.068596 0.672730 0.629879 0.214035
H122  H     H_    0.076773 0.619337 0.596581 0.212493
H123  H     H_    0.635363 0.053271 0.584809 0.262183
H124  H     H_    0.675362 0.068314 0.622553 0.264556
H125  H     H_    0.721323 0.014329 0.593781 0.242717
H126  H     H_    0.672524 0.930951 0.629891 0.214094
H127  H     H_    0.619124 0.922868 0.596594 0.212739
H128  H     H_    0.014980 0.278643 0.593830 0.242495
N1    N     N_R   0.442905 0.026765 0.265163 -0.184016
N2    N     N_R   0.526886 0.057083 0.734145 -0.178919
N3    N     N_R   0.057163 0.473342 0.734139 -0.178854
N4    N     N_R   0.473198 0.942918 0.734143 -0.178902
N5    N     N_R   0.442943 0.026914 0.234144 -0.178889
N6    N     N_R   0.027062 0.557004 0.234146 -0.178968
N7    N     N_R   0.557080 0.973143 0.234144 -0.178902
N8    N     N_R   0.973025 0.442992 0.234145 -0.178954
N9    N     N_R   0.026910 0.557040 0.265165 -0.184023
N10   N     N_R   0.557116 0.973290 0.265163 -0.184012
N11   N     N_R   0.973171 0.442953 0.265164 -0.184008
N12   N     N_R   0.942798 0.526574 0.765161 -0.184014
N13   N     N_R   0.526735 0.057118 0.765163 -0.184019
N14   N     N_R   0.057201 0.473488 0.765159 -0.184022
N15   N     N_R   0.473344 0.942880 0.765161 -0.184003
N16   N     N_R   0.942833 0.526723 0.734141 -0.178851
O1    O     O_3   0.500000 0.000000 0.500000 -0.479469
O2    O     O_R   0.560150 0.000000 0.069320 -0.650827
O3    O     O_R   0.000000 0.560150 0.069320 -0.651064
O4    O     O_R   0.439850 0.000000 0.069320 -0.650609
O5    O     O_R   0.439930 0.000000 0.430670 -0.645725
O6    O     O_R   0.000000 0.439930 0.430670 -0.645560
O7    O     O_R   0.560070 0.000000 0.430670 -0.646015
O8    O     O_R   0.000000 0.560070 0.430670 -0.645813
O9    O     O_R   0.939930 0.500000 0.930670 -0.645737
O10   O     O_R   0.500000 0.939930 0.930670 -0.645567
O11   O     O_R   0.060070 0.500000 0.930670 -0.646022
O12   O     O_3   0.000000 0.500000 0.500000 -0.479451
O13   O     O_R   0.500000 0.060070 0.930670 -0.645822
O14   O     O_R   0.415450 0.144560 0.518170 -0.646000
O15   O     O_R   0.855440 0.415450 0.518170 -0.646305
O16   O     O_R   0.584550 0.855440 0.518170 -0.646291
O17   O     O_R   0.144560 0.584550 0.518170 -0.646224
O18   O     O_R   0.584550 0.144560 0.518170 -0.645361
O19   O     O_R   0.144560 0.415450 0.518170 -0.645424
O20   O     O_R   0.415450 0.855440 0.518170 -0.645448
O21   O     O_R   0.855440 0.584550 0.518170 -0.645712
O22   O     O_R   0.915450 0.644560 0.018170 -0.646020
O23   O     O_3   0.000000 0.500000 0.000000 -0.479455
O24   O     O_R   0.355440 0.915450 0.018170 -0.646324
O25   O     O_R   0.084550 0.355440 0.018170 -0.646312
O26   O     O_R   0.644560 0.084550 0.018170 -0.646243
O27   O     O_R   0.084550 0.644560 0.018170 -0.645345
O28   O     O_R   0.644560 0.915450 0.018170 -0.645403
O29   O     O_R   0.915450 0.355440 0.018170 -0.645431
O30   O     O_R   0.355440 0.084550 0.018170 -0.645688
O31   O     O_R   0.644640 0.915430 0.481820 -0.643332
O32   O     O_R   0.084570 0.644640 0.481820 -0.643554
O33   O     O_R   0.355360 0.084570 0.481820 -0.643592
O34   O     O_3   0.500000 0.000000 0.000000 -0.479449
O35   O     O_R   0.915430 0.355360 0.481820 -0.643445
O36   O     O_R   0.355360 0.915430 0.481820 -0.642478
O37   O     O_R   0.915430 0.644640 0.481820 -0.642432
O38   O     O_R   0.644640 0.084570 0.481820 -0.642567
O39   O     O_R   0.084570 0.355360 0.481820 -0.642680
O40   O     O_R   0.144640 0.415430 0.981820 -0.643328
O41   O     O_R   0.584570 0.144640 0.981820 -0.643549
O42   O     O_R   0.855360 0.584570 0.981820 -0.643587
O43   O     O_R   0.415430 0.855360 0.981820 -0.643441
O44   O     O_R   0.855360 0.415430 0.981820 -0.642486
O45   O     O_R   0.500000 0.939850 0.569320 -0.650820
O46   O     O_R   0.415430 0.144640 0.981820 -0.642440
O47   O     O_R   0.144640 0.584570 0.981820 -0.642576
O48   O     O_R   0.584570 0.855360 0.981820 -0.642687
O49   O     O_R   0.060150 0.500000 0.569320 -0.650826
O50   O     O_R   0.500000 0.060150 0.569320 -0.651049
O51   O     O_R   0.939850 0.500000 0.569320 -0.650602
O52   O     O_R   0.000000 0.439850 0.069320 -0.650834
Zn1   Zn    Zn3+2 0.414160 0.000000 0.474030 0.964078
Zn2   Zn    Zn3+2 0.914220 0.500000 0.525960 0.960880
Zn3   Zn    Zn3+2 0.500000 0.914220 0.525960 0.960907
Zn4   Zn    Zn3+2 0.085780 0.500000 0.525960 0.961005
Zn5   Zn    Zn3+2 0.000000 0.585780 0.025960 0.961033
Zn6   Zn    Zn3+2 0.414220 1.000000 0.025960 0.960889
Zn7   Zn    Zn3+2 0.000000 0.414220 0.025960 0.960915
Zn8   Zn    Zn3+2 0.585780 1.000000 0.025960 0.961011
Zn9   Zn    Zn3+2 0.000000 0.414160 0.474030 0.964050
Zn10  Zn    Zn3+2 0.585840 0.000000 0.474030 0.964017
Zn11  Zn    Zn3+2 0.000000 0.585840 0.474030 0.963987
Zn12  Zn    Zn3+2 0.914160 0.500000 0.974030 0.964083
Zn13  Zn    Zn3+2 0.500000 0.914160 0.974030 0.964050
Zn14  Zn    Zn3+2 0.085840 0.500000 0.974030 0.964023
Zn15  Zn    Zn3+2 0.500000 0.085840 0.974030 0.963989
Zn16  Zn    Zn3+2 0.500000 0.085780 0.525960 0.961026

loop_
_geom_bond_atom_site_label_1
_geom_bond_atom_site_label_2
_ccdc_geom_bond_type
O47   Zn14  S    
C19   C20   S    
C9    C143  A    
C19   C46   S    
C43   C63   S    
O40   Zn14  S    
C39   H6    S    
C91   C127  S    
O5    Zn1   S    
O38   Zn10  S    
C19   H82   S    
C52   C61   A    
C74   C112  S    
C84   O17   A    
C15   C78   S    
C54   C63   A    
C81   O33   A    
C81   C117  S    
C100  C104  S    
C94   O27   A    
C114  C131  D    
C83   C119  S    
C28   H105  S    
C77   O6    A    
C54   C74   A    
C138  H60   S    
C109  C127  D    
C78   O9    A    
C6    H71   S    
C85   C121  S    
C48   C65   S    
O24   Zn6   S    
C24   N15   A    
C21   C22   S    
C129  H51   S    
C80   O13   A    
C2    N9    A    
C108  H2    S    
C100  H52   S    
C39   C61   S    
O22   Zn5   S    
C30   C56   S    
C16   C80   S    
O34   Zn15  S    
C43   C44   S    
O15   Zn2   S    
C37   C38   S    
C52   C72   A    
C97   O46   A    
C22   H86   S    
C14   C137  A    
C89   O42   A    
C26   C27   S    
C125  H47   S    
C126  H48   S    
C47   H20   S    
C113  H35   S    
C96   O44   A    
C114  H36   S    
C90   N16   A    
C82   C118  S    
C27   H98   S    
C99   H41   S    
C122  H45   S    
O41   Zn15  S    
O14   Zn16  S    
C40   H3    S    
C46   C60   A    
C70   C79   S    
O50   Zn16  S    
C91   O43   A    
O32   Zn11  S    
C13   N12   A    
C5    C11   A    
C98   C106  S    
C36   H117  S    
C119  H42   S    
C76   O5    A    
C77   O8    A    
C104  H85   S    
C87   C124  S    
O30   Zn6   S    
C38   H125  S    
O2    Zn8   S    
C141  H64   S    
C17   H77   S    
C94   O47   A    
C68   O3    A    
C33   H113  S    
O33   Zn1   S    
C44   H15   S    
C108  C126  D    
C144  H67   S    
C102  C119  D    
C110  C128  D    
N4    N15   A    
C29   H102  S    
O11   Zn14  S    
O43   Zn13  S    
C18   H76   S    
C135  H57   S    
C133  C142  A    
C94   C130  S    
O34   Zn13  S    
C95   O28   A    
C127  H49   S    
C49   H26   S    
C14   C77   S    
C22   H84   S    
C14   C135  A    
C65   C70   A    
C72   C90   S    
O6    Zn9   S    
C19   H83   S    
O12   Zn9   S    
C59   C67   A    
C110  C111  S    
C47   H18   S    
C116  H38   S    
O21   Zn2   S    
C45   H22   S    
C7    H72   S    
C79   O4    A    
C55   C75   A    
C135  C143  A    
C84   C116  S    
C92   O40   A    
C55   C64   A    
O12   Zn2   S    
C26   C54   S    
C5    C139  A    
C115  C132  D    
C40   H128  S    
C113  C130  D    
C8    C134  S    
C44   H12   S    
C36   H119  S    
C32   H116  S    
C107  C125  D    
C76   O7    A    
C95   O48   A    
C23   H94   S    
C26   H99   S    
C87   O20   A    
C21   H88   S    
C51   H30   S    
C38   H123  S    
O7    Zn10  S    
C3    C9    A    
C99   C117  D    
C48   H27   S    
C1    O45   A    
C61   C67   A    
C17   C18   S    
O16   Zn3   S    
C42   H7    S    
C25   H90   S    
C101  N2    A    
O8    Zn11  S    
C106  C124  D    
C85   O38   A    
C7    C141  A    
C92   O25   A    
C25   H91   S    
O20   Zn3   S    
C140  H62   S    
O39   Zn9   S    
C98   H1    S    
C39   H5    S    
C45   C64   S    
O1    Zn16  S    
C16   C141  A    
O12   Zn11  S    
C60   C69   A    
O23   Zn14  S    
C73   C101  S    
C105  C122  D    
C34   C36   S    
C102  C103  S    
O49   Zn4   S    
C79   O2    A    
C39   C40   S    
O51   Zn2   S    
C12   C136  A    
C134  N1    A    
C37   H127  S    
C142  H65   S    
C1    O50   A    
O12   Zn4   S    
C2    C9    S    
C46   C73   A    
O29   Zn7   S    
C85   O18   A    
C41   H11   S    
O48   Zn13  S    
C44   H14   S    
C41   C42   S    
C34   H121  S    
C103  C120  D    
N8    N11   A    
C32   C58   S    
C89   O22   A    
C124  H46   S    
C27   H95   S    
C91   O24   A    
O31   Zn10  S    
C88   O21   A    
C134  N10   A    
C28   C29   S    
C84   O32   A    
C30   C31   S    
C57   O49   A    
O9    Zn12  S    
C35   C59   A    
C28   H104  S    
C64   C71   A    
C108  C114  S    
C139  H61   S    
C111  C129  D    
C21   H89   S    
C22   H87   S    
C25   H92   S    
N6    N9    A    
C86   C122  S    
C30   H110  S    
C101  N4    A    
C3    C137  A    
O52   Zn7   S    
C88   C120  S    
C130  H53   S    
C47   H19   S    
C45   C47   S    
C109  H13   S    
C81   O14   A    
C95   C131  S    
C82   O35   A    
C41   C62   S    
C27   H97   S    
C87   O36   A    
C143  H66   S    
C89   C126  S    
C56   C74   A    
C40   H4    S    
O42   Zn12  S    
N12   N16   A    
C50   H33   S    
O13   Zn15  S    
O10   Zn13  S    
C31   H109  S    
C123  N8    A    
O34   Zn8   S    
C137  H59   S    
N1    N5    A    
C62   C69   A    
C106  H107  S    
O19   Zn4   S    
C93   O41   A    
C66   C71   A    
C131  H54   S    
C50   C51   S    
C51   H31   S    
O3    Zn5   S    
C48   C49   S    
C35   C72   A    
C12   C76   S    
C34   C59   S    
C100  C118  D    
C120  H43   S    
C15   C140  A    
C4    H69   S    
C29   H101  S    
C33   H112  S    
O23   Zn12  S    
O37   Zn11  S    
C96   O29   A    
C6    C10   A    
C57   O51   A    
O18   Zn16  S    
C32   C33   S    
C136  C144  A    
O44   Zn12  S    
C121  H44   S    
C49   H25   S    
C80   O10   A    
C68   C71   S    
C5    H70   S    
C23   C53   S    
C97   O30   A    
C20   H79   S    
C31   H108  S    
C107  H118  S    
C6    C140  A    
C93   C125  S    
C4    C138  A    
C13   N14   A    
O46   Zn15  S    
C8    C142  A    
C17   C35   S    
N3    N14   A    
C45   H21   S    
C86   O39   A    
O1    Zn10  S    
C136  H58   S    
C123  N6    A    
O34   Zn6   S    
C83   O16   A    
C7    C11   A    
C75   C123  S    
C36   H120  S    
C128  H50   S    
C49   H23   S    
C23   H93   S    
C26   H100  S    
C56   C65   A    
C11   C24   S    
C50   H32   S    
O27   Zn5   S    
N7    N10   A    
C51   H29   S    
O1    Zn1   S    
C112  N5    A    
O23   Zn7   S    
C17   H78   S    
C48   H28   S    
C110  H24   S    
C58   C66   A    
C33   H114  S    
C111  H34   S    
C90   N3    A    
C42   H8    S    
C102  H63   S    
C109  C113  S    
C96   C132  S    
C15   C138  A    
C1    C69   S    
O36   Zn1   S    
C29   H103  S    
O17   Zn4   S    
C57   C67   S    
C18   H75   S    
C92   C128  S    
C115  H37   S    
C28   C55   S    
C58   C75   A    
O28   Zn8   S    
C20   H80   S    
C99   C105  S    
C38   H124  S    
C42   H9    S    
C43   H16   S    
C104  C121  D    
C103  H74   S    
C132  H55   S    
C20   H81   S    
C31   H106  S    
C53   C62   A    
C98   C116  D    
C63   C70   A    
C93   O26   A    
C8    C144  A    
N2    N13   A    
C50   C66   S    
C107  C115  S    
C43   H17   S    
C78   O11   A    
C133  H56   S    
C12   C133  A    
C16   C139  A    
C37   H126  S    
C4    C10   A    
C82   O15   A    
C41   H10   S    
O4    Zn6   S    
C3    H68   S    
C24   N13   A    
C86   O19   A    
O25   Zn7   S    
C34   H122  S    
C32   H115  S    
C53   C73   A    
C10   C13   S    
C88   O37   A    
C117  H39   S    
C2    N11   A    
C118  H40   S    
O1    Zn3   S    
C112  N7    A    
C97   C129  S    
O23   Zn5   S    
C83   O31   A    
C105  H96   S    
C23   C25   S    
C37   C60   S    
C68   O52   A    
O45   Zn3   S    
O35   Zn9   S    
C30   H111  S    
C18   H73   S    
O26   Zn8   S    
C21   C52   S    
