data_mof_unit_67875.cif
_audit_creation_date              2012-12-10T16:55:49-0500
_audit_creation_method            fapswitch 2.2
_symmetry_space_group_name_H-M    P1
_symmetry_Int_Tables_number       1
_space_group_crystal_system       triclinic
_cell_length_a                    8.005358
_cell_length_b                    8.608118
_cell_length_c                    10.565576
_cell_angle_alpha                 93.574491
_cell_angle_beta                  84.644027
_cell_angle_gamma                 91.894079
_cell_volume                      723.224297368

loop_
_atom_site_label
_atom_site_type_symbol
_atom_type_description
_atom_site_fract_x
_atom_site_fract_y
_atom_site_fract_z
_atom_type_partial_charge
Br1   Br    Br    0.380280 0.820765 0.158324 -0.316480
Br2   Br    Br    0.619725 0.179240 0.841675 -0.316481
Br3   Br    Br    0.266523 0.196518 0.077665 -0.258684
Br4   Br    Br    0.733477 0.803476 0.922317 -0.258693
Br5   Br    Br    0.043230 0.289088 0.368214 -0.240406
Br6   Br    Br    0.956795 0.710945 0.631747 -0.240401
C1    C     C_R   0.542431 0.793187 0.496369 0.899299
C2    C     C_3   0.501036 0.514938 0.877965 -0.326483
C3    C     C_3   0.390439 0.384959 0.035316 0.204282
C4    C     C_3   0.609562 0.615041 0.964683 0.204276
C5    C     C_2   0.557607 0.951427 0.471328 -0.028460
C6    C     C_2   0.442390 0.048570 0.528690 -0.028427
C7    C     C_R   0.457569 0.206813 0.503630 0.899285
C8    C     C_R   0.501366 0.510621 0.741955 0.964895
C9    C     C_R   0.498634 0.489379 0.258045 0.964892
C10   C     C_3   0.344636 0.533422 0.972231 0.124618
C11   C     C_3   0.655364 0.466578 0.027768 0.124618
C12   C     C_3   0.453855 0.632364 0.060681 0.182869
C13   C     C_3   0.546146 0.367636 0.939317 0.182869
C14   C     C_3   0.498964 0.485062 0.122034 -0.326484
I1    I     I_    0.127974 0.645133 0.926966 -0.017014
I2    I     I_    0.872026 0.354870 0.073034 -0.017014
I3    I     I_    0.731428 0.997845 0.310558 -0.027381
I4    I     I_    0.268618 0.002140 0.689476 -0.027384
N1    N     N_2   0.950320 0.457950 0.465730 0.074953
N2    N     N_2   0.049680 0.542050 0.534270 0.074953
O1    O     O_R   0.389250 0.738570 0.508410 -0.599227
O2    O     O_R   0.610750 0.261430 0.491590 -0.599230
O3    O     O_R   0.678390 0.711620 0.486450 -0.582151
O4    O     O_R   0.321610 0.288380 0.513550 -0.582154
O5    O     O_R   0.355460 0.513510 0.697030 -0.599163
O6    O     O_R   0.644540 0.486490 0.302970 -0.599162
O7    O     O_R   0.644600 0.486560 0.675070 -0.579912
O8    O     O_R   0.355400 0.513440 0.324930 -0.579905
Zn1   Zn    Zn3+2 0.306940 0.517990 0.514670 1.124444
Zn2   Zn    Zn3+2 0.693060 0.482010 0.485330 1.124443

loop_
_geom_bond_atom_site_label_1
_geom_bond_atom_site_label_2
_ccdc_geom_bond_type
Br5   N1    S    
C5    C6    D    
C7    O2    A    
C10   I1    S    
Br3   C3    S    
N2    Zn1   S    
C9    O8    A    
C11   I2    S    
C8    O5    A    
O7    Zn2   S    
C8    O7    A    
Br2   C13   S    
C9    O6    A    
C2    C10   S    
C1    C5    S    
O3    Zn2   S    
Br1   C12   S    
Br6   N2    S    
O4    Zn1   S    
C4    C12   S    
C1    O3    A    
O6    Zn2   S    
C5    I3    S    
C11   C13   S    
C3    C10   S    
C12   C14   S    
C9    C14   S    
O5    Zn1   S    
C2    C13   S    
N1    Zn2   S    
Br4   C4    S    
C4    C11   S    
C7    O4    A    
C11   C14   S    
C1    O1    A    
C6    C7    S    
O2    Zn2   S    
C10   C12   S    
O8    Zn1   S    
C6    I4    S    
C2    C8    S    
C3    C14   S    
O1    Zn1   S    
N1    N2    D    
C3    C13   S    
C2    C4    S    
