data_mof_unit_38339.cif
_audit_creation_date              2012-12-10T16:37:26-0500
_audit_creation_method            fapswitch 2.2
_symmetry_space_group_name_H-M    P1
_symmetry_Int_Tables_number       1
_space_group_crystal_system       triclinic
_cell_length_a                    16.864735
_cell_length_b                    16.665579
_cell_length_c                    16.893127
_cell_angle_alpha                 65.550102
_cell_angle_beta                  65.38293
_cell_angle_gamma                 66.787042
_cell_volume                      3785.70138464

loop_
_atom_site_label
_atom_site_type_symbol
_atom_type_description
_atom_site_fract_x
_atom_site_fract_y
_atom_site_fract_z
_atom_type_partial_charge
C1    C     C_R   0.424124 0.998679 0.683732 0.364338
C2    C     C_R   0.413062 0.607769 0.120651 0.378022
C3    C     C_R   0.919109 0.586989 0.357354 0.391743
C4    C     C_R   0.080888 0.413016 0.642645 0.391778
C5    C     C_R   0.005507 0.163743 0.424408 0.940454
C6    C     C_R   0.994492 0.836258 0.575592 0.940461
C7    C     C_R   0.176137 0.429863 0.980631 0.984480
C8    C     C_R   0.823880 0.570138 0.019337 0.984503
C9    C     C_R   0.437029 0.962255 0.179858 0.931875
C10   C     C_R   0.562969 0.037753 0.820140 0.931613
C11   C     C_R   0.561205 0.820188 0.039137 0.936685
C12   C     C_R   0.575880 0.001340 0.316260 0.364361
C13   C     C_R   0.438822 0.179806 0.960803 0.936400
C14   C     C_R   0.031457 0.566631 0.820416 0.984598
C15   C     C_R   0.968542 0.433370 0.179584 0.984649
C16   C     C_R   0.820769 0.040182 0.560988 0.955940
C17   C     C_R   0.179229 0.959829 0.439010 0.955973
C18   C     C_R   0.453163 0.044572 0.713988 0.368374
C19   C     C_R   0.546840 0.955448 0.286004 0.368374
C20   C     C_R   0.902486 0.735299 0.526739 0.355075
C21   C     C_R   0.097506 0.264704 0.473265 0.355079
C22   C     C_R   0.734600 0.515683 0.934395 0.354893
C23   C     C_R   0.889176 0.680762 0.490533 0.395351
C24   C     C_R   0.265472 0.484232 0.065559 0.354940
C25   C     C_R   0.291597 0.932145 0.556136 0.372781
C26   C     C_R   0.708405 0.067878 0.443860 0.372778
C27   C     C_R   0.544514 0.333243 0.881555 0.367285
C28   C     C_R   0.455460 0.666923 0.118134 0.367313
C29   C     C_R   0.908156 0.534459 0.317793 0.358030
C30   C     C_R   0.091842 0.465547 0.682204 0.358040
C31   C     C_R   0.541858 0.026116 0.540243 -0.032341
C32   C     C_R   0.458146 0.973907 0.459749 -0.032346
C33   C     C_R   0.003504 0.550930 0.547611 -0.019997
C34   C     C_R   0.110816 0.319241 0.509471 0.395332
C35   C     C_R   0.996489 0.449074 0.452390 -0.019991
C36   C     C_R   0.546223 0.549334 0.008080 -0.031502
C37   C     C_R   0.453853 0.450581 0.991846 -0.031466
C38   C     C_R   0.586397 0.018697 0.450622 -0.025026
C39   C     C_R   0.413606 0.981327 0.549370 -0.025033
C40   C     C_R   0.046558 0.455669 0.566881 -0.024560
C41   C     C_R   0.953436 0.544335 0.433121 -0.024546
C42   C     C_R   0.452161 0.561654 0.053253 -0.034150
C43   C     C_R   0.547907 0.438294 0.946632 -0.034113
C44   C     C_R   0.542020 0.996913 0.409002 -0.004903
C45   C     C_R   0.691312 0.459761 0.934202 0.380453
C46   C     C_R   0.457984 0.003109 0.590990 -0.004908
C47   C     C_R   0.404516 0.517309 0.038950 -0.025119
C48   C     C_R   0.595559 0.482617 0.960962 -0.025060
C49   C     C_R   0.048892 0.406085 0.513690 -0.030197
C50   C     C_R   0.951101 0.593918 0.486312 -0.030187
C51   C     C_R   0.542570 0.053052 0.673247 -0.094787
C52   C     C_R   0.457432 0.946969 0.326746 -0.094791
C53   C     C_R   0.965933 0.697308 0.575199 -0.072544
C54   C     C_R   0.034060 0.302695 0.424803 -0.072529
C55   C     C_R   0.687627 0.576945 0.986982 -0.097929
C56   C     C_R   0.308760 0.540176 0.065697 0.380409
C57   C     C_R   0.312433 0.422977 0.012974 -0.098028
C58   C     C_R   0.327456 0.937702 0.462708 -0.055752
C59   C     C_R   0.672544 0.062322 0.537287 -0.055763
C60   C     C_R   0.456178 0.332525 0.939409 -0.103546
C61   C     C_R   0.543876 0.667461 0.060449 -0.103551
C62   C     C_R   0.954027 0.440888 0.332691 -0.079892
C63   C     C_R   0.045969 0.559117 0.667308 -0.079877
C64   C     C_R   0.591141 0.063291 0.719790 -0.149580
C65   C     C_R   0.408855 0.936734 0.280204 -0.149690
C66   C     C_R   0.976779 0.746500 0.619819 -0.126945
C67   C     C_R   0.324475 0.970114 0.591950 0.398899
C68   C     C_R   0.023215 0.253503 0.380183 -0.126938
C69   C     C_R   0.730470 0.610513 0.019981 -0.178728
C70   C     C_R   0.269564 0.389461 0.979960 -0.178842
C71   C     C_R   0.279230 0.932037 0.412804 -0.145826
C72   C     C_R   0.720767 0.067993 0.587191 -0.145805
C73   C     C_R   0.408062 0.279698 0.939032 -0.126209
C74   C     C_R   0.591984 0.720301 0.060824 -0.126480
C75   C     C_R   0.972374 0.390179 0.272641 -0.138189
C76   C     C_R   0.027622 0.609824 0.727360 -0.138159
C77   C     C_R   0.674863 0.081933 0.672036 0.323165
C78   C     C_R   0.675528 0.029910 0.408044 0.398889
C79   C     C_R   0.325123 0.918113 0.327954 0.323014
C80   C     C_R   0.984662 0.703240 0.705181 0.309980
C81   C     C_R   0.015333 0.296763 0.294821 0.309999
C82   C     C_R   0.680067 0.680358 0.060591 0.324201
C83   C     C_R   0.319955 0.319632 0.939323 0.324417
C84   C     C_R   0.585894 0.047024 0.583539 -0.022722
C85   C     C_R   0.414107 0.952999 0.416454 -0.022704
C86   C     C_R   0.005876 0.602241 0.596085 -0.014294
C87   C     C_R   0.994117 0.397763 0.403916 -0.014282
C88   C     C_R   0.592511 0.598283 0.017574 -0.033538
C89   C     C_R   0.586945 0.392325 0.879125 0.378079
C90   C     C_R   0.407556 0.401633 0.982364 -0.033539
Cl1   Cl    Cl    0.382172 0.906150 0.768957 -0.445969
Cl2   Cl    Cl    0.330643 0.569037 0.224285 -0.386489
Cl3   Cl    Cl    0.915024 0.702755 0.291733 -0.335342
Cl4   Cl    Cl    0.084972 0.297250 0.708270 -0.335310
Cl5   Cl    Cl    0.724543 0.121339 0.718497 -0.411565
Cl6   Cl    Cl    0.275365 0.878813 0.281458 -0.411306
Cl7   Cl    Cl    0.924243 0.768458 0.784121 -0.506751
Cl8   Cl    Cl    0.075755 0.231544 0.215881 -0.506678
Cl9   Cl    Cl    0.720647 0.717015 0.117918 -0.363020
Cl10  Cl    Cl    0.279311 0.282938 0.882085 -0.362914
Cl11  Cl    Cl    0.365824 0.123000 0.769879 -0.345639
Cl12  Cl    Cl    0.617834 0.093865 0.231034 -0.446031
Cl13  Cl    Cl    0.634178 0.877019 0.230116 -0.345670
Cl14  Cl    Cl    0.822529 0.841219 0.533141 -0.549775
Cl15  Cl    Cl    0.177461 0.158782 0.466866 -0.549782
Cl16  Cl    Cl    0.837948 0.524625 0.848099 -0.531789
Cl17  Cl    Cl    0.162136 0.475297 0.151873 -0.531753
Cl18  Cl    Cl    0.223249 0.857623 0.636072 -0.444336
Cl19  Cl    Cl    0.776761 0.142393 0.363926 -0.444355
Cl20  Cl    Cl    0.589593 0.282848 0.793629 -0.418091
Cl21  Cl    Cl    0.410019 0.717887 0.205674 -0.418132
Cl22  Cl    Cl    0.822835 0.584656 0.264623 -0.405882
Cl23  Cl    Cl    0.779991 0.708422 0.480484 -0.383914
Cl24  Cl    Cl    0.177171 0.415358 0.735362 -0.405928
Cl25  Cl    Cl    0.220002 0.291579 0.519520 -0.383973
Cl26  Cl    Cl    0.759755 0.349177 0.926510 -0.394245
Cl27  Cl    Cl    0.240318 0.650819 0.073211 -0.394163
Cl28  Cl    Cl    0.240225 0.028377 0.670729 -0.329676
Cl29  Cl    Cl    0.759776 0.971649 0.329266 -0.329702
Cl30  Cl    Cl    0.669299 0.431187 0.775532 -0.386509
O1    O     O_R   0.982940 0.138950 0.510160 -0.595045
O2    O     O_R   0.982940 0.510160 0.138950 -0.562319
O3    O     O_R   0.861050 0.017060 0.489840 -0.583058
O4    O     O_R   0.138950 0.982940 0.510160 -0.583080
O5    O     O_R   0.867700 0.025880 0.612340 -0.575065
O6    O     O_R   0.132300 0.974120 0.387660 -0.574998
O7    O     O_R   0.025880 0.612340 0.867700 -0.582696
O8    O     O_R   0.974120 0.387660 0.132300 -0.582678
O9    O     O_R   0.612340 0.867700 0.025880 -0.560936
O10   O     O_R   0.387660 0.132300 0.974120 -0.560924
O11   O     O_R   0.387660 0.974120 0.132300 -0.560582
O12   O     O_R   0.017060 0.861050 0.489840 -0.595042
O13   O     O_R   0.612340 0.025880 0.867700 -0.560817
O14   O     O_R   0.132300 0.387660 0.974120 -0.550078
O15   O     O_R   0.867700 0.612340 0.025880 -0.550061
O16   O     O_R   0.974120 0.132300 0.387660 -0.556683
O17   O     O_R   0.025880 0.867700 0.612340 -0.556691
O18   O     O_R   0.138950 0.510160 0.982940 -0.608107
O19   O     O_R   0.861050 0.489840 0.017060 -0.608193
O20   O     O_R   0.510160 0.982940 0.138950 -0.605470
O21   O     O_R   0.489840 0.017060 0.861050 -0.605464
O22   O     O_R   0.489840 0.861050 0.017060 -0.605287
O23   O     O_R   0.510160 0.138950 0.982940 -0.605496
O24   O     O_R   0.017060 0.489840 0.861050 -0.562310
Zn1   Zn    Zn3+2 0.004880 0.004880 0.583590 1.224200
Zn2   Zn    Zn3+2 0.995120 0.995120 0.416410 1.224257
Zn3   Zn    Zn3+2 0.004880 0.583590 0.004880 1.242401
Zn4   Zn    Zn3+2 0.995120 0.416410 0.995120 1.242360
Zn5   Zn    Zn3+2 0.583590 0.004880 0.004880 1.223100
Zn6   Zn    Zn3+2 0.416410 0.995120 0.995120 1.223335

loop_
_geom_bond_atom_site_label_1
_geom_bond_atom_site_label_2
_ccdc_geom_bond_type
C5    O16   A    
C15   C75   S    
C65   C79   A    
C15   O2    A    
C80   Cl7   S    
C64   C77   A    
C29   Cl22  S    
C36   C42   A    
C16   C72   S    
C10   O13   A    
O24   Zn4   S    
C7    C70   S    
C71   C79   A    
O6    Zn2   S    
C21   Cl15  S    
C36   C88   A    
C12   Cl12  S    
C1    C18   A    
C43   C89   A    
C37   C90   A    
C8    O19   A    
C68   C81   A    
O17   Zn1   S    
C52   C85   A    
C16   O3    A    
C27   C60   A    
C82   Cl9   S    
C30   Cl24  S    
C54   C87   A    
C9    O20   A    
C17   O6    A    
C54   C68   A    
C81   Cl8   S    
C40   C49   A    
C5    O1    A    
C60   C73   A    
O4    Zn1   S    
C56   Cl27  S    
C32   C39   A    
C55   C88   A    
C3    C29   A    
C69   C82   A    
C35   C87   A    
C19   C52   A    
O10   Zn6   S    
C4    C40   A    
C27   Cl20  S    
C24   C57   A    
C31   C46   A    
C25   C67   A    
C35   C49   A    
C13   O10   A    
C20   C23   A    
C36   C48   A    
C53   C86   A    
C57   C70   A    
C37   C47   A    
C43   C48   A    
C59   C72   A    
C28   C61   A    
C1    Cl1   S    
C30   C63   A    
C8    O15   A    
C19   Cl13  S    
C74   C82   A    
C5    C68   S    
C35   C41   A    
C11   O9    A    
C11   O22   A    
O21   Zn6   S    
C18   Cl11  S    
C9    O11   A    
C28   Cl21  S    
C32   C44   A    
C14   O24   A    
O19   Zn4   S    
C33   C40   A    
C57   C90   A    
O13   Zn5   S    
C59   C84   A    
C7    O14   A    
C6    O12   A    
C89   Cl30  S    
O8    Zn4   S    
C23   C50   A    
C21   C34   A    
C38   C78   A    
C34   Cl25  S    
C22   Cl16  S    
C77   Cl5   S    
C4    C30   A    
C14   O7    A    
C10   O21   A    
C14   C76   S    
C37   C43   A    
C33   C86   A    
C38   C44   A    
C72   C77   A    
C70   C83   A    
C61   C88   A    
C23   Cl23  S    
C17   O4    A    
O3    Zn2   S    
O23   Zn5   S    
O18   Zn3   S    
C8    C69   S    
C3    Cl3   S    
C24   Cl17  S    
C26   C78   A    
O2    Zn3   S    
C2    Cl2   S    
C53   C66   A    
C26   Cl19  S    
C55   C69   A    
C39   C46   A    
C4    Cl4   S    
C16   O5    A    
C13   C73   S    
C17   C71   S    
O15   Zn3   S    
C83   Cl10  S    
C63   C86   A    
C61   C74   A    
O1    Zn1   S    
C62   C75   A    
C25   C58   A    
C58   C85   A    
C41   C50   A    
C66   C80   A    
C26   C59   A    
C45   C48   A    
C29   C62   A    
C3    C41   A    
C34   C49   A    
C39   C67   A    
C75   C81   A    
C51   C64   A    
C76   C80   A    
C20   C53   A    
C11   C74   S    
C7    O18   A    
C22   C55   A    
C20   Cl14  S    
C60   C90   A    
C18   C51   A    
C24   C56   A    
O14   Zn4   S    
C62   C87   A    
C10   C64   S    
C31   C38   A    
C15   O8    A    
O12   Zn2   S    
O22   Zn6   S    
C6    O17   A    
C78   Cl29  S    
C33   C50   A    
C79   Cl6   S    
C12   C44   A    
O5    Zn1   S    
C45   Cl26  S    
C21   C54   A    
C2    C42   A    
C32   C85   A    
O20   Zn5   S    
C12   C19   A    
C27   C89   A    
C42   C47   A    
C13   O23   A    
C1    C46   A    
C67   Cl28  S    
C9    C65   S    
C58   C71   A    
C31   C84   A    
C6    C66   S    
C22   C45   A    
C63   C76   A    
O11   Zn6   S    
C2    C28   A    
O9    Zn5   S    
C51   C84   A    
C73   C83   A    
O16   Zn2   S    
C52   C65   A    
C25   Cl18  S    
O7    Zn3   S    
C47   C56   A    
