data_mof_unit_25318.cif
_audit_creation_date              2012-10-26T17:10:25-0400
_audit_creation_method            fapswitch 2.2
_symmetry_space_group_name_H-M    P1
_symmetry_Int_Tables_number       1
_space_group_crystal_system       triclinic
_cell_length_a                    16.892579
_cell_length_b                    16.898909
_cell_length_c                    16.886038
_cell_angle_alpha                 67.338475
_cell_angle_beta                  67.350009
_cell_angle_gamma                 67.325404
_cell_volume                      3942.83169752

loop_
_atom_site_label
_atom_site_type_symbol
_atom_type_description
_atom_site_fract_x
_atom_site_fract_y
_atom_site_fract_z
_atom_type_partial_charge
C1    C     C_R   0.596653 0.021858 0.596209 -0.009271
C2    C     C_R   0.170225 0.433185 0.977081 0.554293
C3    C     C_R   0.566801 0.022942 0.829762 0.554474
C4    C     C_R   0.433199 0.977058 0.170238 0.554474
C5    C     C_R   0.433196 0.170201 0.977015 0.554510
C6    C     C_R   0.566804 0.829799 0.022985 0.554510
C7    C     C_R   0.977063 0.433197 0.170232 0.554323
C8    C     C_R   0.022937 0.566803 0.829768 0.554324
C9    C     C_R   0.170214 0.976992 0.433209 0.554678
C10   C     C_R   0.829786 0.023008 0.566791 0.554678
C11   C     C_R   0.547221 0.011176 0.546455 0.030451
C12   C     C_R   0.403347 0.978142 0.403791 -0.009271
C13   C     C_R   0.452779 0.988824 0.453545 0.030451
C14   C     C_R   0.011183 0.547255 0.546420 0.031162
C15   C     C_R   0.988817 0.452745 0.453580 0.031162
C16   C     C_R   0.546483 0.547234 0.011125 0.030398
C17   C     C_R   0.453517 0.452765 0.988875 0.030398
C18   C     C_R   0.589691 0.952269 0.492562 -0.111335
C19   C     C_R   0.410309 0.047731 0.507438 -0.111335
C20   C     C_R   0.058662 0.457000 0.553508 -0.110946
C21   C     C_R   0.941338 0.543000 0.446492 -0.110945
C22   C     C_R   0.492356 0.589708 0.952394 -0.109595
C23   C     C_R   0.021838 0.596703 0.596183 -0.009076
C24   C     C_R   0.507644 0.410292 0.047606 -0.109595
C25   C     C_R   0.543030 0.941301 0.446565 -0.112108
C26   C     C_R   0.456970 0.058699 0.553435 -0.112108
C27   C     C_R   0.446344 0.543044 0.941476 -0.110532
C28   C     C_R   0.553656 0.456956 0.058524 -0.110532
C29   C     C_R   0.047685 0.410309 0.507554 -0.110031
C30   C     C_R   0.952315 0.589690 0.492445 -0.110031
C31   C     C_R   0.556617 0.024776 0.685254 -0.118971
C32   C     C_R   0.443383 0.975224 0.314746 -0.118971
C33   C     C_R   0.024757 0.685670 0.556428 -0.118482
C34   C     C_R   0.978162 0.403297 0.403817 -0.009076
C35   C     C_R   0.975243 0.314330 0.443572 -0.118482
C36   C     C_R   0.685298 0.556664 0.024693 -0.117695
C37   C     C_R   0.314702 0.443336 0.975307 -0.117695
C38   C     C_R   0.314378 0.975192 0.443564 -0.118888
C39   C     C_R   0.685622 0.024808 0.556435 -0.118887
C40   C     C_R   0.443515 0.314340 0.975273 -0.117767
C41   C     C_R   0.556485 0.685659 0.024726 -0.117767
C42   C     C_R   0.975230 0.443335 0.314763 -0.118078
C43   C     C_R   0.024770 0.556665 0.685237 -0.118078
C44   C     C_R   0.605134 0.029514 0.734143 -0.014498
C45   C     C_R   0.596253 0.596690 0.021769 -0.009038
C46   C     C_R   0.394866 0.970486 0.265857 -0.014499
C47   C     C_R   0.029400 0.734312 0.605162 -0.014358
C48   C     C_R   0.970600 0.265688 0.394838 -0.014359
C49   C     C_R   0.734165 0.605161 0.029456 -0.014466
C50   C     C_R   0.265835 0.394839 0.970544 -0.014466
C51   C     C_R   0.265708 0.970562 0.394845 -0.014358
C52   C     C_R   0.734292 0.029438 0.605155 -0.014358
C53   C     C_R   0.394818 0.265688 0.970620 -0.014281
C54   C     C_R   0.605182 0.734312 0.029379 -0.014281
C55   C     C_R   0.970500 0.394848 0.265859 -0.014511
C56   C     C_R   0.403747 0.403310 0.978231 -0.009038
C57   C     C_R   0.029500 0.605152 0.734141 -0.014510
C58   C     C_R   0.693178 0.033229 0.693183 -0.137653
C59   C     C_R   0.306822 0.966771 0.306817 -0.137653
C60   C     C_R   0.033203 0.693178 0.693190 -0.138124
C61   C     C_R   0.966796 0.306822 0.306810 -0.138124
C62   C     C_R   0.693191 0.693186 0.033178 -0.138565
C63   C     C_R   0.306809 0.306814 0.966822 -0.138565
C64   C     C_R   0.022990 0.829793 0.566802 0.554654
C65   C     C_R   0.977010 0.170207 0.433198 0.554654
C66   C     C_R   0.829775 0.566815 0.022919 0.554294
Cu1   Cu    Cu3+1 0.995180 0.995180 0.424630 0.920552
Cu2   Cu    Cu3+1 0.004820 0.004820 0.575370 0.920552
Cu3   Cu    Cu3+1 0.995180 0.424630 0.995180 0.922311
Cu4   Cu    Cu3+1 0.004820 0.575370 0.004820 0.922310
Cu5   Cu    Cu3+1 0.424630 0.995180 0.995180 0.921345
Cu6   Cu    Cu3+1 0.575370 0.004820 0.004820 0.921345
H1    H     H_    0.422765 0.105360 0.593525 0.104123
H2    H     H_    0.486750 0.658740 0.913635 0.106893
H3    H     H_    0.894702 0.577195 0.406343 0.103987
H4    H     H_    0.105298 0.422805 0.593657 0.103987
H5    H     H_    0.488875 0.019679 0.717416 0.129355
H6    H     H_    0.511125 0.980321 0.282583 0.129355
H7    H     H_    0.022147 0.717299 0.487842 0.129609
H8    H     H_    0.977853 0.282701 0.512158 0.129609
H9    H     H_    0.717478 0.488935 0.019593 0.130523
H10   H     H_    0.282522 0.511065 0.980406 0.130523
H11   H     H_    0.282764 0.977785 0.512150 0.129132
H12   H     H_    0.577235 0.894640 0.406475 0.104123
H13   H     H_    0.717236 0.022214 0.487850 0.129132
H14   H     H_    0.512090 0.282714 0.977854 0.130095
H15   H     H_    0.487910 0.717286 0.022146 0.130095
H16   H     H_    0.980312 0.511063 0.282601 0.130264
H17   H     H_    0.019688 0.488937 0.717399 0.130264
H18   H     H_    0.731002 0.035561 0.731101 0.154909
H19   H     H_    0.268998 0.964439 0.268899 0.154910
H20   H     H_    0.035541 0.730974 0.731114 0.154533
H21   H     H_    0.964458 0.269025 0.268886 0.154533
H22   H     H_    0.731082 0.730985 0.035533 0.154171
H23   H     H_    0.913500 0.658705 0.486923 0.103883
H24   H     H_    0.268918 0.269014 0.964467 0.154172
H25   H     H_    0.086500 0.341295 0.513077 0.103883
H26   H     H_    0.593908 0.422719 0.105066 0.105790
H27   H     H_    0.406092 0.577281 0.894934 0.105790
H28   H     H_    0.341292 0.086571 0.512868 0.103950
H29   H     H_    0.658708 0.913429 0.487132 0.103950
H30   H     H_    0.513249 0.341260 0.086365 0.106893
O1    O     O_R   0.124540 0.978640 0.385460 -0.510532
O2    O     O_R   0.124540 0.385460 0.978640 -0.511621
O3    O     O_R   0.021360 0.875460 0.614540 -0.510839
O4    O     O_R   0.978640 0.124540 0.385460 -0.510839
O5    O     O_R   0.013780 0.867370 0.487190 -0.514742
O6    O     O_R   0.986220 0.132630 0.512810 -0.514742
O7    O     O_R   0.867370 0.487190 0.013780 -0.513362
O8    O     O_R   0.132630 0.512810 0.986220 -0.513362
O9    O     O_R   0.487190 0.013780 0.867370 -0.514556
O10   O     O_R   0.512810 0.986220 0.132630 -0.514555
O11   O     O_R   0.512810 0.132630 0.986220 -0.513902
O12   O     O_R   0.875460 0.021360 0.614540 -0.510532
O13   O     O_R   0.487190 0.867370 0.013780 -0.513902
O14   O     O_R   0.986220 0.512810 0.132630 -0.513637
O15   O     O_R   0.013780 0.487190 0.867370 -0.513637
O16   O     O_R   0.132630 0.986220 0.512810 -0.515068
O17   O     O_R   0.867370 0.013780 0.487190 -0.515068
O18   O     O_R   0.978640 0.385460 0.124540 -0.511349
O19   O     O_R   0.021360 0.614540 0.875460 -0.511349
O20   O     O_R   0.385460 0.124540 0.978640 -0.511528
O21   O     O_R   0.614540 0.875460 0.021360 -0.511528
O22   O     O_R   0.614540 0.021360 0.875460 -0.510611
O23   O     O_R   0.385460 0.978640 0.124540 -0.510610
O24   O     O_R   0.875460 0.614540 0.021360 -0.511622

loop_
_geom_bond_atom_site_label_1
_geom_bond_atom_site_label_2
_ccdc_geom_bond_type
C16   C28   A    
Cu6   O10   S    
C11   C18   A    
C50   C63   A    
C38   H11   S    
C40   C56   A    
Cu5   O20   S    
C34   C42   A    
C7    C55   S    
C10   C52   S    
Cu1   O1    S    
C64   O3    A    
C4    C46   S    
C27   H27   S    
C43   H17   S    
C4    O23   A    
C5    C53   S    
C14   C30   A    
C46   C59   A    
C61   H21   S    
C8    O19   A    
C55   C61   A    
C35   H8    S    
C1    C31   A    
C26   H1    S    
C23   C43   A    
C20   H4    S    
C34   C35   A    
C40   H14   S    
C19   C26   A    
C10   O17   A    
C2    C50   S    
Cu2   O16   S    
C47   C60   A    
C37   C56   A    
Cu3   O7    S    
C44   C58   A    
C23   C33   A    
Cu5   O9    S    
C25   H12   S    
C31   H5    S    
C48   C65   S    
Cu4   O8    S    
C65   O6    A    
C10   O12   A    
Cu4   O24   S    
C39   C52   A    
C4    O10   A    
C12   C32   A    
C9    O16   A    
C13   C25   A    
C18   C25   A    
C6    O21   A    
C6    C54   S    
C35   C48   A    
C14   C23   S    
C8    O15   A    
C15   C29   A    
C20   C29   A    
C60   H20   S    
C41   H15   S    
C3    C44   S    
C17   C24   A    
C49   C66   S    
C13   C19   A    
Cu1   Cu2   S    
C17   C27   A    
C14   C20   A    
C31   C44   A    
C3    O9    A    
C47   C64   S    
C1    C39   A    
C33   H7    S    
C57   C60   A    
C38   C51   A    
C54   C62   A    
C11   C26   A    
Cu4   O14   S    
Cu6   O11   S    
C66   O24   A    
C18   H29   S    
C7    O14   A    
C30   H23   S    
C42   C55   A    
C2    O2    A    
C36   H9    S    
C9    O1    A    
Cu5   O13   S    
C36   C45   A    
C59   H19   S    
C41   C54   A    
C58   H18   S    
C17   C56   S    
C52   C58   A    
C22   C27   A    
C62   H22   S    
Cu6   O21   S    
C33   C47   A    
C37   H10   S    
C42   H16   S    
Cu2   O3    S    
C39   H13   S    
C65   O4    A    
C3    O22   A    
C64   O5    A    
Cu3   O2    S    
C28   H26   S    
C63   H24   S    
C2    O8    A    
C16   C22   A    
C49   C62   A    
C15   C34   S    
C5    O11   A    
C32   C46   A    
C7    O18   A    
C24   C28   A    
C16   C45   S    
C19   H28   S    
Cu1   O4    S    
C21   C30   A    
C21   H3    S    
Cu3   O18   S    
C29   H25   S    
C9    C51   S    
Cu5   Cu6   S    
C41   C45   A    
C37   C50   A    
C53   C63   A    
Cu4   O19   S    
Cu1   O5    S    
C48   C61   A    
C5    O20   A    
Cu3   O15   S    
C24   H30   S    
C66   O7    A    
C12   C38   A    
Cu3   Cu4   S    
C6    O13   A    
C43   C57   A    
C32   H6    S    
C15   C21   A    
C51   C59   A    
C12   C13   S    
C40   C53   A    
C22   H2    S    
Cu5   O23   S    
C1    C11   S    
Cu2   O6    S    
Cu1   O17   S    
C8    C57   S    
Cu6   O22   S    
C36   C49   A    
Cu2   O12   S    
