data_mof_unit_63495.cif
_audit_creation_date              2012-12-10T16:51:39-0500
_audit_creation_method            fapswitch 2.2
_symmetry_space_group_name_H-M    P1
_symmetry_Int_Tables_number       1
_space_group_crystal_system       triclinic
_cell_length_a                    30.136291
_cell_length_b                    30.701673
_cell_length_c                    21.78541
_cell_angle_alpha                 89.999966
_cell_angle_beta                  134.915558
_cell_angle_gamma                 89.999956
_cell_volume                      14273.8687606

loop_
_atom_site_label
_atom_site_type_symbol
_atom_type_description
_atom_site_fract_x
_atom_site_fract_y
_atom_site_fract_z
_atom_type_partial_charge
C1    C     C_R   0.688676 0.809581 0.880783 0.957476
C2    C     C_R   0.311329 0.809583 0.119213 0.956789
C3    C     C_R   0.188671 0.309583 0.880787 0.956788
C4    C     C_R   0.811324 0.309581 0.119216 0.957464
C5    C     C_R   0.453304 0.787941 0.999047 0.148357
C6    C     C_R   0.546823 0.787937 0.001209 0.148263
C7    C     C_R   0.953180 0.287937 0.998797 0.148263
C8    C     C_R   0.046699 0.287941 0.000959 0.148356
C9    C     C_R   0.476998 0.667723 0.000823 0.121905
C10   C     C_R   0.522808 0.667723 0.998820 0.121712
C11   C     C_R   0.977187 0.167723 0.001170 0.121721
C12   C     C_R   0.022996 0.167723 0.999165 0.121914
C13   C     C_R   0.523572 0.827390 0.001101 -0.208188
C14   C     C_R   0.476663 0.827392 0.999361 -0.208134
C15   C     C_R   0.023343 0.327392 0.000651 -0.208130
C16   C     C_R   0.976434 0.327390 0.998911 -0.208184
C17   C     C_2   0.607403 0.915161 0.762359 0.213415
C18   C     C_2   0.392334 0.915244 0.237521 0.215303
C19   C     C_2   0.107682 0.415248 0.762485 0.215306
C20   C     C_2   0.892586 0.415163 0.237638 0.213405
C21   C     C_2   0.599098 0.912129 0.693292 -0.376457
C22   C     C_2   0.400953 0.912067 0.306834 -0.374138
C23   C     C_2   0.099042 0.412062 0.693156 -0.374128
C24   C     C_2   0.900906 0.412124 0.306716 -0.376447
C25   C     C_2   0.646876 0.882950 0.831840 -0.177261
C26   C     C_2   0.352903 0.883011 0.168075 -0.175203
C27   C     C_2   0.147113 0.383015 0.831932 -0.175194
C28   C     C_2   0.853114 0.382952 0.168157 -0.177255
C29   C     C_2   0.649491 0.841931 0.813785 -0.385750
C30   C     C_2   0.350519 0.841941 0.186194 -0.387014
C31   C     C_2   0.149478 0.341941 0.813807 -0.387024
C32   C     C_2   0.850510 0.341931 0.186214 -0.385775
C33   C     C_R   0.134806 0.752855 0.083333 -0.073187
C34   C     C_R   0.865297 0.753107 0.916883 -0.073160
C35   C     C_R   0.634705 0.253106 0.083122 -0.073161
C36   C     C_R   0.365195 0.252857 0.916669 -0.073190
C37   C     C_R   0.117395 0.753011 0.003852 -0.105352
C38   C     C_R   0.882692 0.752915 0.996340 -0.104488
C39   C     C_R   0.617310 0.252918 0.003663 -0.104496
C40   C     C_R   0.382606 0.253011 0.996149 -0.105343
C41   C     C_R   0.054790 0.754577 0.924902 -0.271107
C42   C     C_R   0.945303 0.754102 0.075337 -0.274797
C43   C     C_R   0.554699 0.254110 0.924666 -0.274784
C44   C     C_R   0.445211 0.254575 0.075100 -0.271116
C45   C     C_R   0.662960 0.749740 0.999658 0.898330
C46   C     C_R   0.337043 0.749743 0.000351 0.898037
C47   C     C_R   0.162957 0.249743 0.999649 0.898049
C48   C     C_R   0.837040 0.249740 0.000342 0.898331
C49   C     C_R   0.007919 0.754774 0.922952 0.125394
C50   C     C_R   0.992190 0.754321 0.077312 0.126863
C51   C     C_R   0.507812 0.254330 0.922692 0.126853
C52   C     C_R   0.492082 0.254773 0.077051 0.125399
C53   C     C_R   0.023945 0.754163 0.001384 0.054015
C54   C     C_R   0.976168 0.754133 0.998876 0.054358
C55   C     C_R   0.523834 0.254137 0.001127 0.054356
C56   C     C_R   0.476056 0.254167 0.998619 0.054015
C57   C     C_R   0.087581 0.753633 0.082172 0.073082
C58   C     C_R   0.912531 0.753958 0.918076 0.072348
C59   C     C_R   0.587471 0.253957 0.081929 0.072350
C60   C     C_R   0.412420 0.253639 0.917830 0.073078
C61   C     C_R   0.945230 0.755313 0.843392 -0.207356
C62   C     C_R   0.054883 0.754494 0.156880 -0.210999
C63   C     C_R   0.445119 0.254507 0.843123 -0.210985
C64   C     C_R   0.554771 0.255309 0.156611 -0.207367
C65   C     C_R   0.897911 0.754868 0.840791 -0.211687
C66   C     C_R   0.102202 0.754127 0.159472 -0.212429
C67   C     C_R   0.397799 0.254139 0.840531 -0.212429
C68   C     C_R   0.602091 0.254863 0.159213 -0.211698
C69   C     C_2   0.941242 0.630146 0.325089 -0.046042
C70   C     C_2   0.062325 0.630800 0.673271 -0.056327
C71   C     C_2   0.437709 0.130777 0.326684 -0.056398
C72   C     C_2   0.558755 0.130140 0.674925 -0.046115
C73   C     C_2   0.911102 0.599813 0.329967 -0.018600
C74   C     C_2   0.092448 0.596198 0.677775 -0.034681
C75   C     C_2   0.407571 0.096220 0.322266 -0.034709
C76   C     C_2   0.588892 0.099818 0.670025 -0.018741
C77   C     C_2   0.905159 0.665951 0.263465 -0.200159
C78   C     C_2   0.098646 0.666533 0.734489 -0.178248
C79   C     C_2   0.401405 0.166521 0.265486 -0.178344
C80   C     C_2   0.594833 0.165947 0.736544 -0.200044
C81   C     C_2   0.853370 0.656807 0.181316 -0.306086
C82   C     C_2   0.145134 0.657444 0.818538 -0.304005
C83   C     C_2   0.354854 0.157436 0.181449 -0.304011
C84   C     C_2   0.646635 0.156805 0.818687 -0.306088
C85   C     C_R   0.059056 0.560423 0.617067 0.886384
C86   C     C_R   0.941826 0.561356 0.384750 0.885441
C87   C     C_R   0.558172 0.061358 0.615246 0.885414
C88   C     C_R   0.440947 0.060427 0.382938 0.886350
C89   C     C_R   0.812570 0.690398 0.118524 0.955809
C90   C     C_R   0.187159 0.690521 0.881507 0.956049
C91   C     C_R   0.312841 0.190520 0.118491 0.956078
C92   C     C_R   0.687431 0.190398 0.881476 0.955808
C93   C     C_R   0.561294 0.942075 0.621694 0.951628
C94   C     C_R   0.438725 0.942052 0.378351 0.952748
C95   C     C_R   0.061273 0.442050 0.621646 0.952782
C96   C     C_R   0.938707 0.442073 0.378309 0.951637
C97   C     C_R   0.836115 0.750975 0.998697 0.893737
C98   C     C_R   0.163926 0.751018 0.001390 0.894124
C99   C     C_R   0.336074 0.251018 0.998611 0.894109
C100  C     C_R   0.663886 0.250976 0.001304 0.893732
C101  C     C_R   0.406687 0.788220 0.997838 -0.246374
C102  C     C_R   0.593428 0.788212 0.002396 -0.246677
C103  C     C_R   0.906574 0.288212 0.997610 -0.246672
C104  C     C_R   0.093316 0.288220 0.002168 -0.246372
C105  C     C_R   0.385048 0.749059 0.000740 -0.077102
C106  C     C_R   0.614962 0.749054 0.999286 -0.076942
C107  C     C_R   0.885038 0.249054 0.000714 -0.076938
C108  C     C_R   0.114952 0.249059 0.999260 -0.077104
C109  C     C_R   0.408638 0.709234 0.003391 -0.185612
C110  C     C_R   0.591278 0.709233 0.996458 -0.185039
C111  C     C_R   0.908720 0.209233 0.003538 -0.185027
C112  C     C_R   0.091359 0.209234 0.996603 -0.185592
C113  C     C_R   0.454102 0.707772 0.001525 0.008942
C114  C     C_R   0.545814 0.707772 0.998328 0.009549
C115  C     C_R   0.954183 0.207772 0.001667 0.009552
C116  C     C_R   0.045895 0.207772 0.998469 0.008943
C117  C     C_R   0.476886 0.747686 0.000164 0.026733
C118  C     C_R   0.523139 0.747684 0.999897 0.026572
C119  C     C_R   0.976861 0.247684 0.000104 0.026572
C120  C     C_R   0.023114 0.247686 0.999837 0.026734
H1    H     H_    0.388024 0.818862 0.996435 0.151124
H2    H     H_    0.612163 0.818853 0.003940 0.151105
H3    H     H_    0.887842 0.318853 0.996070 0.151104
H4    H     H_    0.111981 0.318862 0.003575 0.151128
H5    H     H_    0.042613 0.754621 0.864618 0.156670
H6    H     H_    0.957455 0.753852 0.135602 0.154447
H7    H     H_    0.542547 0.253863 0.864401 0.154459
H8    H     H_    0.457388 0.254617 0.135384 0.156658
H9    H     H_    0.932739 0.755877 0.782965 0.150254
H10   H     H_    0.067375 0.754721 0.217314 0.148935
H11   H     H_    0.432628 0.254738 0.782689 0.148949
H12   H     H_    0.567262 0.255870 0.217039 0.150250
H13   H     H_    0.849981 0.755242 0.777785 0.163939
H14   H     H_    0.150131 0.754230 0.222483 0.163521
H15   H     H_    0.349871 0.254244 0.777519 0.163525
H16   H     H_    0.650020 0.255235 0.222220 0.163934
H17   H     H_    0.921695 0.699195 0.285153 0.175289
H18   H     H_    0.086969 0.699842 0.710669 0.175398
H19   H     H_    0.413150 0.199829 0.289303 0.175405
H20   H     H_    0.578286 0.199190 0.714861 0.175300
H21   H     H_    0.840809 0.623137 0.159412 0.187817
H22   H     H_    0.152805 0.624225 0.841733 0.188288
H23   H     H_    0.347122 0.124211 0.158251 0.188289
H24   H     H_    0.659206 0.123135 0.840589 0.187804
H25   H     H_    0.389810 0.679848 0.005045 0.186665
H26   H     H_    0.610028 0.679848 0.994658 0.185888
H27   H     H_    0.889968 0.179848 0.005334 0.185883
H28   H     H_    0.110185 0.179848 0.994945 0.186663
H29   H     H_    0.541441 0.858240 0.001850 0.154848
H30   H     H_    0.458874 0.858244 0.998766 0.154900
H31   H     H_    0.041134 0.358244 0.001251 0.154902
H32   H     H_    0.958567 0.358240 0.998166 0.154851
H33   H     H_    0.625580 0.888725 0.692305 0.126601
H34   H     H_    0.374740 0.888522 0.308098 0.126210
H35   H     H_    0.125237 0.388507 0.691873 0.126192
H36   H     H_    0.874438 0.388713 0.307716 0.126590
H37   H     H_    0.672509 0.892758 0.897683 0.190823
H38   H     H_    0.327072 0.892861 0.102179 0.191652
H39   H     H_    0.172962 0.392869 0.897833 0.191663
H40   H     H_    0.827468 0.392763 0.102312 0.190833
H41   H     H_    0.619345 0.830925 0.747273 0.157269
H42   H     H_    0.380825 0.830912 0.252718 0.156947
H43   H     H_    0.119154 0.330909 0.747278 0.156941
H44   H     H_    0.880666 0.330923 0.252726 0.157270
O1    O     O_R   0.679230 0.769690 0.858450 -0.615100
O2    O     O_R   0.320770 0.769690 0.141550 -0.615427
O3    O     O_R   0.179230 0.269690 0.858450 -0.615430
O4    O     O_R   0.820770 0.269690 0.141550 -0.615102
O5    O     O_R   0.082500 0.545230 0.590410 -0.600767
O6    O     O_R   0.917500 0.545230 0.409590 -0.587964
O7    O     O_R   0.582500 0.045230 0.590410 -0.587951
O8    O     O_R   0.417500 0.045230 0.409590 -0.600706
O9    O     O_R   0.507930 0.954750 0.590450 -0.588654
O10   O     O_R   0.492070 0.954750 0.409550 -0.591607
O11   O     O_R   0.007930 0.454750 0.590450 -0.591625
O12   O     O_R   0.992070 0.454750 0.409550 -0.588657
O13   O     O_R   0.582530 0.954770 0.590430 -0.619886
O14   O     O_R   0.417470 0.954770 0.409570 -0.617809
O15   O     O_R   0.082530 0.454770 0.590430 -0.617787
O16   O     O_R   0.917470 0.454770 0.409570 -0.619877
O17   O     O_R   0.730270 0.820760 0.960570 -0.621333
O18   O     O_R   0.269730 0.820760 0.039430 -0.621131
O19   O     O_R   0.230270 0.320760 0.960570 -0.621130
O20   O     O_R   0.769730 0.320760 0.039430 -0.621334
O21   O     O_R   0.658400 0.724440 0.948940 -0.619061
O22   O     O_R   0.341600 0.724440 0.051060 -0.618495
O23   O     O_R   0.158400 0.224440 0.948940 -0.618504
O24   O     O_R   0.841600 0.224440 0.051060 -0.619066
O25   O     O_R   0.709450 0.775510 0.051050 -0.620621
O26   O     O_R   0.290550 0.775510 0.948950 -0.620621
O27   O     O_R   0.209450 0.275510 0.051050 -0.620605
O28   O     O_R   0.790550 0.275510 0.948950 -0.620608
O29   O     O_R   0.769710 0.679220 0.039380 -0.618082
O30   O     O_R   0.230290 0.679220 0.960620 -0.614672
O31   O     O_R   0.269710 0.179220 0.039380 -0.614716
O32   O     O_R   0.730290 0.179220 0.960620 -0.618096
O33   O     O_R   0.820750 0.730290 0.141500 -0.621235
O34   O     O_R   0.179250 0.730290 0.858500 -0.624486
O35   O     O_R   0.320750 0.230290 0.141500 -0.624440
O36   O     O_R   0.679250 0.230290 0.858500 -0.621204
O37   O     O_R   0.790530 0.724470 0.948890 -0.617429
O38   O     O_R   0.209470 0.724470 0.051110 -0.617371
O39   O     O_R   0.290530 0.224470 0.948890 -0.617371
O40   O     O_R   0.709470 0.224470 0.051110 -0.617424
O41   O     O_R   0.841580 0.775540 0.051010 -0.627564
O42   O     O_R   0.158420 0.775540 0.948990 -0.627332
O43   O     O_R   0.341580 0.275540 0.051010 -0.627337
O44   O     O_R   0.658420 0.275540 0.948990 -0.627565
O45   O     O_R   0.007900 0.545210 0.590430 -0.616124
O46   O     O_R   0.992100 0.545210 0.409570 -0.607515
O47   O     O_R   0.507900 0.045210 0.590430 -0.607500
O48   O     O_R   0.492100 0.045210 0.409570 -0.616014
Zn1   Zn    Zn3+2 0.715910 0.715890 0.931790 0.985814
Zn2   Zn    Zn3+2 0.284090 0.715890 0.068210 0.988466
Zn3   Zn    Zn3+2 0.215910 0.215890 0.931790 0.988438
Zn4   Zn    Zn3+2 0.784090 0.215890 0.068210 0.985808
Zn5   Zn    Zn3+2 0.784070 0.784090 0.068160 0.966556
Zn6   Zn    Zn3+2 0.215930 0.784090 0.931840 0.967677
Zn7   Zn    Zn3+2 0.284070 0.284090 0.068160 0.967705
Zn8   Zn    Zn3+2 0.715930 0.284090 0.931840 0.966595
Zn9   Zn    Zn3+2 0.450180 0.999980 0.499990 1.025168
Zn10  Zn    Zn3+2 0.549820 0.999980 0.500010 1.017643
Zn11  Zn    Zn3+2 0.950180 0.499980 0.499990 1.017497
Zn12  Zn    Zn3+2 0.049820 0.499980 0.500010 1.025143
C121  C     C_R   0.009572 0.629727 0.379134 0.132324
C122  C     C_R   0.031064 0.630363 0.339161 -0.121914
C123  C     C_R   0.095297 0.631499 0.389395 -0.147664
C124  C     C_R   0.138477 0.632496 0.479757 -0.118558
C125  C     C_R   0.117471 0.632427 0.519979 -0.098666
C126  C     C_R   0.053292 0.631118 0.470001 -0.116064
H45   H     H_    0.998077 0.629815 0.269155 0.139116
H46   H     H_    0.111581 0.631777 0.358250 0.138433
H47   H     H_    0.188190 0.633519 0.518592 0.142532
H48   H     H_    0.150947 0.633626 0.589872 0.168156
H49   H     H_    0.037691 0.631243 0.501945 0.103320
C127  C     C_R   0.993369 0.636054 0.605329 0.120019
C128  C     C_R   0.956237 0.615017 0.613232 -0.077429
C129  C     C_R   0.891315 0.621139 0.550260 -0.149723
C130  C     C_R   0.863325 0.648888 0.480082 -0.073783
C131  C     C_R   0.900249 0.670700 0.472980 -0.094860
C132  C     C_R   0.965106 0.664458 0.535516 -0.201698
H50   H     H_    0.977584 0.593823 0.667887 0.144795
H51   H     H_    0.862745 0.604544 0.556080 0.135437
H52   H     H_    0.813084 0.653664 0.431453 0.146273
H53   H     H_    0.878616 0.692478 0.419036 0.152308
H54   H     H_    0.993274 0.681979 0.529889 0.127976
C133  C     C_R   0.506679 0.135951 0.394448 0.120306
C134  C     C_R   0.543615 0.114927 0.386186 -0.077455
C135  C     C_R   0.608550 0.120997 0.448964 -0.149949
C136  C     C_R   0.636747 0.148680 0.519304 -0.074136
C137  C     C_R   0.600017 0.170472 0.526770 -0.094567
C138  C     C_R   0.535148 0.164276 0.464437 -0.201314
H55   H     H_    0.522105 0.093790 0.331400 0.144753
H56   H     H_    0.636969 0.104416 0.442862 0.135483
H57   H     H_    0.686997 0.153425 0.567775 0.146117
H58   H     H_    0.621810 0.192203 0.580839 0.152391
H59   H     H_    0.507136 0.181782 0.470354 0.127856
C139  C     C_R   0.490431 0.129710 0.620897 0.132341
C140  C     C_R   0.468949 0.130270 0.660877 -0.121825
C141  C     C_R   0.404718 0.131395 0.610654 -0.147691
C142  C     C_R   0.361533 0.132455 0.520301 -0.118598
C143  C     C_R   0.382532 0.132464 0.480077 -0.098552
C144  C     C_R   0.446707 0.131166 0.530040 -0.116135
H60   H     H_    0.501940 0.129674 0.730876 0.139131
H61   H     H_    0.388439 0.131615 0.641801 0.138464
H62   H     H_    0.311822 0.133470 0.481475 0.142545
H63   H     H_    0.349052 0.133718 0.410193 0.168195
H64   H     H_    0.462301 0.131358 0.498093 0.103266
I1    I     I_    0.816343 0.608658 0.270278 -0.343924
I2    I     I_    0.191963 0.594522 0.757205 -0.342953
I3    I     I_    0.308080 0.094645 0.243006 -0.343145
I4    I     I_    0.683631 0.108687 0.729662 -0.343872
I5    I     I_    0.442020 0.606889 0.001526 -0.271391
I6    I     I_    0.557597 0.606889 0.997765 -0.276741
I7    I     I_    0.942394 0.106889 0.002218 -0.276738
I8    I     I_    0.057967 0.106890 0.998448 -0.271415
I9    I     I_    0.573335 0.967773 0.783263 -0.347346
I10   I     I_    0.425785 0.968150 0.216219 -0.355891
I11   I     I_    0.074268 0.468172 0.783812 -0.355734
I12   I     I_    0.926622 0.467791 0.216716 -0.347290
C145  C     C_R   0.201895 0.753458 0.166708 0.121733
C146  C     C_R   0.231703 0.714935 0.214579 -0.120642
C147  C     C_R   0.294837 0.715644 0.293368 -0.141565
C148  C     C_R   0.328292 0.754784 0.324918 -0.100009
C149  C     C_R   0.298677 0.793253 0.277667 -0.129141
C150  C     C_R   0.235716 0.792633 0.198477 -0.147509
H65   H     H_    0.206051 0.684509 0.190731 0.130926
H66   H     H_    0.317775 0.685889 0.330077 0.131088
H67   H     H_    0.377102 0.755330 0.386057 0.124140
H68   H     H_    0.324502 0.823545 0.302486 0.123366
H69   H     H_    0.213234 0.822584 0.162201 0.134436
C151  C     C_R   0.798221 0.753964 0.833509 0.121084
C152  C     C_R   0.768106 0.715539 0.785410 -0.119088
C153  C     C_R   0.704998 0.716485 0.706579 -0.140758
C154  C     C_R   0.671885 0.755768 0.675199 -0.100069
C155  C     C_R   0.701818 0.794140 0.722664 -0.130352
C156  C     C_R   0.764748 0.793283 0.801912 -0.148484
H70   H     H_    0.793499 0.685006 0.809116 0.130974
H71   H     H_    0.681817 0.686805 0.669699 0.130982
H72   H     H_    0.623098 0.756500 0.614019 0.124135
H73   H     H_    0.676268 0.824542 0.697961 0.123577
H74   H     H_    0.787479 0.823163 0.838350 0.134617
C157  C     C_R   0.701782 0.253955 0.166496 0.121094
C158  C     C_R   0.731886 0.215528 0.214590 -0.119119
C159  C     C_R   0.794995 0.216465 0.293419 -0.140771
C160  C     C_R   0.828121 0.255742 0.324804 -0.100075
C161  C     C_R   0.798199 0.294117 0.277344 -0.130317
C162  C     C_R   0.735268 0.293268 0.198098 -0.148461
H75   H     H_    0.706483 0.184999 0.190880 0.130968
H76   H     H_    0.818167 0.186783 0.330294 0.130980
H77   H     H_    0.876909 0.256467 0.385982 0.124130
H78   H     H_    0.823760 0.324514 0.302049 0.123562
H79   H     H_    0.712546 0.323149 0.161664 0.134603
C163  C     C_R   0.298105 0.253454 0.833292 0.121728
C164  C     C_R   0.268307 0.214929 0.785427 -0.120645
C165  C     C_R   0.205172 0.215631 0.706638 -0.141567
C166  C     C_R   0.171705 0.254766 0.675082 -0.100017
C167  C     C_R   0.201310 0.293237 0.722327 -0.129113
C168  C     C_R   0.264273 0.292625 0.801517 -0.147492
H80   H     H_    0.293967 0.184506 0.809280 0.130919
H81   H     H_    0.182241 0.185874 0.669933 0.131087
H82   H     H_    0.122895 0.255307 0.613943 0.124135
H83   H     H_    0.175477 0.323525 0.697503 0.123361
H84   H     H_    0.286747 0.322577 0.837788 0.134433

loop_
_geom_bond_atom_site_label_1
_geom_bond_atom_site_label_2
_ccdc_geom_bond_type
C79   H19   S    
C23   H35   S    
O10   Zn10  S    
C71   C133  S    
C103  H3    S    
C15   H31   S    
C100  O44   A    
C133  C138  A    
C146  C147  A    
C128  H50   S    
O39   Zn3   S    
C148  C149  A    
C48   O24   A    
C55   C59   A    
C24   C96   S    
C159  H76   S    
C46   C105  S    
C94   O14   A    
C125  H48   S    
C95   O11   A    
O8    Zn9   S    
C168  H84   S    
C70   C74   D    
C156  H74   S    
O13   Zn10  S    
C11   C115  A    
C40   C44   A    
C80   C84   D    
C151  C156  A    
O34   Zn6   S    
C41   C49   A    
C124  C125  A    
O25   Zn5   S    
O23   Zn3   S    
C25   C29   D    
C5    C101  A    
O46   Zn12  S    
C27   C31   D    
C41   H5    S    
C28   C32   D    
C43   H7    S    
C1    O17   A    
C20   C28   S    
C163  C164  A    
C85   O5    A    
C4    O4    A    
C99   O43   A    
C165  C166  A    
C19   C23   D    
C125  C126  A    
C91   O31   A    
C78   C82   D    
C123  C124  A    
C68   H16   S    
C87   O7    A    
C1    C29   S    
C160  C161  A    
C96   O16   A    
C3    C31   S    
C8    C104  A    
C4    C32   S    
C150  H69   S    
C155  C156  A    
C36   C163  S    
C131  H53   S    
O36   Zn8   S    
C30   H42   S    
C145  C150  A    
O19   Zn7   S    
C147  H66   S    
C109  H25   S    
C92   O32   A    
C85   O45   A    
O29   Zn1   S    
C83   C91   S    
C121  C126  A    
C17   C25   S    
C142  H62   S    
C83   H23   S    
C45   O21   A    
C137  H58   S    
C21   C93   S    
C49   C53   A    
C93   O9    A    
C23   C95   S    
C26   H38   S    
C51   C55   A    
C6    C102  A    
C162  H79   S    
C42   H6    S    
C61   C65   A    
O20   Zn8   S    
C88   O48   A    
C34   C58   A    
C21   H33   S    
C98   O42   A    
C103  C107  A    
C24   H36   S    
C62   H10   S    
C69   C77   S    
O3    Zn3   S    
C57   C66   A    
C71   C79   S    
C74   I2    S    
C3    O3    A    
O48   Zn10  S    
C53   C54   A    
O41   Zn5   S    
C135  C136  A    
C64   C68   A    
C9    I5    S    
C142  C143  A    
C48   C107  S    
C84   H24   S    
C27   H39   S    
O47   Zn9   S    
C28   H40   S    
C127  C128  A    
C161  H78   S    
C152  H70   S    
C66   H14   S    
C166  H82   S    
C60   C67   A    
C9    C10   A    
C110  C114  A    
C61   H9    S    
C44   C52   A    
C146  H65   S    
C7    C103  A    
C13   C14   A    
C22   C94   S    
C37   C98   S    
C62   C66   A    
O35   Zn7   S    
C143  H63   S    
C93   O13   A    
C134  H55   S    
C129  H51   S    
C116  C120  A    
C127  C132  A    
C63   C67   A    
C152  C153  A    
C58   C65   A    
C35   C157  S    
C76   C87   S    
C124  H47   S    
C42   C50   A    
C113  C117  A    
O1    Zn1   S    
C94   O10   A    
C26   C30   D    
C115  C119  A    
C161  C162  A    
C33   C145  S    
O17   Zn5   S    
C47   O23   A    
C112  C116  A    
C95   O15   A    
C163  C168  A    
C105  C109  A    
O11   Zn11  S    
O12   Zn12  S    
C99   O39   A    
C86   O6    A    
C87   O47   A    
C20   I12   S    
C97   O37   A    
C141  C142  A    
C157  C162  A    
C104  H4    S    
C89   O33   A    
O40   Zn4   S    
C160  H77   S    
O15   Zn12  S    
C2    C30   S    
C9    C113  A    
O4    Zn4   S    
C139  C140  A    
C153  H71   S    
C72   C80   S    
C117  C118  A    
C32   H44   S    
C131  C132  A    
O21   Zn1   S    
C74   C85   S    
C37   C41   A    
C164  C165  A    
C122  C123  A    
C147  C148  A    
C84   C92   S    
C110  H26   S    
C3    O19   A    
C17   I9    S    
C12   C116  A    
C19   I11   S    
C55   C56   A    
C130  C131  A    
C18   C26   S    
C82   H22   S    
O9    Zn9   S    
O24   Zn4   S    
C137  C138  A    
C50   C54   A    
C77   H17   S    
C22   H34   S    
C153  C154  A    
O32   Zn4   S    
O5    Zn12  S    
C35   C59   A    
C64   H12   S    
O14   Zn9   S    
C69   C73   D    
C63   H11   S    
C2    O2    A    
O31   Zn3   S    
C10   C114  A    
C81   C89   S    
C135  H56   S    
C18   C22   D    
C158  H75   S    
C107  C111  A    
C10   I6    S    
O33   Zn5   S    
O26   Zn6   S    
C138  H59   S    
C144  H64   S    
C49   C61   A    
C132  H54   S    
C51   C63   A    
C140  H60   S    
C52   C64   A    
C154  C155  A    
C53   C57   A    
C136  C137  A    
C80   H20   S    
C33   C37   A    
C108  C112  A    
C67   H15   S    
C149  C150  A    
C7    C119  A    
C90   O30   A    
C77   C81   D    
C11   C12   A    
C14   H30   S    
C164  H80   S    
C126  H49   S    
C16   H32   S    
C70   C127  S    
O37   Zn1   S    
C5    C14   A    
C143  C144  A    
C7    C16   A    
C165  H81   S    
C8    C15   A    
O45   Zn11  S    
C104  C108  A    
C134  C135  A    
C129  C130  A    
C96   O12   A    
C86   O46   A    
C69   C121  S    
O30   Zn2   S    
C119  C120  A    
C154  H72   S    
C82   C90   S    
C79   C83   D    
C100  O40   A    
C43   C51   A    
C75   I3    S    
C76   I4    S    
C47   O27   A    
C101  H1    S    
C48   O28   A    
O6    Zn11  S    
C56   C60   A    
C159  C160  A    
C73   I1    S    
C97   O41   A    
C141  H61   S    
C102  H2    S    
C122  H45   S    
C17   C21   D    
O44   Zn8   S    
C72   C139  S    
C88   O8    A    
C70   C78   S    
C35   C39   A    
C139  C144  A    
C72   C76   D    
C12   I8    S    
C40   C99   S    
O42   Zn6   S    
C151  C152  A    
C38   C42   A    
C111  H27   S    
C15   C16   A    
O16   Zn11  S    
C2    O18   A    
C18   I10   S    
C20   C24   D    
C130  H52   S    
C19   C27   S    
C109  C113  A    
C91   O35   A    
C81   H21   S    
C123  H46   S    
C89   O29   A    
C157  C158  A    
C46   O26   A    
C38   C97   S    
C78   H18   S    
C34   C151  S    
C101  C105  A    
C155  H73   S    
C31   H43   S    
C29   H41   S    
C36   C40   A    
O27   Zn7   S    
C39   C43   A    
C145  C146  A    
C149  H68   S    
O38   Zn2   S    
C112  H28   S    
C5    C117  A    
C167  C168  A    
C59   C68   A    
C1    O1    A    
C121  C122  A    
C4    O20   A    
C11   I7    S    
C114  C118  A    
O2    Zn2   S    
C167  H83   S    
C45   O25   A    
C158  C159  A    
O18   Zn6   S    
C25   H37   S    
C50   C62   A    
O28   Zn8   S    
C140  C141  A    
O7    Zn10  S    
C45   C106  S    
C8    C120  A    
C54   C58   A    
C136  H57   S    
C47   C108  S    
C44   H8    S    
C33   C57   A    
C34   C38   A    
C98   O38   A    
C36   C60   A    
C148  H67   S    
C133  C134  A    
C90   O34   A    
O43   Zn7   S    
C13   H29   S    
C92   O36   A    
C6    C13   A    
C71   C75   D    
C39   C100  S    
O22   Zn2   S    
C102  C106  A    
C166  C167  A    
C73   C86   S    
C75   C88   S    
C46   O22   A    
C106  C110  A    
C111  C115  A    
C128  C129  A    
C6    C118  A    
C65   H13   S    
C52   C56   A    
