data_mof_unit_29504.cif
_audit_creation_date              2012-12-11T14:10:38-0500
_audit_creation_method            fapswitch 2.2
_symmetry_space_group_name_H-M    P1
_symmetry_Int_Tables_number       1
_space_group_crystal_system       triclinic
_cell_length_a                    6.948504
_cell_length_b                    14.686455
_cell_length_c                    16.488612
_cell_angle_alpha                 89.938986
_cell_angle_beta                  90.948776
_cell_angle_gamma                 89.716222
_cell_volume                      1682.39213851

loop_
_atom_site_label
_atom_site_type_symbol
_atom_type_description
_atom_site_fract_x
_atom_site_fract_y
_atom_site_fract_z
_atom_type_partial_charge
O1    O     O_R   0.505720 0.582850 0.414440 -0.538469
O2    O     O_R   0.175970 0.593740 0.584970 -0.528107
O3    O     O_R   0.005630 0.417150 0.585560 -0.536319
C1    C     C_R   0.344662 0.612974 0.615070 0.760455
O4    O     O_R   0.176010 0.593740 0.415050 -0.541684
O5    O     O_R   0.005680 0.417150 0.414430 -0.537572
C2    C     C_R   0.343222 0.615957 0.387782 0.733557
O6    O     O_R   0.505680 0.582850 0.585570 -0.548490
O7    O     O_3   0.339190 0.442060 0.500000 -0.368453
V1    V     V_3+5 0.064350 0.510750 0.500000 1.504821
O8    O     O_R   0.675960 0.406260 0.415030 -0.520139
C3    C     C_R   0.844051 0.380322 0.390977 0.770871
O9    O     O_R   0.675920 0.406260 0.584950 -0.546086
C4    C     C_R   0.846330 0.385474 0.613267 0.803102
V2    V     V_3+5 0.564340 0.489250 0.500000 1.511638
O10   O     O_3   0.839370 0.557940 0.500000 -0.381113
C5    C     C_2   0.729658 0.221030 0.787999 0.379298
C6    C     C_2   0.881560 0.164724 0.806846 -0.245335
C7    C     C_2   0.720114 0.271173 0.708484 -0.194574
C8    C     C_2   0.863308 0.325465 0.684633 -0.291487
H1    H     H_    0.587724 0.268436 0.672679 0.148478
H2    H     H_    0.995739 0.328553 0.720539 0.127091
C9    C     C_2   0.992415 0.278852 0.287134 -0.138947
C10   C     C_2   0.846267 0.297504 0.338954 -0.263121
C11   C     C_2   0.990429 0.194968 0.235485 0.355260
C12   C     C_2   0.887567 0.198029 0.165133 0.208212
C13   C     C_2   0.222502 0.775407 0.794965 -0.173164
C14   C     C_2   0.386865 0.812301 0.823882 -0.335693
H3    H     H_    0.087368 0.799222 0.819704 0.174856
H4    H     H_    0.524601 0.786427 0.803894 0.166679
C15   C     C_2   0.213478 0.697369 0.736382 0.023243
C16   C     C_2   0.355442 0.681181 0.681790 -0.386630
H5    H     H_    0.483513 0.723037 0.682838 0.153666
C17   C     C_2   0.232267 0.772138 0.202590 -0.208544
C18   C     C_2   0.396376 0.807902 0.173087 -0.144801
H6    H     H_    0.096210 0.795024 0.176531 0.158572
C19   C     C_2   0.221617 0.699784 0.266506 -0.131910
C20   C     C_2   0.352364 0.689432 0.327281 -0.272435
H7    H     H_    0.097199 0.655310 0.264359 0.164143
H8    H     H_    0.471961 0.735803 0.334127 0.141740
O11   O     O_R   0.230590 0.917060 0.914490 -0.540118
O12   O     O_R   0.560420 0.906240 0.084970 -0.535146
O13   O     O_R   0.730590 0.082870 0.085560 -0.552711
C21   C     C_R   0.393675 0.882397 0.111634 0.688127
O14   O     O_R   0.560310 0.906240 0.915050 -0.546335
O15   O     O_R   0.730490 0.082870 0.914420 -0.515239
C22   C     C_R   0.391301 0.883645 0.887622 0.768244
O16   O     O_R   0.230690 0.917070 0.085620 -0.537665
O17   O     O_3   0.397030 0.057890 0.000040 -0.365337
V3    V     V_3+5 0.671930 0.989260 0.999990 1.499421
O18   O     O_R   0.060200 0.093830 0.914980 -0.528059
C23   C     C_R   0.890531 0.112687 0.884719 0.727599
O19   O     O_R   0.060300 0.093830 0.084900 -0.536218
C24   C     C_R   0.892112 0.119325 0.108925 0.691479
V4    V     V_3+5 0.171920 0.010860 0.999920 1.505136
O20   O     O_3   0.896950 0.942110 0.999960 -0.380221
O21   O     O_3   0.581795 0.228550 0.844406 -0.556393
C25   C     C_3   0.464798 0.307336 0.834720 0.138605
H9    H     H_    0.337162 0.297934 0.873242 0.140731
H10   H     H_    0.403545 0.314849 0.772479 0.114373
C26   C     C_3   0.570883 0.393556 0.862814 -0.381287
H11   H     H_    0.621065 0.384462 0.926465 0.203227
H12   H     H_    0.699389 0.405472 0.825289 0.206489
C27   C     C_3   0.440804 0.477332 0.856753 -0.778316
H13   H     H_    0.396991 0.489372 0.792551 0.246311
H14   H     H_    0.519957 0.538033 0.879200 0.234474
H15   H     H_    0.310502 0.468123 0.893962 0.237937
C28   C     C_2   0.040773 0.638130 0.742317 0.763762
O22   O     O_2   0.055298 0.555623 0.734227 -0.581906
O23   O     O_R   0.862646 0.676573 0.761321 -0.684347
H16   H     H_    0.757097 0.629400 0.765225 0.284774
C29   C     C_2   0.587026 0.769606 0.196121 0.774260
O24   O     O_2   0.623953 0.689558 0.182695 -0.554343
O25   O     O_R   0.721094 0.824920 0.235861 -0.679771
H17   H     H_    0.833946 0.788613 0.258460 0.274923
C30   C     C_2   0.035341 0.143434 0.747196 0.699654
O26   O     O_2   0.994512 0.133539 0.675296 -0.548517
O27   O     O_R   0.225657 0.130915 0.773888 -0.646095
H18   H     H_    0.315998 0.116142 0.728010 0.300763
C31   C     C_2   0.151602 0.343233 0.273008 0.789853
O28   O     O_2   0.317372 0.315274 0.274112 -0.566510
O29   O     O_R   0.112184 0.434888 0.256275 -0.651704
H19   H     H_    0.233246 0.471552 0.247301 0.283527
C32   C     C_2   0.688395 0.230008 0.353129 0.796206
O30   O     O_2   0.613058 0.226036 0.419591 -0.562963
O31   O     O_R   0.627467 0.170421 0.292097 -0.659522
H20   H     H_    0.531126 0.124377 0.311535 0.291982
O32   O     O_3   0.091117 0.115350 0.255970 -0.569552
C33   C     C_3   0.121786 0.106406 0.340591 0.098865
H21   H     H_    0.985630 0.115049 0.374241 0.123446
H22   H     H_    0.227116 0.157779 0.362681 0.139122
C34   C     C_3   0.201698 0.011417 0.359802 -0.321037
H23   H     H_    0.332914 0.998225 0.323997 0.195944
H24   H     H_    0.241849 0.007773 0.425259 0.168740
C35   C     C_3   0.054256 0.937600 0.340682 -0.654002
H25   H     H_    0.920742 0.949072 0.375451 0.222325
H26   H     H_    0.114855 0.870039 0.357676 0.202970
H27   H     H_    0.018767 0.937626 0.274780 0.262455
O33   O     O_3   0.806178 0.281353 0.141823 -0.589153
C36   C     C_3   0.623573 0.271230 0.104419 0.100880
H28   H     H_    0.532934 0.222401 0.138580 0.181203
H29   H     H_    0.639789 0.247855 0.040699 0.121139
C37   C     C_3   0.522495 0.363944 0.103636 -0.264446
H30   H     H_    0.520387 0.391880 0.166143 0.240546
H31   H     H_    0.604390 0.412436 0.065909 0.193356
C38   C     C_3   0.316448 0.357029 0.070783 -0.783394
H32   H     H_    0.315926 0.332423 0.007430 0.214206
H33   H     H_    0.246278 0.425068 0.072387 0.245035
H34   H     H_    0.231910 0.308977 0.107777 0.245607

loop_
_geom_bond_atom_site_label_1
_geom_bond_atom_site_label_2
_ccdc_geom_bond_type
O16   V4    S    
V4    O20   S    
C14   C22   S    
C10   C32   S    
C13   H3    S    
C17   C19   S    
C35   H25   S    
C1    O6    A    
C35   H27   S    
C6    C23   S    
O19   C24   A    
C7    H1    S    
C32   O31   S    
O5    C3    A    
C38   H32   S    
C25   H10   S    
V2    O10   S    
O15   C23   A    
C17   C18   D    
C11   O32   S    
C26   H12   S    
O11   V4    S    
O8    V2    S    
O33   C36   S    
C28   O22   D    
C9    C10   D    
O23   H16   S    
O1    V2    S    
C9    C31   S    
C33   H22   S    
O7    V1    S    
O18   V4    S    
C12   O33   S    
C25   C26   S    
O14   C22   A    
O1    C2    A    
O9    C4    A    
O12   C21   A    
C12   C24   S    
C36   H29   S    
O19   V4    S    
C15   C28   S    
O25   H17   S    
C13   C15   S    
O18   C23   A    
C27   H15   S    
C4    C8    S    
C32   O30   D    
C31   O29   S    
O4    C2    A    
O31   H20   S    
C31   O28   D    
C25   H9    S    
O17   V4    S    
C36   C37   S    
V3    O20   S    
C27   H14   S    
C26   C27   S    
O2    C1    A    
C19   C20   D    
O13   C24   A    
C15   C16   D    
C34   H24   S    
C5    C6    D    
O11   C22   A    
C37   H31   S    
C30   O26   D    
C33   C34   S    
C18   C21   S    
C1    C16   S    
O3    C4    A    
O12   V3    S    
C29   O25   S    
C8    H2    S    
C18   C29   S    
O17   V3    S    
O6    V2    S    
O9    V2    S    
O2    V1    S    
C37   H30   S    
O15   V3    S    
C6    C30   S    
O27   H18   S    
C30   O27   S    
C29   O24   D    
O5    V1    S    
O8    C3    A    
C35   H26   S    
O13   V3    S    
C3    C10   S    
C27   H13   S    
C7    C8    D    
C14   H4    S    
C11   C12   D    
O4    V1    S    
C19   H7    S    
O3    V1    S    
V1    O10   S    
C16   H5    S    
C20   H8    S    
O21   C25   S    
C38   H33   S    
O14   V3    S    
C34   H23   S    
C5    C7    S    
C2    C20   S    
C37   C38   S    
C17   H6    S    
C34   C35   S    
O7    V2    S    
C26   H11   S    
C9    C11   S    
O32   C33   S    
C28   O23   S    
O29   H19   S    
C13   C14   D    
C36   H28   S    
C33   H21   S    
C21   O16   A    
C5    O21   S    
C38   H34   S    
