data_mof_unit_43262.cif
_audit_creation_date              2013-03-05T16:11:04-0500
_audit_creation_method            fapswitch 2.2
_symmetry_space_group_name_H-M    P1
_symmetry_Int_Tables_number       1
_space_group_crystal_system       triclinic
_cell_length_a                    10.843408
_cell_length_b                    9.635613
_cell_length_c                    10.855723
_cell_angle_alpha                 89.70012
_cell_angle_beta                  91.013657
_cell_angle_gamma                 90.20582
_cell_volume                      1134.0372567

loop_
_atom_site_label
_atom_site_type_symbol
_atom_site_description
_atom_site_fract_x
_atom_site_fract_y
_atom_site_fract_z
_atom_type_partial_charge
O1    O     O_R   0.317570 0.620260 0.500070 -0.596643
O2    O     O_R   0.317570 0.379740 0.500070 -0.605410
C1    C     C_R   0.259686 0.499624 0.496167 0.754830
O3    O     O_R   0.499850 0.620240 0.316900 -0.600408
O4    O     O_R   0.499850 0.379760 0.316900 -0.603587
C2    C     C_R   0.502428 0.500099 0.258936 0.849737
Cu1   Cu    Cu3+1 0.499860 0.642410 0.500060 0.994914
Cu2   Cu    Cu3+1 0.499860 0.357590 0.500060 0.986448
O5    O     O_R   0.682190 0.620260 0.500030 -0.531702
O6    O     O_R   0.682190 0.379740 0.500030 -0.563941
O7    O     O_R   0.499910 0.620280 0.683200 -0.493791
O8    O     O_R   0.499910 0.379720 0.683200 -0.482303
C3    C     C_R   0.738464 0.500230 0.513218 0.845996
C4    C     C_R   0.500988 0.499688 0.738555 0.866441
C5    C     C_3   0.450844 0.615784 0.034314 0.092704
C6    C     C_3   0.440663 0.388886 0.035770 0.087569
C7    C     C_3   0.387214 0.505123 0.952491 0.114295
C8    C     C_3   0.501801 0.499091 0.872326 -0.118614
C9    C     C_3   0.565338 0.607167 0.953422 0.365094
C10   C     C_3   0.555226 0.385214 0.954712 0.382454
C11   C     C_3   0.621555 0.493009 0.035747 -0.027205
C12   C     C_3   0.505604 0.499499 0.119854 -0.165299
C13   C     C_3   0.073897 0.625719 0.572051 -0.421889
C14   C     C_3   0.072828 0.368407 0.567084 -0.420664
H1    H     H_    0.095682 0.724939 0.524646 0.187388
H2    H     H_    0.111712 0.270357 0.531601 0.183762
H3    H     H_    0.122399 0.629488 0.663033 0.177305
H4    H     H_    0.103751 0.373918 0.665214 0.185680
C15   C     C_3   0.933405 0.616732 0.593490 -0.398557
C16   C     C_3   0.930834 0.361503 0.560903 -0.506233
H5    H     H_    0.915405 0.594291 0.692277 0.181280
H6    H     H_    0.895669 0.340246 0.654873 0.211675
H7    H     H_    0.892149 0.719042 0.572213 0.216700
H8    H     H_    0.902128 0.272558 0.502689 0.167407
C17   C     C_3   0.057619 0.502016 0.360523 0.306156
C18   C     C_3   0.119901 0.498815 0.495900 0.098499
C19   C     C_3   0.876429 0.500959 0.511068 0.036987
C20   C     C_3   0.914341 0.529274 0.375153 0.759970
C21   C     C_3   0.627195 0.083741 0.517830 0.270976
C22   C     C_3   0.626731 0.917349 0.521362 0.238033
H9    H     H_    0.681911 0.116046 0.436132 0.034914
H10   H     H_    0.685124 0.881845 0.443955 0.087585
C23   C     C_3   0.421102 0.082128 0.602525 0.331833
C24   C     C_3   0.416531 0.917385 0.598911 0.320904
C25   C     C_3   0.451590 0.083806 0.383189 -0.042656
C26   C     C_3   0.454032 0.917436 0.382122 -0.033271
N1    N     N_3   0.500250 0.143650 0.502780 -0.182735
N2    N     N_3   0.500250 0.856350 0.502780 -0.184441
H11   H     H_    0.513960 0.118015 0.308456 0.147047
H12   H     H_    0.519809 0.887206 0.309517 0.140646
H13   H     H_    0.325371 0.118652 0.588292 0.106809
H14   H     H_    0.320169 0.889813 0.575415 0.111569
C27   C     C_3   0.254586 0.511874 0.904726 -0.855991
H15   H     H_    0.234621 0.420440 0.845962 0.229651
H16   H     H_    0.190696 0.512108 0.983482 0.240329
H17   H     H_    0.241411 0.608203 0.849831 0.241041
O9    O     O_3   0.886136 0.670073 0.349741 -0.763603
H18   H     H_    0.877294 0.683368 0.259597 0.330742
O10   O     O_3   0.842264 0.446674 0.294456 -0.796664
H19   H     H_    0.842101 0.348860 0.322657 0.303570
O11   O     O_3   0.687287 0.139874 0.622069 -0.659820
H20   H     H_    0.776733 0.122288 0.613528 0.294504
O12   O     O_3   0.681305 0.865738 0.630503 -0.669732
H21   H     H_    0.770151 0.889718 0.628732 0.303685
O13   O     O_3   0.450495 0.132729 0.720746 -0.658227
H22   H     H_    0.528818 0.092387 0.750877 0.401823
O14   O     O_3   0.429701 0.857568 0.716730 -0.691993
H23   H     H_    0.512690 0.876119 0.750989 0.406414
C28   C     C_3   0.324102 0.143468 0.344589 -0.781697
H24   H     H_    0.249045 0.120949 0.409296 0.200976
H25   H     H_    0.331056 0.253039 0.329123 0.282661
H26   H     H_    0.292278 0.106818 0.253717 0.209250
C29   C     C_3   0.328494 0.856672 0.337909 -0.773379
H27   H     H_    0.249778 0.882081 0.396793 0.198566
H28   H     H_    0.303854 0.894509 0.245146 0.208407
H29   H     H_    0.331557 0.746547 0.325381 0.284307
C30   C     C_3   0.390924 0.753725 0.058450 -0.838043
H30   H     H_    0.374062 0.809055 0.969857 0.277746
H31   H     H_    0.300759 0.734780 0.101561 0.229480
H32   H     H_    0.453778 0.817734 0.116049 0.229593
C31   C     C_3   0.371231 0.256026 0.061361 -0.836659
H33   H     H_    0.346335 0.204838 0.972932 0.274127
H34   H     H_    0.431570 0.185090 0.115235 0.228995
H35   H     H_    0.285173 0.280487 0.109240 0.223178
O15   O     O_3   0.631083 0.721414 0.908621 -0.699885
H36   H     H_    0.659385 0.773241 0.982569 0.322223
O16   O     O_3   0.610796 0.264601 0.911292 -0.684324
H37   H     H_    0.632391 0.209103 0.985663 0.318671
C32   C     C_3   0.760165 0.483232 0.050230 -0.730712
H38   H     H_    0.794660 0.572802 0.103362 0.246763
H39   H     H_    0.785104 0.381771 0.091872 0.258620
H40   H     H_    0.802680 0.488103 0.957923 0.226445
C33   C     C_3   0.115372 0.614693 0.277057 -0.888365
H41   H     H_    0.212245 0.588159 0.257272 0.215117
H42   H     H_    0.066867 0.619049 0.186046 0.236038
H43   H     H_    0.110002 0.718960 0.318345 0.243053
C34   C     C_3   0.078470 0.364852 0.289279 -0.901293
H44   H     H_    0.046382 0.270586 0.337791 0.217256
H45   H     H_    0.031212 0.367387 0.197561 0.259999
H46   H     H_    0.176008 0.354933 0.268828 0.222903

loop_
_geom_bond_atom_site_label_1
_geom_bond_atom_site_label_2
_geom_bond_distance
_ccdc_geom_bond_type
O16   H37   0.991120 S    
C33   H41   1.106974 S    
C29   H27   1.104329 S    
C4    C8    1.452035 S    
C17   C18   1.606671 S    
C34   H46   1.089173 S    
C34   H44   1.105733 S    
Cu1   Cu2   2.744414 S    
C21   H9    1.117988 S    
C11   C32   1.511669 S    
C30   H30   1.109822 S    
C5    C9    1.536044 S    
C14   C18   1.560701 S    
C22   O12   1.404434 S    
C13   C15   1.547194 S    
C6    C10   1.535602 S    
C9    C11   1.534764 S    
C14   H2    1.109583 S    
O15   H36   0.991151 S    
O4    C2    1.316820 A    
O7    C4    1.305364 A    
C27   H17   1.108703 S    
C2    C12   1.510871 S    
C10   O16   1.398838 S    
C15   H7    1.105645 S    
C22   N2    1.500927 S    
C8    C9    1.522207 S    
C25   N1    1.509224 S    
C28   H25   1.070783 S    
O5    C3    1.315572 A    
C34   H45   1.111898 S    
C5    C12   1.563571 S    
C6    C7    1.543752 S    
C13   H3    1.111428 S    
C32   H39   1.107343 S    
C3    C19   1.496596 S    
C23   O13   1.406171 S    
C24   H14   1.103050 S    
C17   C33   1.548171 S    
O10   H19   0.989458 S    
C33   H42   1.111701 S    
C11   C12   1.568483 S    
C29   H28   1.098042 S    
O11   H20   0.991228 S    
O3    Cu1   2.000886 S    
C31   H34   1.105797 S    
C31   H33   1.110177 S    
Cu1   O5    1.989333 S    
C27   H16   1.109902 S    
C21   O11   1.405493 S    
C26   N2    1.511320 S    
C16   H8    1.107955 S    
C25   C28   1.549123 S    
O14   H23   0.983747 S    
C17   C20   1.587460 S    
O3    C2    1.321104 A    
C21   C22   1.603536 S    
C27   H15   1.108895 S    
O12   H21   0.990406 S    
C16   C19   1.559850 S    
O1    C1    1.319571 A    
C28   H26   1.098949 S    
Cu1   O7    1.998401 S    
C23   C24   1.588662 S    
C19   C20   1.561041 S    
C20   O9    1.416444 S    
C25   H11   1.113211 S    
Cu2   O8    2.000620 S    
C7    C8    1.530965 S    
C30   H31   1.105556 S    
C32   H40   1.111098 S    
O8    C4    1.305535 A    
C13   C18   1.567487 S    
C33   H43   1.104403 S    
C29   H29   1.071222 S    
C7    C27   1.521602 S    
C31   H35   1.102962 S    
C21   N1    1.500496 S    
C30   H32   1.105364 S    
C5    C7    1.544329 S    
C6    C12   1.564313 S    
O1    Cu1   1.987372 S    
O2    Cu2   1.988897 S    
C14   H4    1.112598 S    
C9    O15   1.399159 S    
O6    C3    1.316931 A    
O4    Cu2   1.998663 S    
C26   H12   1.112908 S    
Cu1   N2    2.061797 S    
O2    C1    1.316769 A    
Cu2   N1    2.061518 S    
C15   H5    1.113370 S    
C16   H6    1.113102 S    
C23   H13   1.105292 S    
O9    H18   0.989272 S    
C5    C30   1.507752 S    
C1    C18   1.515698 S    
C22   H10   1.116896 S    
C6    C31   1.509850 S    
C8    C10   1.521658 S    
C13   H1    1.110040 S    
C28   H24   1.104654 S    
C14   C16   1.541191 S    
C20   O10   1.410792 S    
C25   C26   1.603502 S    
C10   C11   1.533559 S    
Cu2   O6    1.987808 S    
O13   H22   0.985182 S    
C15   C19   1.553268 S    
C24   O14   1.405302 S    
C32   H38   1.101232 S    
C17   C34   1.554058 S    
C23   N1    1.510947 S    
C26   C29   1.549294 S    
C24   N2    1.517498 S    
