data_mof_unit_50240.cif
_audit_creation_date              2012-12-11T17:43:20-0500
_audit_creation_method            fapswitch 2.2
_symmetry_space_group_name_H-M    P1
_symmetry_Int_Tables_number       1
_space_group_crystal_system       triclinic
_cell_length_a                    15.103777
_cell_length_b                    15.25267
_cell_length_c                    16.942889
_cell_angle_alpha                 108.579663
_cell_angle_beta                  105.915983
_cell_angle_gamma                 109.643629
_cell_volume                      3150.53276915

loop_
_atom_site_label
_atom_site_type_symbol
_atom_type_description
_atom_site_fract_x
_atom_site_fract_y
_atom_site_fract_z
_atom_type_partial_charge
C1    C     C_R   0.088020 0.286693 0.070344 -0.096553
C2    C     C_R   0.051892 0.058528 0.985766 0.173794
C3    C     C_R   0.998948 0.915826 0.024058 -0.069232
C4    C     C_R   0.002753 0.100384 0.034389 -0.069137
C5    C     C_R   0.051660 0.966468 0.981830 -0.096551
C6    C     C_R   0.951136 0.051625 0.077964 -0.093499
C7    C     C_R   0.791347 0.053328 0.093681 -0.125833
C8    C     C_R   0.212676 0.959334 0.976437 -0.144699
C9    C     C_R   0.803721 0.199600 0.216105 -0.075935
C10   C     C_R   0.216599 0.877635 0.830390 -0.080338
C11   C     C_R   0.570590 0.713742 0.284133 -0.085878
C12   C     C_R   0.909327 0.721548 0.960658 -0.104553
C13   C     C_R   0.474121 0.244297 0.655319 -0.109952
C14   C     C_R   0.538090 0.657618 0.189669 -0.113294
C15   C     C_R   0.477708 0.282045 0.743525 -0.119647
C16   C     C_R   0.934905 0.510068 0.742761 -0.142582
C17   C     C_R   0.064607 0.550562 0.264212 -0.130823
C18   C     C_R   0.498881 0.548827 0.149150 0.109895
C19   C     C_R   0.456255 0.366192 0.776053 0.114253
C20   C     C_R   0.491098 0.496610 0.203751 -0.169347
C21   C     C_R   0.429301 0.410354 0.717904 -0.158405
C22   C     C_R   0.521189 0.552809 0.297886 -0.125545
C23   C     C_R   0.025551 0.564008 0.737768 0.059775
C24   C     C_R   0.425341 0.371991 0.629549 -0.107904
C25   C     C_R   0.561595 0.661410 0.338186 -0.098668
C26   C     C_R   0.448030 0.289280 0.598398 -0.093101
C27   C     C_R   0.555091 0.470202 0.036881 -0.169346
C28   C     C_R   0.385107 0.428748 0.886613 -0.172754
C29   C     C_R   0.548764 0.431581 0.947943 0.096836
C30   C     C_R   0.394170 0.470956 0.976627 0.104432
C31   C     C_R   0.463583 0.408959 0.871018 0.014802
C32   C     C_R   0.479267 0.492135 0.052426 0.005889
C33   C     C_R   0.743410 0.103023 0.137555 -0.066527
C34   C     C_R   0.973243 0.539321 0.273302 0.043706
C35   C     C_R   0.267559 0.934094 0.926245 -0.074685
C36   C     C_R   0.965478 0.584145 0.359945 0.129527
C37   C     C_R   0.034338 0.595903 0.666533 0.135444
C38   C     C_R   0.140369 0.664524 0.595377 -0.243993
C39   C     C_R   0.862033 0.562770 0.445548 -0.220364
C40   C     C_R   0.775034 0.203844 0.812561 -0.085652
C41   C     C_R   0.277436 0.785994 0.177509 -0.119339
C42   C     C_R   0.131905 0.639799 0.665687 -0.193680
C43   C     C_R   0.868259 0.554032 0.363171 -0.163984
C44   C     C_R   0.945378 0.579305 0.597121 -0.304087
C45   C     C_R   0.758068 0.198422 0.726083 0.043265
C46   C     C_R   0.056312 0.639469 0.442052 -0.263115
C47   C     C_R   0.952331 0.596545 0.522862 0.182408
C48   C     C_R   0.050497 0.638259 0.521741 0.186841
C49   C     C_R   0.715702 0.103671 0.640372 0.131580
C50   C     C_R   0.438228 0.861228 0.325984 0.131409
C51   C     C_R   0.585281 0.032781 0.395151 -0.224234
C52   C     C_R   0.607791 0.916744 0.557209 -0.233469
C53   C     C_R   0.493159 0.952524 0.320787 -0.174349
C54   C     C_R   0.678743 0.005334 0.639239 -0.149800
C55   C     C_R   0.482060 0.846750 0.402079 -0.300401
C56   C     C_R   0.332137 0.784896 0.257066 0.073151
C57   C     C_R   0.696620 0.110056 0.557137 -0.271751
C58   C     C_R   0.572531 0.926997 0.477010 0.178008
C59   C     C_R   0.621475 0.022735 0.475458 0.186584
C60   C     C_R   0.912110 0.246397 0.251250 -0.107962
C61   C     C_R   0.110159 0.843987 0.784910 -0.087026
C62   C     C_R   0.960366 0.196694 0.207898 -0.123106
C63   C     C_R   0.054006 0.864900 0.835102 -0.116411
C64   C     C_R   0.279376 0.555457 0.968650 0.180784
C65   C     C_R   0.698478 0.400585 0.992675 0.155662
C66   C     C_R   0.900266 0.099752 0.128700 0.173064
C67   C     C_R   0.311861 0.488194 0.989907 -0.000623
C68   C     C_R   0.105391 0.924370 0.931130 0.176053
C69   C     C_R   0.780613 0.298219 0.734833 -0.124183
C70   C     C_R   0.272372 0.691065 0.253763 -0.134426
C71   C     C_R   0.263927 0.452054 0.039014 -0.110406
C72   C     C_R   0.705176 0.500677 0.921164 -0.125282
C73   C     C_R   0.106812 0.596855 0.820052 -0.104075
C74   C     C_R   0.891420 0.468299 0.187442 -0.097872
C75   C     C_R   0.914840 0.200359 0.991549 -0.099627
C76   C     C_R   0.083462 0.805782 0.042678 -0.107861
C77   C     C_R   0.001502 0.192905 0.033876 0.105428
C78   C     C_R   0.641905 0.434219 0.943794 -0.014374
C79   C     C_R   0.995839 0.818613 0.016404 0.131228
C80   C     C_R   0.949047 0.957622 0.072412 0.170276
H1    H     H_    0.166222 0.309557 0.116323 0.098771
H2    H     H_    0.497229 0.245616 0.786383 0.141654
H3    H     H_    0.515024 0.512439 0.339889 0.108062
H4    H     H_    0.405193 0.406793 0.585371 0.109563
H5    H     H_    0.623821 0.491294 0.095851 0.140255
H6    H     H_    0.316971 0.411260 0.829240 0.143656
H7    H     H_    0.132188 0.669777 0.442284 0.118004
H8    H     H_    0.869734 0.546650 0.596981 0.120742
H9    H     H_    0.796717 0.516075 0.301512 0.126579
H10   H     H_    0.201821 0.653107 0.717960 0.143835
H11   H     H_    0.216006 0.695847 0.594819 0.134761
H12   H     H_    0.830061 0.704491 0.923654 0.111746
H13   H     H_    0.786234 0.532680 0.445975 0.127035
H14   H     H_    0.856556 0.487531 0.697732 0.087506
H15   H     H_    0.143345 0.598863 0.316391 0.096653
H16   H     H_    0.659454 0.067177 0.110091 0.131940
H17   H     H_    0.350183 0.961181 0.961354 0.133220
H18   H     H_    0.623207 0.105389 0.392555 0.129713
H19   H     H_    0.573111 0.842583 0.558344 0.124006
H20   H     H_    0.766475 0.238398 0.249491 0.113499
H21   H     H_    0.259972 0.861408 0.791339 0.121949
H22   H     H_    0.958697 0.321553 0.311677 0.119743
H23   H     H_    0.743781 0.979680 0.031676 0.134213
H24   H     H_    0.071423 0.803624 0.710561 0.135060
H25   H     H_    0.044378 0.234363 0.235015 0.108471
H26   H     H_    0.972103 0.840453 0.798958 0.116519
H27   H     H_    0.763170 0.140811 0.830774 0.096201
H28   H     H_    0.306697 0.839063 0.150494 0.098046
H29   H     H_    0.773727 0.322525 0.681329 0.096056
H30   H     H_    0.296548 0.655890 0.295932 0.089559
H31   H     H_    0.278026 0.404422 0.071258 0.125959
H32   H     H_    0.682771 0.535427 0.877720 0.115025
H33   H     H_    0.183259 0.659480 0.846449 0.139131
H34   H     H_    0.254064 0.008401 0.050177 0.110209
H35   H     H_    0.810025 0.443446 0.169603 0.124518
H36   H     H_    0.462910 0.412858 0.173556 0.130160
H37   H     H_    0.413022 0.475530 0.741429 0.132353
H38   H     H_    0.729868 0.184367 0.556235 0.119860
H39   H     H_    0.442828 0.776549 0.407204 0.122210
H40   H     H_    0.696877 0.996863 0.701790 0.119061
H41   H     H_    0.462812 0.965052 0.262026 0.122118
H42   H     H_    0.834679 0.144329 0.966561 0.108417
H43   H     H_    0.163375 0.865520 0.082408 0.096791
H44   H     H_    0.586816 0.705063 0.411395 0.108722
H45   H     H_    0.445305 0.259989 0.530126 0.105758
H46   H     H_    0.604134 0.797985 0.315521 0.136597
H47   H     H_    0.491557 0.180127 0.631100 0.122151
H48   H     H_    0.546973 0.699128 0.148742 0.151289
I1    I     I_    0.371302 0.677308 0.947138 -0.540636
I2    I     I_    0.634547 0.263127 0.007422 -0.523326
I3    I     I_    0.878272 0.883078 0.142722 -0.430297
I4    I     I_    0.120313 0.129479 0.910840 -0.442987
N1    N     N_R   0.055660 0.348550 0.045620 -0.042993
N2    N     N_R   0.185200 0.638170 0.176300 -0.041482
N3    N     N_R   0.201680 0.494570 0.045620 -0.056097
N4    N     N_R   0.798320 0.505430 0.954380 -0.050219
N5    N     N_R   0.068420 0.560530 0.871650 -0.040224
N6    N     N_R   0.931580 0.439470 0.128350 -0.034397
N7    N     N_R   0.948070 0.295860 0.997670 -0.040753
N8    N     N_R   0.051930 0.704140 0.002330 -0.046833
N9    N     N_R   0.944340 0.651450 0.954380 -0.049485
N10   N     N_R   0.960830 0.507850 0.823700 -0.041701
N11   N     N_R   0.039170 0.492150 0.176300 -0.047274
N12   N     N_R   0.811290 0.303410 0.871650 -0.037457
N13   N     N_R   0.188710 0.696590 0.128350 -0.037970
N14   N     N_R   0.205200 0.552990 0.997670 -0.058995
N15   N     N_R   0.794800 0.447010 0.002330 -0.058484
N16   N     N_R   0.814800 0.361830 0.823700 -0.044198
Ni1   Ni    Ni4+2 0.119340 0.493420 0.109960 0.214332
Ni2   Ni    Ni4+2 0.880660 0.506580 0.890040 0.214642
Ni3   Ni    Ni4+2 0.872590 0.372590 0.000000 0.253781
Ni4   Ni    Ni4+2 0.127410 0.627410 0.000000 0.237851

loop_
_geom_bond_atom_site_label_1
_geom_bond_atom_site_label_2
_ccdc_geom_bond_type
N5    N10   A    
C72   H32   S    
C41   H28   S    
C54   H40   S    
C27   C29   A    
C75   H42   S    
C1    C77   A    
C14   C18   A    
C16   N10   A    
C76   C79   A    
N12   N16   A    
C19   C31   S    
C65   I2    S    
C49   C57   A    
C62   H25   S    
C55   H39   S    
C15   C19   A    
C74   N6    A    
C43   H9    S    
C18   C32   S    
C74   H35   S    
C75   N7    A    
C19   C21   A    
C24   C26   A    
C38   C42   A    
N12   Ni3   S    
N6    N11   A    
C10   H21   S    
C71   N3    A    
C11   C14   A    
C60   H22   S    
C57   C59   A    
C11   C25   A    
C21   H37   S    
C49   C54   A    
C12   C79   A    
C73   H33   S    
C12   N9    A    
C60   C62   A    
C37   C42   A    
C27   H5    S    
C39   H13   S    
C72   C78   A    
C70   H30   S    
C69   H29   S    
C29   C78   S    
C22   C25   A    
C71   H31   S    
N11   Ni1   S    
C2    I4    S    
N5    Ni4   S    
C36   C46   A    
C10   C35   A    
C17   H15   S    
C65   N15   A    
N8    Ni4   S    
C67   C71   A    
C30   C67   S    
C44   C47   A    
C8    H34   S    
C51   H18   S    
C3    C79   S    
C80   I3    S    
C7    H23   S    
C9    C33   A    
C7    C33   A    
C23   C73   A    
C5    C68   S    
C1    N1    A    
C3    C80   A    
C52   C54   A    
N9    Ni2   S    
C15   H2    S    
C76   N8    A    
C40   C45   A    
C46   C48   A    
C50   C53   A    
C62   C66   A    
C45   C69   A    
N4    N15   A    
C64   C67   A    
C61   H24   S    
N1    Ni1   S    
N8    N9    A    
C4    C6    A    
C20   H36   S    
C39   C43   A    
C58   C59   A    
N3    Ni1   S    
N2    Ni1   S    
C38   H11   S    
C50   C56   S    
C42   H10   S    
C26   H45   S    
C13   H47   S    
C2    C4    A    
C41   C56   A    
C6    C80   A    
C47   C48   A    
C45   C49   S    
N3    N14   A    
C11   H46   S    
C61   C63   A    
C63   H26   S    
C75   C77   A    
C52   C58   A    
C34   C74   A    
C40   H27   S    
N14   Ni4   S    
C20   C22   A    
C8    C68   A    
C16   C23   A    
C56   C70   A    
C13   C15   A    
C28   H6    S    
C13   C26   A    
C21   C24   A    
C10   C61   A    
C51   C59   A    
C17   C34   A    
C33   H16   S    
C39   C47   A    
C46   H7    S    
N2    N13   A    
C63   C68   A    
C65   C78   A    
C64   N14   A    
C27   C32   A    
C76   H43   S    
C38   C48   A    
C12   H12   S    
C28   C31   A    
N16   Ni2   S    
C3    C5    A    
N4    Ni2   S    
N1    N7    A    
N6    Ni3   S    
C9    H20   S    
C52   H19   S    
C16   H14   S    
C50   C55   A    
C40   N12   A    
C17   N11   A    
C9    C60   A    
C22   H3    S    
N10   Ni2   S    
C37   C44   A    
C28   C30   A    
C24   H4    S    
C4    C77   S    
C29   C31   A    
C23   C37   S    
C7    C66   A    
C30   C32   A    
C73   N5    A    
N15   Ni3   S    
N7    Ni3   S    
C34   C36   S    
C18   C20   A    
C25   H44   S    
C44   H8    S    
N13   Ni4   S    
C72   N4    A    
C2    C5    A    
C6    C66   S    
C41   N13   A    
C64   I1    S    
C55   C58   A    
C70   N2    A    
C69   N16   A    
C36   C43   A    
C53   H41   S    
C51   C53   A    
C35   H17   S    
C14   H48   S    
C1    H1    S    
C8    C35   A    
C57   H38   S    
