data_mof_unit_32627.cif
_audit_creation_date              2012-12-10T17:40:32-0500
_audit_creation_method            fapswitch 2.2
_symmetry_space_group_name_H-M    P1
_symmetry_Int_Tables_number       1
_space_group_crystal_system       triclinic
_cell_length_a                    13.77257
_cell_length_b                    15.118792
_cell_length_c                    15.752356
_cell_angle_alpha                 89.703894
_cell_angle_beta                  70.361771
_cell_angle_gamma                 89.232542
_cell_volume                      3088.96243547

loop_
_atom_site_label
_atom_site_type_symbol
_atom_type_description
_atom_site_fract_x
_atom_site_fract_y
_atom_site_fract_z
_atom_type_partial_charge
C1    C     C_R   0.498459 0.670627 0.501998 0.839530
C2    C     C_R   0.500958 0.329042 0.499799 0.808880
C3    C     C_R   0.388733 0.423354 0.089421 -0.224605
C4    C     C_R   0.631153 0.471714 0.901623 -0.222125
C5    C     C_R   0.319112 0.413651 0.043604 -0.237209
C6    C     C_R   0.700833 0.482420 0.946936 -0.237064
C7    C     C_R   0.424684 0.188315 0.571345 -0.087376
C8    C     C_R   0.551679 0.811769 0.421511 -0.089657
C9    C     C_R   0.501580 0.232244 0.502993 -0.139286
C10   C     C_R   0.496103 0.767196 0.500777 -0.142411
C11   C     C_R   0.579579 0.184122 0.438894 -0.084350
C12   C     C_R   0.436709 0.812805 0.578383 -0.072557
C13   C     C_R   0.565776 0.092834 0.429141 0.012638
C14   C     C_R   0.426895 0.906221 0.575828 0.021982
C15   C     C_R   0.494149 0.046522 0.501420 0.015492
C16   C     C_R   0.491852 0.952832 0.499158 0.013566
C17   C     C_R   0.427210 0.094357 0.576795 0.013948
C18   C     C_R   0.554403 0.905952 0.420362 0.015946
C19   C     C_R   0.620138 0.047993 0.348157 -0.059761
C20   C     C_R   0.356649 0.954368 0.648934 -0.058636
C21   C     C_R   0.615058 0.955302 0.343441 -0.068140
C22   C     C_R   0.362398 0.047017 0.652493 -0.065069
C23   C     C_R   0.437823 0.495563 0.672091 0.830646
C24   C     C_R   0.562474 0.499374 0.327656 0.811879
C25   C     C_R   0.227433 0.555324 0.442607 0.103722
C26   C     C_R   0.772793 0.443998 0.556627 0.123157
C27   C     C_R   0.185453 0.446231 0.557820 -0.018688
C28   C     C_R   0.814154 0.554171 0.442400 -0.007994
C29   C     C_R   0.081893 0.444383 0.559440 -0.050230
C30   C     C_R   0.917947 0.555477 0.440208 -0.054289
C31   C     C_R   0.051776 0.499772 0.499742 0.071465
C32   C     C_R   0.948325 0.499614 0.499398 0.070800
C33   C     C_R   0.124891 0.555806 0.440764 -0.054541
C34   C     C_R   0.875267 0.443509 0.558314 -0.052540
C35   C     C_R   0.007563 0.389037 0.618896 -0.010492
C36   C     C_R   0.992027 0.611061 0.380969 -0.007698
C37   C     C_R   0.906305 0.388684 0.617618 -0.258636
C38   C     C_R   0.093626 0.610907 0.381652 -0.249203
C39   C     C_R   0.403226 0.478238 0.769374 -0.037657
C40   C     C_R   0.599612 0.494415 0.228934 -0.041739
C41   C     C_R   0.275212 0.428781 0.907750 -0.204988
C42   C     C_R   0.736788 0.503124 0.085160 -0.202815
C43   C     C_R   0.302826 0.450632 0.816679 -0.175027
C44   C     C_R   0.703188 0.509019 0.178689 -0.177350
C45   C     C_R   0.475315 0.483485 0.813797 -0.228314
C46   C     C_R   0.529939 0.474004 0.184848 -0.248558
C47   C     C_R   0.450840 0.458100 0.904210 0.081992
C48   C     C_R   0.561784 0.467705 0.090471 0.081988
C49   C     C_R   0.348118 0.433113 0.952026 0.151193
C50   C     C_R   0.666852 0.483924 0.040679 0.163604
C51   C     C_R   0.524789 0.460421 0.948993 0.067059
C52   C     C_R   0.491317 0.450293 0.044155 0.063496
Cu1   Cu    Cu3+1 0.402580 0.500010 0.499990 0.950955
Cu2   Cu    Cu3+1 0.597420 0.499990 0.500010 0.964020
H1    H     H_    0.241251 0.392920 0.080679 0.138348
H2    H     H_    0.781492 0.492126 0.908206 0.144679
H3    H     H_    0.210278 0.404858 0.602785 0.166667
H4    H     H_    0.788677 0.596366 0.398139 0.154241
H5    H     H_    0.851576 0.345302 0.664259 0.151246
H6    H     H_    0.148203 0.654510 0.335186 0.152720
H7    H     H_    0.450335 0.466103 0.225616 0.153514
H8    H     H_    0.549784 0.510152 0.776927 0.150997
H9    H     H_    0.757918 0.526134 0.211590 0.157077
H10   H     H_    0.245885 0.445987 0.783422 0.166654
H11   H     H_    0.196846 0.408593 0.943629 0.134495
H12   H     H_    0.817145 0.515399 0.047424 0.131682
H13   H     H_    0.360426 0.406970 0.160107 0.141204
H14   H     H_    0.663424 0.470537 0.829053 0.148113
N1    N     N_R   0.256170 0.500070 0.500040 -0.211721
N2    N     N_R   0.743830 0.499930 0.499960 -0.206407
O1    O     O_R   0.417730 0.629750 0.499970 -0.583786
O2    O     O_R   0.582270 0.370250 0.500030 -0.567085
O3    O     O_R   0.582270 0.629730 0.499980 -0.582071
O4    O     O_R   0.417730 0.370270 0.500020 -0.585955
O5    O     O_R   0.371590 0.500020 0.629830 -0.592228
O6    O     O_R   0.628410 0.499980 0.370170 -0.589585
O7    O     O_R   0.536130 0.499990 0.629840 -0.587208
O8    O     O_R   0.463870 0.500010 0.370160 -0.583659
C53   C     C_1   0.301858 0.614764 0.384196 0.294364
N3    N     N_1   0.360671 0.662779 0.337019 -0.301512
C54   C     C_1   0.698667 0.383880 0.614344 0.291155
N4    N     N_1   0.640200 0.335214 0.660896 -0.314827
C55   C     C_1   0.031930 0.332068 0.683049 0.202628
N5    N     N_1   0.050642 0.286375 0.734783 -0.296912
C56   C     C_1   0.966231 0.669224 0.318388 0.198196
N6    N     N_1   0.945535 0.715747 0.268286 -0.315874
C57   C     C_1   0.346175 0.242367 0.635469 0.275272
N7    N     N_1   0.284662 0.286381 0.686403 -0.284757
C58   C     C_1   0.605733 0.756844 0.344037 0.266208
N8    N     N_1   0.647948 0.711719 0.283317 -0.273058
C59   C     C_R   0.682223 0.225122 0.395627 0.131251
C60   C     C_R   0.764115 0.200508 0.425431 -0.139210
C61   C     C_R   0.860188 0.240469 0.388853 -0.153942
C62   C     C_R   0.875553 0.304623 0.321677 -0.130380
C63   C     C_R   0.794811 0.329019 0.291143 -0.102226
C64   C     C_R   0.698029 0.290243 0.328447 -0.060305
H15   H     H_    0.753029 0.151104 0.477777 0.130937
H16   H     H_    0.922714 0.221723 0.412628 0.135715
H17   H     H_    0.950083 0.335312 0.293140 0.124966
H18   H     H_    0.807632 0.377702 0.238287 0.121814
H19   H     H_    0.635771 0.310232 0.304813 0.100845
C65   C     C_R   0.400265 0.762663 0.664759 0.091945
C66   C     C_R   0.454120 0.768898 0.725974 -0.158648
C67   C     C_R   0.417712 0.725873 0.809304 -0.157851
C68   C     C_R   0.327266 0.676810 0.832098 -0.113363
C69   C     C_R   0.274825 0.668328 0.770490 -0.124859
C70   C     C_R   0.311905 0.709970 0.686502 -0.085610
H20   H     H_    0.523075 0.808322 0.709700 0.130545
H21   H     H_    0.458860 0.731483 0.856666 0.134755
H22   H     H_    0.298486 0.644445 0.897069 0.141183
H23   H     H_    0.205289 0.629657 0.787905 0.126274
H24   H     H_    0.269778 0.703976 0.639889 0.138858
C71   C     C_R   0.668875 0.098619 0.263128 0.133599
C72   C     C_R   0.606373 0.143075 0.221769 -0.171930
C73   C     C_R   0.651130 0.190614 0.142041 -0.143625
C74   C     C_R   0.758382 0.193465 0.102738 -0.110588
C75   C     C_R   0.821089 0.148743 0.143036 -0.129983
C76   C     C_R   0.776687 0.101520 0.223013 -0.107391
H25   H     H_    0.523197 0.141260 0.251661 0.127922
H26   H     H_    0.602690 0.225457 0.110867 0.137197
H27   H     H_    0.792890 0.230511 0.041185 0.129078
H28   H     H_    0.904126 0.151285 0.112706 0.120211
H29   H     H_    0.826033 0.068477 0.254469 0.118042
C77   C     C_R   0.266141 0.911503 0.716163 0.130066
C78   C     C_R   0.182639 0.885769 0.690112 -0.175433
C79   C     C_R   0.094340 0.850657 0.753637 -0.149835
C80   C     C_R   0.088346 0.841822 0.843633 -0.117022
C81   C     C_R   0.170668 0.868012 0.870307 -0.122143
C82   C     C_R   0.259286 0.902786 0.806994 -0.094029
H30   H     H_    0.185952 0.893298 0.620785 0.132076
H31   H     H_    0.030386 0.830602 0.733151 0.130641
H32   H     H_    0.019881 0.814759 0.892717 0.115557
H33   H     H_    0.165875 0.861280 0.940026 0.123479
H34   H     H_    0.322395 0.923240 0.828523 0.123758
C83   C     C_R   0.671594 0.913735 0.254971 0.117640
C84   C     C_R   0.622715 0.903971 0.190442 -0.113645
C85   C     C_R   0.677170 0.868679 0.105630 -0.111218
C86   C     C_R   0.780713 0.843716 0.084537 -0.105831
C87   C     C_R   0.830043 0.854007 0.148209 -0.100424
C88   C     C_R   0.775813 0.888910 0.233277 -0.129520
H35   H     H_    0.542839 0.923986 0.205884 0.122319
H36   H     H_    0.639234 0.861018 0.056115 0.123333
H37   H     H_    0.822801 0.816631 0.018767 0.113001
H38   H     H_    0.910357 0.835113 0.131526 0.139563
H39   H     H_    0.814714 0.896969 0.282093 0.129320
C89   C     C_R   0.307584 0.091451 0.740197 0.101246
C90   C     C_R   0.199858 0.103638 0.770486 -0.085252
C91   C     C_R   0.149778 0.145021 0.853152 -0.093662
C92   C     C_R   0.206680 0.175296 0.905570 -0.117485
C93   C     C_R   0.313709 0.163549 0.875859 -0.116347
C94   C     C_R   0.364082 0.121336 0.793732 -0.155554
H40   H     H_    0.155155 0.081545 0.729872 0.133157
H41   H     H_    0.066905 0.154173 0.876302 0.133644
H42   H     H_    0.167856 0.207966 0.969174 0.113556
H43   H     H_    0.357639 0.187194 0.916481 0.134899
H44   H     H_    0.447024 0.112433 0.771406 0.133154

loop_
_geom_bond_atom_site_label_1
_geom_bond_atom_site_label_2
_ccdc_geom_bond_type
C57   N7    T    
C22   C89   S    
C61   C62   A    
C27   C29   A    
C34   C37   A    
C70   H24   S    
Cu1   O4    S    
C68   H22   S    
Cu1   N1    S    
C81   C82   A    
C54   N4    T    
C83   C84   A    
C47   C49   A    
C56   N6    T    
C40   C46   A    
C1    O1    A    
C79   H31   S    
C35   C37   A    
C89   C90   A    
C86   H37   S    
C67   H21   S    
C69   C70   A    
C19   C71   S    
C73   C74   A    
C18   C21   A    
C45   H8    S    
C74   C75   A    
C7    C9    A    
C80   H32   S    
C65   C66   A    
C59   C64   A    
C78   H30   S    
C26   C34   A    
C7    C57   S    
C90   C91   A    
C7    C17   A    
C43   H10   S    
C31   C33   A    
C66   H20   S    
C72   H25   S    
C27   N1    A    
C39   C45   A    
Cu2   O7    S    
C71   C76   A    
C48   C50   A    
C92   H42   S    
C64   H19   S    
C41   C43   A    
C5    C49   A    
Cu1   O5    S    
C42   C44   A    
C2    O2    A    
C41   C49   A    
C67   C68   A    
C60   H15   S    
C72   C73   A    
C69   H23   S    
C45   C47   A    
C44   H9    S    
C39   C43   A    
C83   C88   A    
C46   C48   A    
C85   H36   S    
C74   H27   S    
C13   C19   A    
C46   H7    S    
C51   C52   A    
C14   C20   A    
C91   C92   A    
C4    C6    A    
C27   H3    S    
C23   O5    A    
C59   C60   A    
C4    H14   S    
C35   C55   S    
C63   H18   S    
C24   O6    A    
C41   H11   S    
C4    C51   A    
Cu1   Cu2   S    
C23   O7    A    
C89   C94   A    
Cu2   O6    S    
C32   C34   A    
C75   H28   S    
C12   C65   S    
C84   H35   S    
Cu2   O3    S    
C87   H38   S    
C55   N5    T    
Cu2   N2    S    
C40   C44   A    
C3    C52   A    
C65   C70   A    
C16   C18   A    
C94   H44   S    
C6    C50   A    
C9    C11   A    
C37   H5    S    
C10   C12   A    
C42   C50   A    
C38   H6    S    
C24   O8    A    
C12   C14   A    
C26   C54   S    
C93   H43   S    
C13   C15   A    
C78   C79   A    
C26   N2    A    
C14   C16   A    
C25   N1    A    
C91   H41   S    
C20   C22   A    
C80   C81   A    
Cu1   O1    S    
C66   C67   A    
C71   C72   A    
C85   C86   A    
C15   C17   A    
C19   C21   A    
C25   C53   S    
C5    H1    S    
C31   C32   A    
C28   N2    A    
C1    C10   S    
C17   C22   A    
C6    H2    S    
C84   C85   A    
C3    C5    A    
C2    O4    A    
C88   H39   S    
C47   C51   A    
C87   C88   A    
C28   H4    S    
C36   C56   S    
C68   C69   A    
C29   C35   A    
C75   C76   A    
C33   C38   A    
C30   C36   A    
C1    O3    A    
C28   C30   A    
Cu1   O8    S    
C29   C31   A    
C92   C93   A    
C30   C32   A    
C11   C13   A    
C3    H13   S    
C62   H17   S    
C79   C80   A    
C23   C39   S    
C36   C38   A    
C60   C61   A    
C24   C40   S    
C77   C82   A    
C90   H40   S    
C76   H29   S    
C62   C63   A    
C8    C18   A    
C82   H34   S    
C20   C77   S    
C86   C87   A    
C53   N3    T    
C11   C59   S    
C48   C52   A    
Cu2   O2    S    
C8    C10   A    
C73   H26   S    
C63   C64   A    
C42   H12   S    
C93   C94   A    
C8    C58   S    
C58   N8    T    
C81   H33   S    
C2    C9    S    
C61   H16   S    
C21   C83   S    
C15   C16   A    
C25   C33   A    
C77   C78   A    
