data_mof_unit_67863.cif
_audit_creation_date              2012-12-10T16:55:46-0500
_audit_creation_method            fapswitch 2.2
_symmetry_space_group_name_H-M    P1
_symmetry_Int_Tables_number       1
_space_group_crystal_system       triclinic
_cell_length_a                    8.295696
_cell_length_b                    8.520362
_cell_length_c                    10.760145
_cell_angle_alpha                 94.394586
_cell_angle_beta                  87.550613
_cell_angle_gamma                 92.969226
_cell_volume                      756.723883248

loop_
_atom_site_label
_atom_site_type_symbol
_atom_type_description
_atom_site_fract_x
_atom_site_fract_y
_atom_site_fract_z
_atom_type_partial_charge
C1    C     C_R   0.543236 0.791833 0.497580 0.928059
C2    C     C_R   0.456763 0.208166 0.502413 0.928012
C3    C     C_R   0.504249 0.515291 0.740997 0.856037
C4    C     C_R   0.495750 0.484718 0.259002 0.856164
C5    C     C_3   0.413320 0.626110 0.981656 0.183556
C6    C     C_3   0.586659 0.373903 0.018337 0.183671
C7    C     C_3   0.561823 0.627647 0.062548 0.164763
C8    C     C_3   0.438148 0.372371 0.937451 0.164905
C9    C     C_3   0.495234 0.477189 0.120956 -0.145692
C10   C     C_3   0.504749 0.522821 0.879039 -0.145687
C11   C     C_3   0.348241 0.473759 0.040020 -0.036534
C12   C     C_3   0.651739 0.526258 0.959979 -0.036508
C13   C     C_2   0.564795 0.956604 0.496782 -0.385300
C14   C     C_2   0.435204 0.043394 0.503203 -0.385370
H1    H     H_    0.688124 0.005708 0.490971 0.173507
H2    H     H_    0.311875 0.994290 0.509013 0.173513
N1    N     N_2   0.950320 0.457950 0.465730 -0.024533
N2    N     N_2   0.049680 0.542050 0.534270 -0.024475
O1    O     O_R   0.389250 0.738570 0.508410 -0.627652
O2    O     O_R   0.610750 0.261430 0.491590 -0.627631
O3    O     O_R   0.678390 0.711620 0.486450 -0.641480
O4    O     O_R   0.321610 0.288380 0.513550 -0.641452
O5    O     O_R   0.355460 0.513510 0.697030 -0.644952
O6    O     O_R   0.644540 0.486490 0.302970 -0.644979
O7    O     O_R   0.644600 0.486560 0.675070 -0.596395
O8    O     O_R   0.355400 0.513440 0.324930 -0.596422
Zn1   Zn    Zn3+2 0.306940 0.517990 0.514670 0.911343
Zn2   Zn    Zn3+2 0.693060 0.482010 0.485330 0.911329
C15   C     C_3   0.630639 0.772044 0.142553 -0.911153
H3    H     H_    0.639341 0.879637 0.091295 0.230381
H4    H     H_    0.550092 0.796819 0.225921 0.242760
H5    H     H_    0.752920 0.751953 0.172229 0.236519
C16   C     C_3   0.369232 0.227980 0.857491 -0.911477
H6    H     H_    0.360958 0.120314 0.908634 0.230438
H7    H     H_    0.246769 0.247909 0.828216 0.236456
H8    H     H_    0.449395 0.203415 0.773913 0.242869
C17   C     C_3   0.341147 0.786352 0.972078 -0.960745
H9    H     H_    0.209668 0.778011 0.984616 0.259169
H10   H     H_    0.378085 0.873854 0.048046 0.244839
H11   H     H_    0.380402 0.834098 0.882050 0.230546
C18   C     C_3   0.658823 0.213645 0.027834 -0.961276
H12   H     H_    0.790297 0.221982 0.015513 0.259234
H13   H     H_    0.619285 0.165649 0.117667 0.230674
H14   H     H_    0.622142 0.126357 0.951682 0.244903
C19   C     C_R   0.192470 0.418475 0.090839 0.180276
C20   C     C_R   0.087982 0.529601 0.139793 -0.163389
C21   C     C_R   0.950074 0.481003 0.201620 -0.051451
C22   C     C_R   0.911339 0.319806 0.211167 -0.070267
C23   C     C_R   0.019716 0.207954 0.167357 -0.272972
C24   C     C_R   0.164038 0.258225 0.111764 -0.147402
H15   H     H_    0.118391 0.654185 0.140928 0.130519
H16   H     H_    0.885993 0.573791 0.249857 0.172894
H17   H     H_    0.802451 0.277920 0.258074 0.181825
H18   H     H_    0.994570 0.084469 0.181511 0.148892
H19   H     H_    0.254924 0.173257 0.091138 0.142600
C25   C     C_R   0.807517 0.581537 0.909168 0.180359
C26   C     C_R   0.835939 0.741776 0.888204 -0.147317
C27   C     C_R   0.980280 0.792040 0.832635 -0.272919
C28   C     C_R   0.088674 0.680186 0.788863 -0.070180
C29   C     C_R   0.049961 0.518992 0.798455 -0.051543
C30   C     C_R   0.912037 0.470407 0.860270 -0.163477
H20   H     H_    0.745014 0.826728 0.908749 0.142497
H21   H     H_    0.005417 0.915517 0.818447 0.148870
H22   H     H_    0.197567 0.722063 0.741942 0.181736
H23   H     H_    0.114101 0.426190 0.750300 0.172992
H24   H     H_    0.881652 0.345824 0.859177 0.130588
C31   C     C_3   0.983879 0.293167 0.470304 -0.507249
H25   H     H_    0.881180 0.215567 0.439606 0.174939
H26   H     H_    0.087000 0.263492 0.406236 0.220260
H27   H     H_    0.006452 0.264238 0.566997 0.173553
C32   C     C_3   0.016116 0.706834 0.529717 -0.507285
H28   H     H_    0.118812 0.784430 0.560428 0.174941
H29   H     H_    0.993551 0.735784 0.433031 0.173503
H30   H     H_    0.912988 0.736492 0.593783 0.220270

loop_
_geom_bond_atom_site_label_1
_geom_bond_atom_site_label_2
_ccdc_geom_bond_type
C1    O3    A    
C7    C15   S    
C5    C17   S    
C18   H12   S    
C3    O5    A    
C6    C9    S    
C26   H20   S    
C19   C20   A    
O7    Zn2   S    
O8    Zn1   S    
C17   H9    S    
C5    C11   S    
C17   H11   S    
C6    C12   S    
C4    O6    A    
C23   H18   S    
N2    C32   S    
C16   H8    S    
C25   C26   A    
C30   H24   S    
C6    C18   S    
C2    O4    A    
O5    Zn1   S    
O1    Zn1   S    
C28   C29   A    
C13   C14   D    
C18   H13   S    
C7    C12   S    
N1    N2    D    
C22   H17   S    
N1    C31   S    
C1    O1    A    
C2    O2    A    
C31   H25   S    
C3    O7    A    
C5    C7    S    
C6    C8    S    
O2    Zn2   S    
C27   C28   A    
C20   H15   S    
C29   C30   A    
C31   H26   S    
C15   H3    S    
C21   C22   A    
C16   H6    S    
C28   H22   S    
C9    C11   S    
C12   C25   S    
C10   C12   S    
C8    C10   S    
C22   C23   A    
O3    Zn2   S    
C29   H23   S    
O4    Zn1   S    
C13   H1    S    
C18   H14   S    
C14   H2    S    
C11   C19   S    
C1    C13   S    
C32   H29   S    
C27   H21   S    
C7    C9    S    
C20   C21   A    
N1    Zn2   S    
N2    Zn1   S    
O6    Zn2   S    
C32   H30   S    
C4    O8    A    
C21   H16   S    
C15   H5    S    
C24   H19   S    
C31   H27   S    
C32   H28   S    
C15   H4    S    
C3    C10   S    
C26   C27   A    
C19   C24   A    
C8    C11   S    
C16   H7    S    
C8    C16   S    
C2    C14   S    
C5    C10   S    
C17   H10   S    
C23   C24   A    
C25   C30   A    
C4    C9    S    
