data_mof_unit_23320.cif
_audit_creation_date              2012-12-10T17:02:29-0500
_audit_creation_method            fapswitch 2.2
_symmetry_space_group_name_H-M    P1
_symmetry_Int_Tables_number       1
_space_group_crystal_system       triclinic
_cell_length_a                    10.816031
_cell_length_b                    11.034433
_cell_length_c                    9.831646
_cell_angle_alpha                 110.969569
_cell_angle_beta                  97.75948
_cell_angle_gamma                 91.819622
_cell_volume                      1081.57591833

loop_
_atom_site_label
_atom_site_type_symbol
_atom_type_description
_atom_site_fract_x
_atom_site_fract_y
_atom_site_fract_z
_atom_type_partial_charge
C1    C     C_R   0.492480 0.254207 0.440650 0.941193
C2    C     C_R   0.507524 0.745793 0.559350 0.941213
C3    C     C_2   0.488110 0.114846 0.407275 -0.297401
C4    C     C_2   0.511897 0.885154 0.592725 -0.297413
C5    C     C_2   0.502603 0.069567 0.516526 -0.143035
C6    C     C_2   0.497406 0.930433 0.483474 -0.143041
C7    C     C_2   0.510845 0.510757 0.081070 -0.071106
C8    C     C_2   0.489155 0.489243 0.918930 -0.071107
C9    C     C_R   0.262883 0.496613 0.500881 0.907486
C10   C     C_R   0.737117 0.503384 0.499119 0.907507
C11   C     C_R   0.148685 0.733674 0.553451 -0.149898
C12   C     C_R   0.851312 0.266337 0.446473 -0.149916
C13   C     C_R   0.094579 0.850184 0.573766 -0.237262
C14   C     C_R   0.905413 0.149816 0.426106 -0.237302
C15   C     C_R   0.965866 0.852902 0.566100 -0.188344
C16   C     C_R   0.034124 0.147084 0.433787 -0.188324
C17   C     C_R   0.890366 0.739435 0.539007 0.578217
C18   C     C_R   0.109628 0.260551 0.460945 0.578253
C19   C     C_R   0.943558 0.619115 0.519939 -0.035676
C20   C     C_R   0.056440 0.380881 0.480045 -0.035678
C21   C     C_R   0.074568 0.616551 0.525921 -0.004079
C22   C     C_R   0.925431 0.383451 0.474055 -0.004070
C23   C     C_R   0.870470 0.502105 0.495295 -0.146553
C24   C     C_R   0.129530 0.497894 0.504704 -0.146564
Cu1   Cu    Cu3+1 0.521920 0.521810 0.644910 0.984198
Cu2   Cu    Cu3+1 0.478080 0.478190 0.355090 0.984201
H1    H     H_    0.075962 0.056248 0.418591 0.162034
H2    H     H_    0.924021 0.943727 0.581259 0.162038
H3    H     H_    0.249292 0.736912 0.560495 0.120956
H4    H     H_    0.750707 0.263109 0.439417 0.120950
H5    H     H_    0.152879 0.938645 0.595261 0.169349
H6    H     H_    0.847108 0.061359 0.404562 0.169352
H7    H     H_    0.481878 0.864675 0.368653 0.181147
H8    H     H_    0.518132 0.135325 0.631347 0.181147
H9    H     H_    0.527668 0.951196 0.707351 0.142311
H10   H     H_    0.472338 0.048804 0.292649 0.142309
H11   H     H_    0.415930 0.416451 0.846474 0.176467
H12   H     H_    0.584071 0.583549 0.153526 0.176471
H13   H     H_    0.623780 0.623093 0.933942 0.200082
H14   H     H_    0.376220 0.376907 0.066058 0.200084
N1    N     N_2   0.445130 0.445420 0.137360 -0.290346
N2    N     N_2   0.554870 0.554580 0.862640 -0.290346
O1    O     O_R   0.511700 0.332340 0.577400 -0.573229
O2    O     O_R   0.488300 0.667660 0.422600 -0.573223
O3    O     O_R   0.474680 0.295500 0.332650 -0.575595
O4    O     O_R   0.525320 0.704500 0.667350 -0.575595
O5    O     O_R   0.338170 0.518410 0.622370 -0.569732
O6    O     O_R   0.661830 0.481590 0.377630 -0.569724
O7    O     O_R   0.301150 0.481570 0.377630 -0.572554
O8    O     O_R   0.698850 0.518430 0.622370 -0.572554
F1    F     F_    0.765553 0.749592 0.530037 -0.708643
F2    F     F_    0.234431 0.250376 0.469928 -0.708655

loop_
_geom_bond_atom_site_label_1
_geom_bond_atom_site_label_2
_ccdc_geom_bond_type
Cu1   N2    S    
C19   C23   A    
C9    C24   S    
C10   C23   S    
Cu1   O5    S    
C2    C4    S    
C11   C21   A    
C6    H7    S    
Cu2   O6    S    
C3    C5    D    
C12   H4    S    
C5    H8    S    
C17   F1    S    
C16   H1    S    
C7    N1    D    
C12   C14   A    
C4    H9    S    
C18   F2    S    
C7    C8    S    
C2    O4    A    
C11   C13   A    
C1    O3    A    
C15   H2    S    
C3    H10   S    
C16   C18   A    
Cu1   O1    S    
C19   C21   A    
C7    H12   S    
C8    N2    D    
C9    O5    A    
H13   N2    S    
C18   C20   A    
C13   C15   A    
C10   O6    A    
C5    C6    S    
C14   C16   A    
Cu2   O7    S    
C8    H11   S    
Cu2   O2    S    
C10   O8    A    
C12   C22   A    
C9    O7    A    
C2    O2    A    
C11   H3    S    
C4    C6    D    
C21   C24   A    
C14   H6    S    
C15   C17   A    
C13   H5    S    
Cu1   O8    S    
H14   N1    S    
Cu2   O3    S    
C17   C19   A    
Cu1   Cu2   S    
C22   C23   A    
Cu1   O4    S    
C1    O1    A    
C20   C24   A    
Cu2   N1    S    
C20   C22   A    
C1    C3    S    
