data_mof_unit_24645.cif
_audit_creation_date              2012-12-10T17:42:36-0500
_audit_creation_method            fapswitch 2.2
_symmetry_space_group_name_H-M    P1
_symmetry_Int_Tables_number       1
_space_group_crystal_system       triclinic
_cell_length_a                    9.92204
_cell_length_b                    10.618505
_cell_length_c                    13.093542
_cell_angle_alpha                 90.803733
_cell_angle_beta                  71.557722
_cell_angle_gamma                 88.644812
_cell_volume                      1307.94960591

loop_
_atom_site_label
_atom_site_type_symbol
_atom_type_description
_atom_site_fract_x
_atom_site_fract_y
_atom_site_fract_z
_atom_type_partial_charge
C1    C     C_R   0.501142 0.739133 0.492272 0.951777
C2    C     C_R   0.386081 0.424868 0.809248 -0.226043
C3    C     C_R   0.472108 0.878458 0.301192 0.471991
C4    C     C_R   0.425127 0.476313 0.699875 0.890111
C5    C     C_R   0.494785 0.947633 0.206489 -0.235828
C6    C     C_R   0.518599 0.075773 0.206449 -0.222531
C7    C     C_R   0.520401 0.136627 0.300429 -0.183127
C8    C     C_R   0.506990 0.068297 0.394823 0.041088
C9    C     C_R   0.491967 0.937037 0.394134 -0.017440
C10   C     C_R   0.497836 0.872118 0.487208 -0.091552
C11   C     C_R   0.509760 0.934682 0.578076 -0.226363
C12   C     C_R   0.449371 0.407403 0.973174 0.085200
C13   C     C_R   0.512754 0.063191 0.580547 -0.218846
C14   C     C_R   0.509568 0.128515 0.490467 -0.051899
C15   C     C_R   0.797337 0.661877 0.644079 -0.138297
C16   C     C_R   0.501709 0.260681 0.500009 0.830031
C17   C     C_R   0.836057 0.738337 0.716669 -0.187131
C18   C     C_R   0.975147 0.736110 0.717505 -0.187320
C19   C     C_R   0.076674 0.658345 0.645063 -0.143418
C20   C     C_R   0.040791 0.577916 0.571790 0.158030
C21   C     C_R   0.896403 0.578750 0.571450 0.162065
C22   C     C_R   0.959005 0.424785 0.431658 -0.141985
C23   C     C_R   0.491250 0.404982 0.860096 0.018621
C24   C     C_R   0.102105 0.425040 0.431506 -0.146378
C25   C     C_R   0.577808 0.498558 0.296222 0.921722
C26   C     C_R   0.804935 0.456194 0.007676 -0.220022
C27   C     C_R   0.623185 0.481738 0.179936 -0.041559
C28   C     C_R   0.244610 0.395490 0.865299 0.484933
C29   C     C_R   0.204839 0.378078 0.976638 -0.275564
C30   C     C_R   0.304242 0.390012 0.030898 -0.276406
C31   C     C_3   0.295009 0.749428 0.283776 0.122265
C32   C     C_3   0.173604 0.821624 0.369516 -0.393649
C33   C     C_3   0.030087 0.798308 0.353927 -0.919373
C34   C     C_R   0.554967 0.428280 0.022871 0.087268
C35   C     C_3   0.105811 0.253262 0.814079 0.024356
C36   C     C_3   0.096807 0.212113 0.704043 -0.282854
C37   C     C_3   0.031017 0.083159 0.708102 -0.986226
C38   C     C_R   0.700699 0.428205 0.960108 0.177314
C39   C     C_R   0.740220 0.399263 0.850787 -0.255642
C40   C     C_R   0.636783 0.382931 0.801990 -0.180037
C41   C     C_R   0.518989 0.457429 0.132050 -0.276291
C42   C     C_R   0.766575 0.481609 0.117708 -0.217827
H1    H     H_    0.848415 0.500781 0.153864 0.158074
H2    H     H_    0.182452 0.665320 0.647453 0.203130
H3    H     H_    0.850861 0.392638 0.802384 0.175621
H4    H     H_    0.180738 0.363829 0.375422 0.147286
H5    H     H_    0.915576 0.459238 0.959697 0.181117
H6    H     H_    0.409122 0.463711 0.180998 0.149675
H7    H     H_    0.265989 0.378096 0.116891 0.147008
H8    H     H_    0.096189 0.357187 0.021552 0.145872
H9    H     H_    0.672887 0.352035 0.718507 0.187974
H10   H     H_    0.514289 0.883534 0.648152 0.131596
H11   H     H_    0.267128 0.648720 0.285536 0.178584
H12   H     H_    0.491041 0.902431 0.132896 0.143382
H13   H     H_    0.302492 0.781068 0.201699 0.113140
H14   H     H_    0.170339 0.791492 0.450909 0.248723
H15   H     H_    0.191893 0.924508 0.364573 0.212922
H16   H     H_    0.028620 0.834838 0.275207 0.259533
H17   H     H_    0.944333 0.847521 0.419188 0.275859
H18   H     H_    0.008897 0.696059 0.356544 0.266580
H19   H     H_    0.999834 0.246161 0.875968 0.154002
H20   H     H_    0.180742 0.185546 0.834848 0.127874
H21   H     H_    0.033387 0.282250 0.674965 0.225998
H22   H     H_    0.205504 0.206303 0.645661 0.240605
H23   H     H_    0.532872 0.128726 0.133870 0.166747
H24   H     H_    0.095848 0.011391 0.734107 0.260789
H25   H     H_    0.027991 0.055563 0.626737 0.274881
H26   H     H_    0.920745 0.085932 0.764905 0.265641
H27   H     H_    0.536465 0.236929 0.297667 0.140823
H28   H     H_    0.516302 0.112063 0.652946 0.134078
H29   H     H_    0.930240 0.363392 0.375736 0.149777
H30   H     H_    0.689241 0.671879 0.647308 0.204929
H31   H     H_    0.757658 0.800537 0.772054 0.145988
H32   H     H_    0.005053 0.796076 0.773796 0.149201
N1    N     N_R   0.856860 0.501200 0.500990 -0.122933
N2    N     N_R   0.142450 0.501280 0.501020 -0.119039
O1    O     O_R   0.385310 0.683220 0.500000 -0.613108
O2    O     O_3   0.147662 0.380477 0.810022 -0.642565
O3    O     O_R   0.614640 0.683250 0.500010 -0.638392
O4    O     O_R   0.328400 0.499950 0.653610 -0.583964
O5    O     O_R   0.557730 0.499970 0.653620 -0.654327
O6    O     O_R   0.385360 0.316750 0.499990 -0.630525
O7    O     O_R   0.614690 0.316780 0.500000 -0.621909
O8    O     O_R   0.442270 0.500030 0.346380 -0.607314
O9    O     O_R   0.671600 0.500050 0.346390 -0.623452
O10   O     O_3   0.427580 0.755629 0.303838 -0.651261
Zn1   Zn    Zn3+2 0.346880 0.499980 0.499990 0.941513
Zn2   Zn    Zn3+2 0.653120 0.500020 0.500010 0.916699

loop_
_geom_bond_atom_site_label_1
_geom_bond_atom_site_label_2
_ccdc_geom_bond_type
C33   H16   S    
C1    O1    A    
C35   C36   S    
O8    Zn1   S    
C7    C8    A    
C15   H30   S    
C12   C23   A    
C32   H15   S    
C28   C29   A    
C4    O4    A    
O4    Zn1   S    
C5    C6    A    
C13   H28   S    
C23   C40   A    
C37   H26   S    
C20   N2    A    
C18   C19   A    
C11   H10   S    
C6    H23   S    
C4    O5    A    
C19   C20   A    
C8    C9    A    
C25   O8    A    
C36   H21   S    
C28   O2    S    
C9    C10   A    
C39   H3    S    
O7    Zn2   S    
C33   H17   S    
C31   O10   S    
C13   C14   A    
C3    O10   S    
C17   H31   S    
C34   C41   A    
C22   N1    A    
C16   O6    A    
O3    Zn2   S    
C29   H8    S    
C5    H12   S    
C39   C40   A    
C26   C38   A    
C16   O7    A    
C2    C4    S    
C29   C30   A    
C3    C9    A    
C27   C41   A    
C31   C32   S    
C37   H24   S    
C25   O9    A    
C17   C18   A    
C35   H19   S    
C31   H11   S    
N2    Zn1   S    
C26   H5    S    
C30   H7    S    
C33   H18   S    
C1    O3    A    
C22   C24   A    
C42   H1    S    
C12   C34   A    
C22   H29   S    
C19   H2    S    
C26   C42   A    
O9    Zn2   S    
C15   C17   A    
C36   C37   S    
C8    C14   A    
C12   C30   A    
C34   C38   A    
C24   N2    A    
C1    C10   S    
C3    C5    A    
C7    H27   S    
C6    C7    A    
C25   C27   S    
C40   H9    S    
C21   N1    A    
C35   O2    S    
C24   H4    S    
C32   C33   S    
C11   C13   A    
C27   C42   A    
C38   C39   A    
C37   H25   S    
C41   H6    S    
C35   H20   S    
C14   C16   S    
O5    Zn2   S    
C10   C11   A    
N1    Zn2   S    
C15   C21   A    
C20   C21   A    
O1    Zn1   S    
C18   H32   S    
C2    C23   A    
C2    C28   A    
C31   H13   S    
C36   H22   S    
C32   H14   S    
O6    Zn1   S    
