data_mof_unit_47580.cif
_audit_creation_date              2013-03-05T15:47:59-0500
_audit_creation_method            fapswitch 2.2
_symmetry_space_group_name_H-M    P1
_symmetry_Int_Tables_number       1
_space_group_crystal_system       triclinic
_cell_length_a                    26.899685
_cell_length_b                    7.146639
_cell_length_c                    12.649861
_cell_angle_alpha                 89.505214
_cell_angle_beta                  106.662506
_cell_angle_gamma                 90.556636
_cell_volume                      2329.57337783

loop_
_atom_site_label
_atom_site_type_symbol
_atom_site_description
_atom_site_fract_x
_atom_site_fract_y
_atom_site_fract_z
_atom_type_partial_charge
O1    O     O_R   0.437360 0.505910 0.042120 -0.589340
O2    O     O_R   0.562640 0.005910 0.957880 -0.588088
O3    O     O_R   0.542480 0.176660 0.157100 -0.577233
O4    O     O_R   0.457520 0.676660 0.842900 -0.600646
C1    C     C_R   0.555607 0.344888 0.197105 0.939773
C2    C     C_R   0.442796 0.845316 0.803849 0.946573
O5    O     O_R   0.436520 0.176250 0.054800 -0.588995
O6    O     O_R   0.563480 0.676250 0.945200 -0.602229
O7    O     O_R   0.455920 0.005040 0.854840 -0.589926
O8    O     O_R   0.544080 0.505040 0.145160 -0.599777
C3    C     C_R   0.417462 0.344260 0.059123 0.945593
C4    C     C_R   0.583114 0.845417 0.943730 0.958861
O9    O     O_3   0.506490 0.338900 0.934520 -0.294071
O10   O     O_3   0.493510 0.838900 0.065480 -0.280826
V1    V     V_3+5 0.498800 0.064400 0.012150 1.238430
V2    V     V_3+5 0.501200 0.564400 0.987850 1.210286
C5    C     C_R   0.672299 0.878690 0.768449 0.395108
C6    C     C_R   0.327082 0.487899 0.215752 0.395765
H1    H     H_    0.590093 0.893596 0.744382 0.154325
H2    H     H_    0.409568 0.465011 0.249301 0.149842
C7    C     C_R   0.630987 0.857525 0.913414 -0.137658
C8    C     C_R   0.369721 0.357807 0.089976 -0.138551
C9    C     C_R   0.874176 0.841446 0.202202 -0.106972
C10   C     C_R   0.126322 0.310133 0.799443 -0.103005
C11   C     C_R   0.830434 0.838574 0.240578 0.095875
C12   C     C_R   0.170281 0.301197 0.761356 0.073336
C13   C     C_R   0.780944 0.837221 0.161666 -0.152338
C14   C     C_R   0.219598 0.307306 0.840221 -0.129630
C15   C     C_R   0.774862 0.837220 0.046114 0.125444
C16   C     C_R   0.225445 0.350770 0.952346 0.151870
C17   C     C_R   0.820390 0.836499 0.012279 0.056203
C18   C     C_R   0.179822 0.387396 0.983338 0.048237
C19   C     C_R   0.725429 0.843904 0.963266 0.066524
C20   C     C_R   0.275037 0.373240 0.032854 0.089762
C21   C     C_R   0.722708 0.866828 0.848041 -0.182818
C22   C     C_R   0.277942 0.459134 0.136056 -0.177388
C23   C     C_R   0.770613 0.878990 0.820596 0.336956
C24   C     C_R   0.231936 0.523298 0.153933 0.408143
C25   C     C_R   0.816614 0.834704 0.900557 -0.322403
C26   C     C_R   0.183977 0.469284 0.085291 -0.360362
C27   C     C_R   0.678526 0.833314 0.992216 -0.119126
C28   C     C_R   0.322049 0.323387 0.012204 -0.129226
C29   C     C_R   0.628090 0.884296 0.804098 -0.310022
C30   C     C_R   0.372061 0.438037 0.190478 -0.275153
C31   C     C_R   0.869555 0.848674 0.090764 -0.143042
C32   C     C_R   0.130604 0.356260 0.908033 -0.132697
H3    H     H_    0.677277 0.805261 0.075208 0.129437
H4    H     H_    0.323228 0.264399 0.935171 0.157825
H5    H     H_    0.912976 0.834623 0.257759 0.118331
H6    H     H_    0.087598 0.297651 0.743997 0.126516
H7    H     H_    0.747757 0.841811 0.191513 0.160845
H8    H     H_    0.253087 0.290746 0.811602 0.141961
H9    H     H_    0.851668 0.827964 0.874965 0.153984
H10   H     H_    0.149701 0.514861 0.106132 0.163641
C33   C     C_R   0.087266 0.861076 0.312692 -0.187282
C34   C     C_R   0.911864 0.363403 0.688996 -0.156200
C35   C     C_R   0.406800 0.863566 0.693039 -0.140440
C36   C     C_R   0.590591 0.352764 0.308356 -0.113301
C37   C     C_R   0.097208 0.803963 0.506938 0.392248
C38   C     C_R   0.898655 0.342079 0.491835 0.380831
C39   C     C_R   0.066280 0.807471 0.396926 -0.258184
C40   C     C_R   0.931959 0.345551 0.599810 -0.280882
C41   C     C_R   0.138518 0.921652 0.338084 -0.144200
C42   C     C_R   0.859091 0.388067 0.671447 -0.133611
C43   C     C_R   0.172094 0.909153 0.446784 0.135399
C44   C     C_R   0.823586 0.361420 0.566441 0.110371
C45   C     C_R   0.151411 0.843527 0.531658 -0.078849
C46   C     C_R   0.843940 0.337680 0.475385 -0.059483
C47   C     C_R   0.225944 0.954467 0.471542 0.086988
C48   C     C_R   0.768710 0.357968 0.550113 0.067392
C49   C     C_R   0.260783 0.902582 0.575566 -0.123587
C50   C     C_R   0.734462 0.330997 0.441987 -0.099657
C51   C     C_R   0.238675 0.854078 0.662311 0.288754
C52   C     C_R   0.756131 0.285727 0.355042 0.315163
C53   C     C_R   0.184816 0.828506 0.639132 -0.274758
C54   C     C_R   0.809684 0.297545 0.371832 -0.266380
C55   C     C_R   0.245805 0.052159 0.394952 -0.057831
C56   C     C_R   0.746863 0.374814 0.639317 -0.030324
C57   C     C_R   0.298525 0.075734 0.411959 -0.050052
C58   C     C_R   0.694243 0.345752 0.624798 -0.043379
C59   C     C_R   0.333640 0.004186 0.505990 0.147714
C60   C     C_R   0.660179 0.337481 0.519170 0.216110
C61   C     C_R   0.315721 0.910201 0.587779 0.131669
C62   C     C_R   0.679762 0.344214 0.426439 0.128150
C63   C     C_R   0.386832 0.029044 0.519237 -0.037368
C64   C     C_R   0.606472 0.331229 0.505254 -0.025614
C65   C     C_R   0.423029 0.964472 0.613847 -0.151677
C66   C     C_R   0.571831 0.331188 0.399739 -0.154587
C67   C     C_R   0.353780 0.825586 0.676326 -0.110129
C68   C     C_R   0.643739 0.370708 0.322125 -0.123377
H11   H     H_    0.169529 0.798411 0.707553 0.225605
H12   H     H_    0.824524 0.258283 0.304351 0.211230
H13   H     H_    0.343301 0.735588 0.735533 0.146415
H14   H     H_    0.656099 0.404542 0.250132 0.138701
H15   H     H_    0.463737 0.997796 0.626984 0.116482
H16   H     H_    0.530539 0.318542 0.389383 0.111318
H17   H     H_    0.311966 0.146429 0.349049 0.148491
H18   H     H_    0.679758 0.345407 0.696474 0.106032
H19   H     H_    0.025421 0.771319 0.377245 0.170162
H20   H     H_    0.973631 0.339682 0.614389 0.178047
H21   H     H_    0.151974 0.965940 0.269230 0.144392
H22   H     H_    0.847125 0.420410 0.743395 0.115669
H23   H     H_    0.221191 0.115692 0.321008 0.123246
H24   H     H_    0.769425 0.396658 0.723414 0.119531
H25   H     H_    0.400367 0.104885 0.458057 0.120687
H26   H     H_    0.591397 0.323662 0.575996 0.116233
O11   O     O_R   0.955980 0.206520 0.854760 -0.581749
O12   O     O_R   0.044020 0.706520 0.145240 -0.593052
O13   O     O_R   0.063490 0.536770 0.945200 -0.578603
O14   O     O_R   0.936510 0.036770 0.054800 -0.576625
C69   C     C_R   0.082576 0.368495 0.940227 0.914507
C70   C     C_R   0.917540 0.866384 0.059385 0.925030
O15   O     O_R   0.957530 0.536190 0.842880 -0.606964
O16   O     O_R   0.042470 0.036190 0.157120 -0.607723
O17   O     O_R   0.937350 0.707210 0.042130 -0.592907
O18   O     O_R   0.062650 0.207210 0.957870 -0.600335
C71   C     C_R   0.945536 0.368051 0.802010 0.968695
C72   C     C_R   0.055126 0.867388 0.197756 0.960945
O19   O     O_3   0.993540 0.373870 0.065440 -0.277435
O20   O     O_3   0.006460 0.873870 0.934560 -0.280895
V3    V     V_3+5 0.001200 0.648440 0.987860 1.224157
V4    V     V_3+5 0.998800 0.148440 0.012140 1.223930
N1    N     N_R   0.072032 0.769756 0.591263 0.226664
O21   O     O_R   0.027360 0.846096 0.583098 -0.432346
O22   O     O_R   0.088630 0.640325 0.665190 -0.442916
N2    N     N_R   0.921054 0.342197 0.401115 0.222665
O23   O     O_R   0.966678 0.270235 0.413763 -0.433603
O24   O     O_R   0.900850 0.443492 0.313683 -0.422958
N3    N     N_R   0.268510 0.852864 0.776450 0.221593
O25   O     O_R   0.301492 0.987012 0.815204 -0.467742
O26   O     O_R   0.257055 0.735648 0.845347 -0.420214
N4    N     N_R   0.725735 0.202199 0.254009 0.211319
O27   O     O_R   0.734283 0.247126 0.160783 -0.431829
O28   O     O_R   0.693514 0.066204 0.256433 -0.441048
N5    N     N_R   0.778188 0.982370 0.728186 0.213147
O29   O     O_R   0.821708 0.072142 0.741565 -0.479673
O30   O     O_R   0.744755 0.989475 0.631805 -0.394579
N6    N     N_R   0.232964 0.672483 0.227546 0.252203
O31   O     O_R   0.252424 0.833020 0.209815 -0.409079
O32   O     O_R   0.204382 0.661302 0.293995 -0.476395
N7    N     N_R   0.662819 0.855979 0.651914 0.261581
O33   O     O_R   0.624006 0.940458 0.583257 -0.417975
O34   O     O_R   0.684208 0.719078 0.615266 -0.431960
N8    N     N_R   0.332845 0.567605 0.322632 0.246062
O35   O     O_R   0.370124 0.687217 0.362868 -0.403012
O36   O     O_R   0.308063 0.495883 0.387850 -0.454726
C73   C     C_R   0.837384 0.837770 0.362603 0.108738
C74   C     C_R   0.885370 0.890300 0.438425 -0.137634
C75   C     C_R   0.893206 0.875481 0.551859 -0.079849
C76   C     C_R   0.853107 0.814433 0.592247 -0.036596
C77   C     C_R   0.804695 0.773414 0.519456 -0.036535
C78   C     C_R   0.796947 0.780531 0.405957 -0.136273
H27   H     H_    0.917419 0.944847 0.412341 0.165482
H28   H     H_    0.930442 0.911683 0.608558 0.177633
H29   H     H_    0.859950 0.795238 0.680027 0.140104
H30   H     H_    0.773655 0.724528 0.550822 0.180271
H31   H     H_    0.759776 0.733397 0.354140 0.131973
C79   C     C_R   0.164280 0.309521 0.639612 0.139578
C80   C     C_R   0.116457 0.265475 0.561028 -0.088747
C81   C     C_R   0.108823 0.300666 0.448776 -0.104720
C82   C     C_R   0.149158 0.372716 0.411900 -0.102708
C83   C     C_R   0.197100 0.411047 0.487543 -0.081695
C84   C     C_R   0.204571 0.382072 0.599983 -0.175778
H32   H     H_    0.084546 0.202449 0.584441 0.144927
H33   H     H_    0.071850 0.267960 0.389971 0.175880
H34   H     H_    0.143378 0.395438 0.324571 0.153848
H35   H     H_    0.228835 0.464940 0.460055 0.214740
H36   H     H_    0.241554 0.424790 0.654694 0.131409

loop_
_geom_bond_atom_site_label_1
_geom_bond_atom_site_label_2
_geom_bond_distance
_ccdc_geom_bond_type
C44   C46   1.422031 A    
C66   H16   1.083460 S    
N2    O23   1.301717 A    
C9    C31   1.379740 A    
C52   N4    1.436215 S    
C13   C15   1.423456 A    
C50   C52   1.425333 A    
C34   C71   1.457035 S    
O15   C71   1.312564 A    
C47   C55   1.410481 A    
C73   C74   1.419106 A    
O1    C3    1.310369 A    
O12   V3    2.037743 S    
C41   H21   1.078719 S    
O2    C4    1.312737 A    
C2    O7    1.310720 A    
C41   C43   1.414818 A    
C82   C83   1.394186 A    
C31   C70   1.459270 S    
N5    O29   1.297841 A    
C8    C28   1.395505 A    
C20   C28   1.412150 A    
C45   C53   1.402160 A    
O5    C3    1.317826 A    
C35   C67   1.404629 A    
C1    C36   1.452633 S    
O17   V3    2.071916 S    
C38   C40   1.402575 A    
C21   C23   1.429171 A    
C10   C12   1.401131 A    
N3    O25   1.299521 A    
O13   C69   1.321217 A    
C64   C66   1.391628 A    
C9    H5    1.079518 S    
C48   C56   1.420291 A    
C6    N8    1.438005 S    
C15   C19   1.438738 A    
C5    N7    1.432559 S    
C47   C49   1.427745 A    
C37   C45   1.426780 A    
C7    C29   1.374336 A    
C8    C30   1.383841 A    
O20   V4    2.238988 S    
N4    O27   1.301628 A    
C43   C45   1.418098 A    
C33   C41   1.388577 A    
C77   C78   1.390943 A    
C34   C42   1.385292 A    
C69   O18   1.310672 A    
C20   C22   1.428864 A    
C82   H34   1.081575 S    
C53   H11   1.078719 S    
C34   C40   1.390983 A    
O5    V1    2.070873 S    
O6    V2    2.054648 S    
C24   C26   1.385999 A    
C32   C69   1.465316 S    
C10   H6    1.079485 S    
C51   C53   1.403775 A    
C2    C35   1.463004 S    
C39   H19   1.084163 S    
C24   N6    1.416478 S    
C62   C68   1.407843 A    
C63   H25   1.084338 S    
C12   C14   1.413430 A    
C59   C61   1.421828 A    
H1    C29   1.085107 S    
C68   H14   1.080115 S    
C49   C61   1.441678 A    
C63   C65   1.387197 A    
C37   N1    1.436256 S    
C61   C67   1.418145 A    
C51   N3    1.436739 S    
C37   C39   1.401875 A    
C16   C20   1.436001 A    
C56   H24   1.074798 S    
O12   C72   1.320986 A    
N1    O21   1.301112 A    
C74   C75   1.392483 A    
C58   C60   1.388046 A    
C49   C51   1.428833 A    
C60   C64   1.404704 A    
C4    C7    1.446870 S    
C35   C65   1.395127 A    
C50   C62   1.431460 A    
C65   H15   1.083837 S    
N7    O34   1.294189 A    
C42   C44   1.409311 A    
O4    V2    2.035614 S    
C42   H22   1.076328 S    
C75   H28   1.082037 S    
C5    C29   1.388514 A    
C6    C30   1.387552 A    
C80   C81   1.396195 A    
C84   H36   1.079249 S    
O6    C4    1.316715 A    
C23   N5    1.439667 S    
C27   H3    1.077001 S    
C55   C57   1.380891 A    
C11   C73   1.500686 S    
O1    V2    2.062096 S    
C28   H4    1.073944 S    
C81   H33   1.082302 S    
O2    V1    2.071244 S    
C36   C68   1.394550 A    
O16   C72   1.316196 A    
O19   V3    2.220549 S    
C52   C54   1.396405 A    
C79   C84   1.411004 A    
C54   H12   1.080966 S    
N4    O28   1.301977 A    
C40   H20   1.083772 S    
N8    O36   1.299700 A    
H2    C30   1.084860 S    
C26   H10   1.082782 S    
C76   H29   1.079972 S    
C79   C80   1.416461 A    
C7    C27   1.388947 A    
C55   H23   1.078341 S    
O4    C2    1.319278 A    
C11   C13   1.416567 A    
C74   H27   1.076313 S    
C22   C24   1.402232 A    
O3    V1    2.039093 S    
O20   V3    1.761157 S    
C57   C59   1.386756 A    
C83   C84   1.392170 A    
O18   V4    2.062727 S    
O19   V4    1.774276 S    
N5    O30   1.291854 A    
C78   H31   1.079022 S    
N2    O24   1.300684 A    
C58   H18   1.084662 S    
O10   V1    1.761909 S    
C18   C32   1.408712 A    
C57   H17   1.083403 S    
N8    O35   1.301366 A    
O3    C1    1.313776 A    
C36   C66   1.394518 A    
N6    O32   1.293184 A    
C46   C54   1.398732 A    
C44   C48   1.430654 A    
C3    C8    1.449630 S    
C60   C62   1.417291 A    
C76   C77   1.392598 A    
C19   C27   1.412221 A    
C81   C82   1.391112 A    
C38   N2    1.441017 S    
C73   C78   1.407452 A    
O7    V1    2.039391 S    
C10   C32   1.387510 A    
C1    O8    1.309574 A    
C15   C17   1.408502 A    
O8    V2    2.036901 S    
N7    O33   1.300780 A    
O14   V4    2.054460 S    
C16   C18   1.418558 A    
C13   H7    1.065193 S    
C14   H8    1.070693 S    
O13   V3    2.070663 S    
C25   H9    1.082808 S    
C43   C47   1.426075 A    
C33   C39   1.390884 A    
C14   C16   1.418349 A    
C19   C21   1.446252 A    
C17   C25   1.387719 A    
C12   C79   1.502451 S    
C56   C58   1.387885 A    
C18   C26   1.395486 A    
C67   H13   1.078578 S    
O14   C70   1.322953 A    
N1    O22   1.297358 A    
N6    O31   1.300710 A    
C83   H35   1.076820 S    
O16   V4    2.035776 S    
C77   H30   1.076378 S    
C9    C11   1.395543 A    
O15   V3    2.039260 S    
C38   C46   1.426215 A    
C23   C25   1.392401 A    
C17   C31   1.410181 A    
O9    V2    1.775046 S    
C80   H32   1.078636 S    
C48   C50   1.426600 A    
C5    C21   1.441323 A    
O11   V4    2.035297 S    
C75   C76   1.384865 A    
C64   H26   1.083976 S    
C6    C22   1.428280 A    
O11   C71   1.319975 A    
C70   O17   1.307066 A    
C59   C63   1.401803 A    
N3    O26   1.301025 A    
C33   C72   1.463618 S    
