data_mof_unit_15872.cif
_audit_creation_date              2012-12-10T16:48:39-0500
_audit_creation_method            fapswitch 2.2
_symmetry_space_group_name_H-M    P1
_symmetry_Int_Tables_number       1
_space_group_crystal_system       triclinic
_cell_length_a                    7.86283
_cell_length_b                    8.614498
_cell_length_c                    10.849171
_cell_angle_alpha                 89.6942
_cell_angle_beta                  97.761583
_cell_angle_gamma                 93.022412
_cell_volume                      727.114998454

loop_
_atom_site_label
_atom_site_type_symbol
_atom_type_description
_atom_site_fract_x
_atom_site_fract_y
_atom_site_fract_z
_atom_type_partial_charge
C1    C     C_R   0.543466 0.793974 0.496904 0.905938
C2    C     C_2   0.449953 0.045120 0.531892 -0.255705
C3    C     C_2   0.720313 0.611259 0.128509 0.450606
C4    C     C_2   0.490571 0.302897 0.930794 0.431741
C5    C     C_3   0.227459 0.503226 0.060588 -0.852924
C6    C     C_3   0.690134 0.718939 0.872001 -0.863543
C7    C     C_2   0.643504 0.007463 0.368378 0.508131
C8    C     C_2   0.365774 0.994709 0.642568 0.395620
C9    C     C_3   0.982576 0.315107 0.414826 -0.409962
C10   C     C_3   0.017481 0.685783 0.583850 -0.410237
C11   C     C_R   0.457483 0.206070 0.505813 0.914702
C12   C     C_R   0.571390 0.500364 0.733358 0.879064
C13   C     C_R   0.432582 0.515951 0.264648 0.922846
C14   C     C_2   0.615299 0.552665 0.858159 -0.061963
C15   C     C_2   0.406994 0.529544 0.129032 0.029688
C16   C     C_2   0.551400 0.470108 0.948758 -0.126220
C17   C     C_2   0.550220 0.542696 0.069848 0.033328
C18   C     C_2   0.553443 0.955356 0.475228 -0.295293
H1    H     H_    0.837834 0.560700 0.110124 0.051792
H2    H     H_    0.409523 0.895394 0.697605 0.080462
H3    H     H_    0.867987 0.268943 0.352827 0.181370
H4    H     H_    0.084098 0.332519 0.354826 0.202921
H5    H     H_    0.013752 0.228646 0.489540 0.234295
H6    H     H_    0.132285 0.733884 0.644640 0.176006
H7    H     H_    0.985427 0.770752 0.508258 0.241126
H8    H     H_    0.916565 0.668979 0.644450 0.201081
H9    H     H_    0.482042 0.247389 0.840554 0.082587
H10   H     H_    0.144024 0.590654 0.092179 0.234808
H11   H     H_    0.223543 0.516529 0.958415 0.257384
H12   H     H_    0.174933 0.385166 0.081116 0.259525
H13   H     H_    0.698806 0.773896 0.779955 0.211115
H14   H     H_    0.607724 0.791657 0.920954 0.267659
H15   H     H_    0.822820 0.721257 0.922222 0.247616
H16   H     H_    0.584775 0.088274 0.300309 0.081488
N1    N     N_2   0.940600 0.458860 0.467170 -0.022347
N2    N     N_2   0.059400 0.541140 0.532830 -0.020354
O1    O     O_R   0.391630 0.738350 0.508060 -0.636334
O2    O     O_2   0.454206 0.223864 0.018250 -0.573016
O3    O     O_2   0.786123 0.963912 0.358203 -0.531595
O4    O     O_2   0.248338 0.065342 0.674569 -0.565809
O5    O     O_R   0.608370 0.261650 0.491940 -0.643252
O6    O     O_R   0.674540 0.711990 0.487010 -0.581442
O7    O     O_R   0.325460 0.288010 0.512990 -0.589998
O8    O     O_R   0.411370 0.508250 0.688780 -0.613065
O9    O     O_R   0.588630 0.491750 0.311220 -0.613540
O10   O     O_R   0.694270 0.481880 0.667740 -0.624381
O11   O     O_R   0.305730 0.518120 0.332260 -0.627556
O12   O     O_2   0.729337 0.728052 0.192436 -0.518615
Zn1   Zn    Zn3+2 0.311100 0.517600 0.514050 0.973245
Zn2   Zn    Zn3+2 0.688900 0.482400 0.485950 0.981010

loop_
_geom_bond_atom_site_label_1
_geom_bond_atom_site_label_2
_ccdc_geom_bond_type
O5    Zn2   S    
C4    C16   S    
C6    H14   S    
C1    O6    A    
C3    H1    S    
C2    C18   D    
C5    H10   S    
O1    Zn1   S    
O10   Zn2   S    
N1    N2    D    
C6    H15   S    
C1    O1    A    
C7    C18   S    
C10   H8    S    
N1    Zn2   S    
C6    H13   S    
C12   O8    A    
C13   O9    A    
C9    H3    S    
C1    C18   S    
C8    H2    S    
O9    Zn2   S    
O6    Zn2   S    
C2    C11   S    
C10   H7    S    
C12   O10   A    
C12   C14   S    
C3    C17   S    
C5    H11   S    
C13   C15   S    
C7    H16   S    
C14   C16   D    
C9    H4    S    
C5    C15   S    
C6    C14   S    
C3    O12   D    
C4    H9    S    
O11   Zn1   S    
C5    H12   S    
C11   O5    A    
C2    C8    S    
C9    N1    S    
C7    O3    D    
O7    Zn1   S    
C10   N2    S    
C8    O4    D    
C10   H6    S    
C15   C17   D    
C13   O11   A    
C11   O7    A    
O8    Zn1   S    
C9    H5    S    
N2    Zn1   S    
C4    O2    D    
C16   C17   S    
