data_mof_unit_35770.cif
_audit_creation_date              2012-12-10T16:48:05-0500
_audit_creation_method            fapswitch 2.2
_symmetry_space_group_name_H-M    P1
_symmetry_Int_Tables_number       1
_space_group_crystal_system       triclinic
_cell_length_a                    15.837233
_cell_length_b                    8.725053
_cell_length_c                    7.454089
_cell_angle_alpha                 102.477653
_cell_angle_beta                  95.235133
_cell_angle_gamma                 92.255127
_cell_volume                      999.638194483

loop_
_atom_site_label
_atom_site_type_symbol
_atom_type_description
_atom_site_fract_x
_atom_site_fract_y
_atom_site_fract_z
_atom_type_partial_charge
C1    C     C_R   0.495339 0.200385 0.454576 0.840657
C2    C     C_R   0.504650 0.799615 0.545424 0.840658
C3    C     C_R   0.339945 0.500229 0.500530 0.824583
C4    C     C_R   0.660055 0.499771 0.499470 0.824599
C5    C     C_2   0.480354 0.034803 0.436083 -0.266452
C6    C     C_2   0.519624 0.965201 0.563917 -0.266414
C7    C     C_3   0.974756 0.374385 0.560916 -0.075300
C8    C     C_3   0.025244 0.625616 0.439085 -0.075315
C9    C     C_3   0.020311 0.367116 0.384625 -0.261777
C10   C     C_3   0.979689 0.632884 0.615375 -0.261759
C11   C     C_1   0.250368 0.501595 0.499873 -0.069351
C12   C     C_1   0.749632 0.498405 0.500127 -0.069344
C13   C     C_3   0.038213 0.508018 0.669281 0.288954
C14   C     C_3   0.961787 0.491982 0.330719 0.288950
C15   C     C_3   0.083007 0.502367 0.493966 -0.014201
C16   C     C_3   0.916993 0.497634 0.506034 -0.014204
C17   C     C_1   0.174717 0.502284 0.495843 0.127878
C18   C     C_1   0.825283 0.497716 0.504158 0.127880
Cu1   Cu    Cu3+1 0.509330 0.517380 0.684380 1.039561
Cu2   Cu    Cu3+1 0.490670 0.482620 0.315620 1.039616
H1    H     H_    0.037680 0.259088 0.289652 0.209319
H2    H     H_    0.962320 0.740912 0.710349 0.209317
H3    H     H_    0.434763 0.376444 0.948084 0.241058
H4    H     H_    0.565237 0.623556 0.051916 0.241045
N1    N     N_2   0.476600 0.456420 0.038510 -0.196247
N2    N     N_2   0.523400 0.543580 0.961490 -0.196275
O1    O     O_R   0.506070 0.286130 0.619780 -0.583670
O2    O     O_R   0.493930 0.713870 0.380220 -0.583623
O3    O     O_R   0.490300 0.256770 0.308360 -0.540406
O4    O     O_R   0.509700 0.743230 0.691640 -0.540483
O5    O     O_R   0.386960 0.514660 0.655680 -0.589751
O6    O     O_R   0.613040 0.485340 0.344320 -0.589730
O7    O     O_R   0.371190 0.485310 0.344260 -0.551658
O8    O     O_R   0.628810 0.514690 0.655740 -0.551686
C19   C     C_2   0.947889 0.232683 0.629793 0.967755
O9    O     O_2   0.001360 0.145527 0.670901 -0.555273
O10   O     O_R   0.862200 0.200656 0.646499 -0.711095
H5    H     H_    0.852262 0.101918 0.694517 0.353438
C20   C     C_2   0.052113 0.767318 0.370210 0.967811
O11   O     O_2   0.998640 0.854429 0.329009 -0.555242
O12   O     O_R   0.137806 0.799398 0.353617 -0.711137
H6    H     H_    0.147746 0.898130 0.305589 0.353427
Br1   Br    Br    0.900704 0.478518 0.089512 -0.429248
Br2   Br    Br    0.099295 0.521481 0.910489 -0.429266
C21   C     C_2   0.409799 0.957033 0.294746 0.879823
O13   O     O_2   0.352400 0.878838 0.338220 -0.567205
O14   O     O_R   0.408179 0.977529 0.113556 -0.706332
H7    H     H_    0.357257 0.919689 0.030835 0.344925
C22   C     C_2   0.590202 0.042957 0.705200 0.879830
O15   O     O_2   0.647636 0.121007 0.661606 -0.567245
O16   O     O_R   0.591827 0.022549 0.886443 -0.706317
H8    H     H_    0.642806 0.080249 0.969087 0.344918

loop_
_geom_bond_atom_site_label_1
_geom_bond_atom_site_label_2
_ccdc_geom_bond_type
C2    O2    A    
C9    C14   S    
C15   C17   S    
O10   H5    S    
C8    C20   S    
C4    C12   S    
Cu1   O1    S    
O12   H6    S    
C19   O9    D    
C2    O4    A    
Cu1   O5    S    
Cu1   Cu2   S    
C1    O3    A    
C9    C15   S    
C20   O12   S    
C10   C16   S    
C21   O13   D    
C10   H2    S    
C3    O5    A    
C9    H1    S    
C4    O6    A    
C7    C19   S    
C1    C5    S    
Cu2   O7    S    
C8    C10   S    
C7    C16   S    
C19   O10   S    
H4    N2    S    
C8    C15   S    
C4    O8    A    
Cu2   O3    S    
C13   C15   S    
C6    C22   S    
C5    C6    D    
C14   C16   S    
C3    C11   S    
Cu2   N1    S    
C3    O7    A    
O16   H8    S    
O14   H7    S    
C7    C9    S    
C7    C13   S    
H3    N1    S    
C16   C18   S    
C22   O15   D    
Cu2   O6    S    
C21   O14   S    
C12   C18   T    
C20   O11   D    
C1    O1    A    
Cu1   N2    S    
C11   C17   T    
C8    C14   S    
Cu2   O2    S    
N1    N2    D    
Cu1   O4    S    
C5    C21   S    
Cu1   O8    S    
C13   Br2   S    
C2    C6    S    
C14   Br1   S    
C22   O16   S    
C10   C13   S    
