data_mof_unit_59493.cif
_audit_creation_date              2012-12-11T14:36:10-0500
_audit_creation_method            fapswitch 2.2
_symmetry_space_group_name_H-M    P1
_symmetry_Int_Tables_number       1
_space_group_crystal_system       triclinic
_cell_length_a                    14.070107
_cell_length_b                    16.811788
_cell_length_c                    7.28454
_cell_angle_alpha                 90.553651
_cell_angle_beta                  82.117701
_cell_angle_gamma                 89.698572
_cell_volume                      1706.71413875

loop_
_atom_site_label
_atom_site_type_symbol
_atom_type_description
_atom_site_fract_x
_atom_site_fract_y
_atom_site_fract_z
_atom_type_partial_charge
O1    O     O_R   0.337460 0.413110 0.524760 -0.545710
O2    O     O_R   0.662540 0.913110 0.475240 -0.538395
O3    O     O_R   0.348690 0.587910 0.191230 -0.544538
O4    O     O_R   0.651310 0.087910 0.808770 -0.540870
O5    O     O_R   0.166530 0.586890 0.082470 -0.545595
O6    O     O_R   0.833470 0.086890 0.917530 -0.568148
C1    C     C_R   0.368371 0.616622 0.357085 0.701405
C2    C     C_R   0.632653 0.117592 0.643849 0.729801
O7    O     O_R   0.348700 0.413830 0.191250 -0.528827
O8    O     O_R   0.651300 0.913830 0.808750 -0.525073
O9    O     O_R   0.166530 0.411570 0.082490 -0.517992
O10   O     O_R   0.833470 0.911570 0.917510 -0.528717
C3    C     C_R   0.369397 0.385943 0.355498 0.745076
C4    C     C_R   0.631201 0.886201 0.643613 0.765174
O11   O     O_R   0.337460 0.588430 0.524740 -0.539796
O12   O     O_R   0.662540 0.088430 0.475260 -0.531806
O13   O     O_3   0.192230 0.499460 0.407330 -0.357739
O14   O     O_3   0.807770 0.999460 0.592670 -0.371315
V1    V     V_3+5 0.263080 0.500100 0.108540 1.516044
V2    V     V_3+5 0.736920 0.000100 0.891460 1.522517
O15   O     O_R   0.155290 0.412090 0.756570 -0.495862
O16   O     O_R   0.844710 0.912090 0.243430 -0.478670
C5    C     C_R   0.130180 0.385747 0.932500 0.842897
C6    C     C_R   0.866019 0.883160 0.065957 0.840944
O17   O     O_R   0.155290 0.586170 0.756550 -0.522662
O18   O     O_R   0.844710 0.086170 0.243450 -0.528688
C7    C     C_R   0.133654 0.614244 0.931665 0.776344
C8    C     C_R   0.868886 0.113211 0.072406 0.753308
V3    V     V_3+5 0.240910 0.499900 0.616030 1.574392
V4    V     V_3+5 0.759090 0.999900 0.383970 1.613262
O19   O     O_3   0.311760 0.500540 0.867100 -0.400980
O20   O     O_3   0.688240 0.000540 0.132900 -0.387925
C9    C     C_3   0.119850 0.763036 0.029914 0.239048
C10   C     C_3   0.900630 0.243394 0.903553 0.275861
C11   C     C_3   0.040119 0.831291 0.082273 0.434672
C12   C     C_3   0.962130 0.322257 0.883135 0.474199
H1    H     H_    0.997949 0.691985 0.258453 0.140324
H2    H     H_    0.047707 0.110494 0.892910 0.166591
C13   C     C_3   0.977041 0.673619 0.125447 0.072290
C14   C     C_3   0.047427 0.159153 0.996655 0.039481
C15   C     C_3   0.020568 0.706573 0.776659 0.327302
C16   C     C_3   0.939727 0.240064 0.236162 0.382869
C17   C     C_3   0.065105 0.686911 0.963352 -0.204471
C18   C     C_3   0.937852 0.186931 0.054790 -0.209835
C19   C     C_3   0.936958 0.810826 0.020297 -0.313346
C20   C     C_3   0.058587 0.313819 0.973629 -0.237296
C21   C     C_3   0.890138 0.729204 0.105381 0.342368
C22   C     C_3   0.113152 0.230075 0.917859 0.324300
C23   C     C_3   0.963804 0.790698 0.805527 0.426725
C24   C     C_3   0.021111 0.310575 0.191131 0.359200
H3    H     H_    0.501676 0.845948 0.419537 0.123509
H4    H     H_    0.494821 0.347347 0.588873 0.118024
C25   C     C_2   0.435125 0.686762 0.356368 0.039556
C26   C     C_2   0.567067 0.189035 0.644004 0.041588
C27   C     C_2   0.451449 0.726086 0.517248 0.264034
C28   C     C_2   0.557133 0.231106 0.485465 0.232238
C29   C     C_2   0.573866 0.812430 0.642840 0.162375
C30   C     C_2   0.430138 0.312841 0.355275 0.154581
C31   C     C_2   0.512473 0.799377 0.517122 -0.211178
C32   C     C_2   0.489559 0.301065 0.485766 -0.248007
N1    N     N_3   0.170857 0.746918 0.191557 -0.610405
H5    H     H_    0.147497 0.696315 0.262711 0.240462
H6    H     H_    0.244297 0.736796 0.152080 0.246719
N2    N     N_3   0.909552 0.202090 0.725401 -0.621825
H7    H     H_    0.951611 0.150825 0.717331 0.251609
H8    H     H_    0.843326 0.186987 0.684602 0.256368
Br1   Br    Br    0.852565 0.789953 0.681976 -0.386821
Br2   Br    Br    0.138856 0.297196 0.317181 -0.354206
Br3   Br    Br    0.943180 0.566528 0.193533 -0.480724
Br4   Br    Br    0.112263 0.101003 0.181080 -0.348799
N3    N     N_3   0.826198 0.690792 0.987969 -0.529267
H9    H     H_    0.764031 0.725078 0.988110 0.296268
H10   H     H_    0.802741 0.635056 0.037186 0.326439
N4    N     N_3   0.208586 0.228537 0.980781 -0.500367
H11   H     H_    0.252386 0.272877 0.915243 0.236139
H12   H     H_    0.245116 0.175030 0.944119 0.316555
N5    N     N_3   0.403247 0.701044 0.694403 -0.652061
H13   H     H_    0.405854 0.745606 0.794689 0.253784
H14   H     H_    0.439523 0.651400 0.736175 0.277610
N6    N     N_3   0.622043 0.216255 0.318167 -0.623845
H15   H     H_    0.648538 0.270785 0.266585 0.251663
H16   H     H_    0.584974 0.189977 0.219178 0.281708
Br5   Br    Br    0.612241 0.726635 0.787088 -0.528012
Br6   Br    Br    0.395723 0.225063 0.209707 -0.463041
N7    N     N_3   0.483126 0.709784 0.177911 -0.649906
H17   H     H_    0.523257 0.660275 0.124334 0.271855
H18   H     H_    0.532923 0.754851 0.186891 0.270232
N8    N     N_3   0.511447 0.211042 0.816427 -0.634723
H19   H     H_    0.438919 0.210287 0.798770 0.278775
H20   H     H_    0.529708 0.269033 0.850442 0.239463
N9    N     N_3   0.193604 0.789169 0.880414 -0.673343
H21   H     H_    0.238281 0.740891 0.838213 0.235349
H22   H     H_    0.238339 0.831547 0.929824 0.302226
N10   N     N_3   0.797477 0.264202 0.953235 -0.641034
H23   H     H_    0.753803 0.214295 0.973585 0.240312
H24   H     H_    0.773033 0.294734 0.843927 0.270880
Br7   Br    Br    0.089884 0.935029 0.004545 -0.466366
Br8   Br    Br    0.883140 0.418202 0.946928 -0.455446
Br9   Br    Br    0.024731 0.859564 0.333493 -0.430120
Br10  Br    Br    0.985121 0.355695 0.639997 -0.492586
Br11  Br    Br    0.798443 0.738373 0.323856 -0.432326
Br12  Br    Br    0.150068 0.202807 0.664020 -0.450358
N11   N     N_3   0.954865 0.640926 0.742638 -0.529219
H25   H     H_    0.986481 0.585087 0.751280 0.286048
H26   H     H_    0.935402 0.643416 0.609293 0.307000
N12   N     N_3   0.961870 0.190445 0.387686 -0.602558
H27   H     H_    0.021575 0.202573 0.445792 0.352253
H28   H     H_    0.953769 0.129545 0.389931 0.287889
N13   N     N_3   0.092322 0.707407 0.609885 -0.645785
H29   H     H_    0.055360 0.724789 0.504084 0.273487
H30   H     H_    0.149847 0.745482 0.607140 0.274702
N14   N     N_3   0.841729 0.270200 0.300281 -0.625498
H31   H     H_    0.833353 0.284891 0.441420 0.273735
H32   H     H_    0.822950 0.320855 0.233351 0.282570
N15   N     N_3   0.017494 0.855495 0.709135 -0.593892
H33   H     H_    0.985410 0.911695 0.728224 0.300119
H34   H     H_    0.091604 0.856082 0.699330 0.307154
N16   N     N_3   0.983035 0.390507 0.247873 -0.587830
H35   H     H_    0.032488 0.426089 0.304005 0.324107
H36   H     H_    0.920125 0.393626 0.340084 0.298029

loop_
_geom_bond_atom_site_label_1
_geom_bond_atom_site_label_2
_ccdc_geom_bond_type
V4    O20   S    
C21   Br11  S    
C27   C31   S    
O13   V3    S    
O4    C2    A    
V1    O19   S    
N14   H32   S    
N5    H13   S    
O9    V1    S    
C14   Br4   S    
C6    C19   S    
C28   C32   S    
O3    C1    A    
N13   H30   S    
C27   N5    S    
C29   C31   D    
N12   H27   S    
O12   V4    S    
N15   H33   S    
C19   C21   S    
C15   C23   S    
N1    H6    S    
O7    C3    A    
N16   H35   S    
C16   N14   S    
H4    C32   S    
C1    O11   A    
O5    C7    A    
O7    V1    S    
O6    C8    A    
O8    V2    S    
N15   H34   S    
C29   Br5   S    
O3    V1    S    
O14   V4    S    
C23   Br1   S    
C10   C12   S    
N5    H14   S    
C2    O12   A    
C5    C20   S    
C15   N13   S    
C15   C17   S    
N1    H5    S    
C16   C18   S    
C11   Br9   S    
O1    V3    S    
N14   H31   S    
O11   V3    S    
C30   C32   D    
C20   C22   S    
C25   C27   D    
O17   V3    S    
C26   C28   D    
N4    H11   S    
N7    H18   S    
C9    C17   S    
C22   N4    S    
C10   C18   S    
N6    H16   S    
O8    C4    A    
C2    C26   S    
N9    H21   S    
N3    H10   S    
C13   C17   S    
C3    C30   S    
N7    H17   S    
O15   V3    S    
C8    C18   S    
C15   N11   S    
N2    H8    S    
C30   Br6   S    
N9    H22   S    
C19   C23   S    
C22   Br12  S    
O10   V2    S    
C10   N2    S    
C13   Br3   S    
N11   H26   S    
N10   H24   S    
C16   N12   S    
C21   N3    S    
N4    H12   S    
C16   C24   S    
C9    N1    S    
C23   N15   S    
N8    H20   S    
O18   V4    S    
O15   C5    A    
O16   C6    A    
H3    C31   S    
C1    C25   S    
C11   C19   S    
C13   C21   S    
V2    O20   S    
C14   C22   S    
C4    C29   S    
O10   C6    A    
O16   V4    S    
C24   N16   S    
C10   N10   S    
N6    H15   S    
C25   N7    S    
C12   Br10  S    
O5    V1    S    
O17   C7    A    
O6    V2    S    
C20   C24   S    
O18   C8    A    
C28   N6    S    
O2    V4    S    
N2    H7    S    
C26   N8    S    
C9    N9    S    
N3    H9    S    
H1    C13   S    
N13   H29   S    
H2    C14   S    
C12   C20   S    
C9    C11   S    
N12   H28   S    
O9    C5    A    
O13   V1    S    
O14   V2    S    
N10   H23   S    
O2    C4    A    
N16   H36   S    
O4    V2    S    
C7    C17   S    
C14   C18   S    
O1    C3    A    
N8    H19   S    
V3    O19   S    
N11   H25   S    
C12   Br8   S    
C11   Br7   S    
C24   Br2   S    
