data_mof_unit_30275.cif
_audit_creation_date              2012-12-11T14:56:00-0500
_audit_creation_method            fapswitch 2.2
_symmetry_space_group_name_H-M    P1
_symmetry_Int_Tables_number       1
_space_group_crystal_system       triclinic
_cell_length_a                    27.956905
_cell_length_b                    17.238341
_cell_length_c                    18.122286
_cell_angle_alpha                 90.071133
_cell_angle_beta                  137.533769
_cell_angle_gamma                 89.953715
_cell_volume                      5896.59150282

loop_
_atom_site_label
_atom_site_type_symbol
_atom_type_description
_atom_site_fract_x
_atom_site_fract_y
_atom_site_fract_z
_atom_type_partial_charge
C1    C     C_R   0.687261 0.896070 0.795994 -0.213756
C2    C     C_3   0.264025 0.660331 0.042556 -0.188764
C3    C     C_3   0.702533 0.740492 0.939120 -0.216853
C4    C     C_3   0.169882 0.719536 0.979136 -0.081249
C5    C     C_3   0.796656 0.239522 0.059898 -0.218266
C6    C     C_3   0.829636 0.719250 0.021386 -0.080669
C7    C     C_3   0.202533 0.240492 0.939119 -0.216853
C8    C     C_3   0.241180 0.691554 0.093210 -0.186907
C9    C     C_3   0.726261 0.268058 0.948113 -0.097214
C10   C     C_3   0.758491 0.691187 0.907160 -0.187937
C11   C     C_3   0.272838 0.269070 0.051148 -0.098635
C12   C     C_3   0.741180 0.191554 0.093210 -0.186907
C13   C     C_3   0.296466 0.298964 0.001977 -0.097862
C14   C     C_3   0.226261 0.768057 0.948113 -0.097215
C15   C     C_3   0.258492 0.191187 0.907160 -0.187937
C16   C     C_3   0.772839 0.769070 0.051149 -0.098636
C17   C     C_3   0.273821 0.769855 0.109804 0.174028
C18   C     C_3   0.694069 0.189470 0.931216 0.229519
C19   C     C_3   0.726002 0.769864 0.889829 0.172678
C20   C     C_3   0.304814 0.190127 0.068645 0.228943
C21   C     C_3   0.773821 0.269855 0.109804 0.174028
C22   C     C_3   0.194069 0.689470 0.931216 0.229519
C23   C     C_3   0.226002 0.269864 0.889829 0.172678
C24   C     C_3   0.734989 0.660928 0.957132 -0.188360
C25   C     C_3   0.804814 0.690126 0.068645 0.228943
C26   C     C_3   0.919742 0.879402 0.745130 -0.218040
C27   C     C_3   0.161560 0.040250 0.478684 -0.245102
C28   C     C_3   0.080254 0.879189 0.255084 -0.217705
C29   C     C_3   0.838987 0.040613 0.521989 -0.244935
C30   C     C_3   0.419742 0.379402 0.745129 -0.218038
C31   C     C_3   0.661561 0.540250 0.478684 -0.245098
C32   C     C_3   0.580254 0.379189 0.255083 -0.217709
C33   C     C_3   0.338986 0.540612 0.521989 -0.244939
C34   C     C_3   0.448180 0.728634 0.636046 -0.331512
C35   C     C_3   0.203239 0.798887 0.997876 -0.098451
C36   C     C_3   0.620188 0.292196 0.499679 -0.247501
C37   C     C_3   0.552097 0.728179 0.364135 -0.330271
C38   C     C_3   0.380217 0.292318 0.500891 -0.245406
C39   C     C_3   0.948180 0.228633 0.636045 -0.331514
C40   C     C_3   0.120188 0.792196 0.499680 -0.247504
C41   C     C_3   0.052097 0.228179 0.364135 -0.330275
C42   C     C_3   0.880217 0.792318 0.500890 -0.245405
C43   C     C_3   0.588791 0.291336 0.655277 -0.191923
C44   C     C_3   0.414211 0.669624 0.308571 0.099113
C45   C     C_3   0.411734 0.292069 0.344879 -0.190002
C46   C     C_3   0.764025 0.160331 0.042556 -0.188764
C47   C     C_3   0.585770 0.669548 0.690622 0.099423
C48   C     C_3   0.088791 0.791336 0.655277 -0.191925
C49   C     C_3   0.914211 0.169624 0.308571 0.099116
C50   C     C_3   0.911735 0.792069 0.344880 -0.190002
C51   C     C_3   0.085770 0.169548 0.690622 0.099419
C52   C     C_3   0.796466 0.798964 0.001977 -0.097861
C53   C     C_3   0.234989 0.160928 0.957132 -0.188360
C54   C     C_R   0.720170 0.756689 0.633089 -0.130594
C55   C     C_R   0.382139 0.150950 0.634328 -0.145761
C56   C     C_R   0.279903 0.756594 0.366973 -0.130856
C57   C     C_R   0.326581 0.083002 0.183430 -0.231942
C58   C     C_R   0.618126 0.150882 0.366111 -0.145761
C59   C     C_R   0.220169 0.256689 0.633089 -0.130593
C60   C     C_R   0.882139 0.650950 0.634328 -0.145760
C61   C     C_R   0.779903 0.256595 0.366972 -0.130855
C62   C     C_R   0.118126 0.650882 0.366110 -0.145760
C63   C     C_R   0.394582 0.252537 0.739829 0.483345
C64   C     C_R   0.742925 0.625600 0.617158 0.461159
C65   C     C_R   0.605593 0.252323 0.260597 0.483079
C66   C     C_R   0.257408 0.625595 0.383335 0.461085
C67   C     C_R   0.894582 0.752537 0.739829 0.483346
C68   C     C_R   0.312821 0.896294 0.203477 -0.212953
C69   C     C_R   0.242925 0.125600 0.617157 0.461159
C70   C     C_R   0.105593 0.752323 0.260597 0.483078
C71   C     C_R   0.757408 0.125595 0.383334 0.461085
C72   C     C_R   0.422925 0.210143 0.713478 0.602526
C73   C     C_R   0.704149 0.676940 0.617167 0.607501
C74   C     C_R   0.577283 0.209955 0.286929 0.602723
C75   C     C_R   0.296014 0.676864 0.383002 0.607654
C76   C     C_R   0.922925 0.710143 0.713478 0.602526
C77   C     C_R   0.204149 0.176939 0.617166 0.607500
C78   C     C_R   0.077283 0.709955 0.286928 0.602723
C79   C     C_R   0.672424 0.082325 0.816542 -0.232941
C80   C     C_R   0.796014 0.176865 0.383002 0.607653
C81   C     C_R   0.328471 0.116036 0.614658 -0.221615
C82   C     C_R   0.788404 0.779115 0.690024 -0.225265
C83   C     C_R   0.671921 0.116072 0.385954 -0.221327
C84   C     C_R   0.211695 0.778969 0.310235 -0.225350
C85   C     C_R   0.828471 0.616036 0.614658 -0.221615
C86   C     C_R   0.288404 0.279115 0.690024 -0.225265
C87   C     C_R   0.171921 0.616072 0.385954 -0.221328
C88   C     C_R   0.711695 0.278969 0.310235 -0.225350
C89   C     C_R   0.302341 0.154164 0.647036 -0.136225
C90   C     C_R   0.187261 0.396070 0.795994 -0.213756
C91   C     C_R   0.830240 0.727884 0.697396 -0.147431
C92   C     C_R   0.697997 0.154143 0.353538 -0.136414
C93   C     C_R   0.169976 0.727757 0.303063 -0.147623
C94   C     C_R   0.802341 0.654164 0.647036 -0.136226
C95   C     C_R   0.330240 0.227884 0.697396 -0.147431
C96   C     C_R   0.197997 0.654143 0.353538 -0.136413
C97   C     C_R   0.669977 0.227757 0.303062 -0.147623
C98   C     C_R   0.358636 0.071393 0.489791 -0.240810
C99   C     C_R   0.675393 0.895616 0.599044 -0.274698
C100  C     C_R   0.641414 0.071328 0.510285 -0.241650
C101  C     C_R   0.826581 0.583002 0.183430 -0.231942
C102  C     C_R   0.324598 0.895564 0.400846 -0.276598
C103  C     C_R   0.858636 0.571393 0.489791 -0.240811
C104  C     C_R   0.175393 0.395616 0.599044 -0.274699
C105  C     C_R   0.141414 0.571327 0.510285 -0.241649
C106  C     C_R   0.824598 0.395564 0.400846 -0.276599
C107  C     C_R   0.407501 0.804846 0.498304 0.740019
C108  C     C_R   0.567406 0.172689 0.436769 0.671621
C109  C     C_R   0.592504 0.804846 0.501555 0.740593
C110  C     C_R   0.432660 0.172713 0.563395 0.669649
C111  C     C_R   0.907501 0.304846 0.498303 0.740016
C112  C     C_R   0.812821 0.396294 0.203477 -0.212953
C113  C     C_R   0.067406 0.672689 0.436769 0.671623
C114  C     C_R   0.092504 0.304846 0.501555 0.740594
C115  C     C_R   0.932660 0.672713 0.563395 0.669648
C116  C     C_R   0.594227 0.179829 0.728594 0.637489
C117  C     C_R   0.395833 0.803044 0.295991 0.533393
C118  C     C_R   0.405158 0.179981 0.271190 0.635126
C119  C     C_R   0.604243 0.802960 0.703374 0.533354
C120  C     C_R   0.094227 0.679829 0.728594 0.637490
C121  C     C_R   0.895833 0.303044 0.295991 0.533392
C122  C     C_R   0.905158 0.679981 0.271190 0.635123
C123  C     C_R   0.172425 0.582325 0.816542 -0.232941
C124  C     C_R   0.104243 0.302960 0.703374 0.533353
C125  C     C_R   0.675925 0.818332 0.793720 -0.091323
C126  C     C_R   0.346542 0.149602 0.170169 -0.130618
C127  C     C_R   0.324251 0.818662 0.205408 -0.092624
C128  C     C_R   0.652116 0.148820 0.829648 -0.129375
C129  C     C_R   0.175925 0.318332 0.793720 -0.091323
C130  C     C_R   0.846542 0.649602 0.170169 -0.130618
C131  C     C_R   0.824251 0.318662 0.205408 -0.092624
C132  C     C_R   0.152116 0.648820 0.829648 -0.129376
C133  C     C_R   0.390132 0.132338 0.564602 -0.053286
C134  C     C_3   0.703239 0.298887 0.997876 -0.098452
C135  C     C_R   0.664762 0.816522 0.577385 -0.062071
C136  C     C_R   0.609985 0.132258 0.435612 -0.053985
C137  C     C_R   0.335249 0.816480 0.422474 -0.062074
C138  C     C_R   0.890132 0.632338 0.564602 -0.053287
C139  C     C_R   0.164762 0.316522 0.577385 -0.062071
C140  C     C_R   0.109985 0.632258 0.435611 -0.053986
C141  C     C_R   0.835249 0.316480 0.422474 -0.062073
C142  C     C_3   0.669882 0.219536 0.979136 -0.081248
C143  C     C_3   0.296657 0.739522 0.059898 -0.218266
C144  C     C_3   0.329636 0.219250 0.021387 -0.080669
F1    F     F_    0.651059 0.649208 0.599597 -0.669898
F2    F     F_    0.487186 0.230299 0.759188 -0.682962
F3    F     F_    0.349020 0.649089 0.400325 -0.669335
F4    F     F_    0.512987 0.230042 0.241177 -0.682523
F5    F     F_    0.151059 0.149207 0.599597 -0.669898
F6    F     F_    0.987186 0.730299 0.759188 -0.682963
F7    F     F_    0.849020 0.149089 0.400325 -0.669336
F8    F     F_    0.012987 0.730042 0.241177 -0.682523
H1    H     H_    0.737974 0.924834 0.849436 0.125855
H2    H     H_    0.726010 0.923610 0.664820 0.146577
H3    H     H_    0.415414 0.680543 0.249755 0.024422
H4    H     H_    0.366313 0.637304 0.270597 0.125735
H5    H     H_    0.459480 0.630762 0.372534 0.177201
H6    H     H_    0.354568 0.290878 0.294328 0.092371
H7    H     H_    0.428732 0.353597 0.361682 0.173249
H8    H     H_    0.442428 0.263508 0.424070 0.147594
H9    H     H_    0.584706 0.680374 0.749633 0.024885
H10   H     H_    0.633753 0.637576 0.728332 0.126449
H11   H     H_    0.540638 0.630425 0.626879 0.176636
H12   H     H_    0.145759 0.788385 0.704969 0.091977
H13   H     H_    0.678493 0.029381 0.531073 0.147707
H14   H     H_    0.073318 0.853351 0.640068 0.172743
H15   H     H_    0.056921 0.763298 0.575301 0.149520
H16   H     H_    0.915414 0.180543 0.249755 0.024422
H17   H     H_    0.866313 0.137304 0.270597 0.125735
H18   H     H_    0.959480 0.130762 0.372534 0.177201
H19   H     H_    0.854569 0.790880 0.294329 0.092372
H20   H     H_    0.928735 0.853597 0.361684 0.173250
H21   H     H_    0.942429 0.763508 0.424070 0.147593
H22   H     H_    0.084706 0.180374 0.749633 0.024886
H23   H     H_    0.133753 0.137576 0.728332 0.126450
H24   H     H_    0.273964 0.923497 0.335091 0.146897
H25   H     H_    0.040638 0.130424 0.626879 0.176636
H26   H     H_    0.821571 0.529459 0.468986 0.147487
H27   H     H_    0.226010 0.423610 0.664820 0.146577
H28   H     H_    0.178492 0.529381 0.531073 0.147707
H29   H     H_    0.773963 0.423497 0.335091 0.146898
H30   H     H_    0.246464 0.662156 0.153400 0.156390
H31   H     H_    0.721598 0.299743 0.889920 0.119289
H32   H     H_    0.753628 0.661185 0.847636 0.155698
H33   H     H_    0.279443 0.048728 0.121063 0.136203
H34   H     H_    0.277339 0.301238 0.108988 0.118234
H35   H     H_    0.746464 0.162156 0.153400 0.156391
H36   H     H_    0.221598 0.799743 0.889921 0.119290
H37   H     H_    0.253628 0.161185 0.847636 0.155697
H38   H     H_    0.777339 0.801238 0.108988 0.118234
H39   H     H_    0.617014 0.209724 0.943913 0.192432
H40   H     H_    0.348455 0.749742 0.091488 0.110460
H41   H     H_    0.382658 0.208945 0.057303 0.192426
H42   H     H_    0.650560 0.751206 0.906818 0.110165
H43   H     H_    0.117014 0.709724 0.943913 0.192432
H44   H     H_    0.262097 0.924996 0.150155 0.125527
H45   H     H_    0.848455 0.249742 0.091488 0.110459
H46   H     H_    0.882658 0.708945 0.057303 0.192426
H47   H     H_    0.150560 0.251206 0.906818 0.110165
H48   H     H_    0.677855 0.355930 0.979359 0.120654
H49   H     H_    0.288676 0.602963 0.059903 0.112802
H50   H     H_    0.322141 0.355768 0.020509 0.120591
H51   H     H_    0.710047 0.603796 0.939770 0.112750
H52   H     H_    0.177855 0.855930 0.979359 0.120653
H53   H     H_    0.788676 0.102963 0.059903 0.112802
H54   H     H_    0.822141 0.855768 0.020509 0.120591
H55   H     H_    0.719325 0.047843 0.879129 0.136647
H56   H     H_    0.210047 0.103796 0.939770 0.112750
H57   H     H_    0.805196 0.838715 0.714962 0.186809
H58   H     H_    0.301430 0.065056 0.563450 0.183070
H59   H     H_    0.194836 0.838530 0.285239 0.186871
H60   H     H_    0.699041 0.065196 0.437232 0.183101
H61   H     H_    0.305196 0.338715 0.714962 0.186809
H62   H     H_    0.801430 0.565057 0.563451 0.183070
H63   H     H_    0.694836 0.338530 0.285238 0.186871
H64   H     H_    0.199041 0.565195 0.437231 0.183101
H65   H     H_    0.862801 0.889130 0.667159 0.087754
H66   H     H_    0.237974 0.424834 0.849436 0.125855
H67   H     H_    0.950379 0.869640 0.728455 0.203435
H68   H     H_    0.940136 0.933359 0.794104 0.159355
H69   H     H_    0.164682 0.070814 0.428198 0.099248
H70   H     H_    0.115096 0.060931 0.457816 0.199322
H71   H     H_    0.152899 0.977820 0.457256 0.149086
H72   H     H_    0.137200 0.889150 0.332907 0.087555
H73   H     H_    0.049767 0.869447 0.272010 0.203209
H74   H     H_    0.059653 0.933007 0.205929 0.159468
H75   H     H_    0.885367 0.061271 0.542653 0.199370
H76   H     H_    0.847765 0.978250 0.543627 0.148946
H77   H     H_    0.779443 0.548728 0.121063 0.136203
H78   H     H_    0.835900 0.071391 0.572479 0.099255
H79   H     H_    0.362801 0.389129 0.667158 0.087753
H80   H     H_    0.450379 0.369640 0.728455 0.203435
H81   H     H_    0.440135 0.433359 0.794104 0.159354
H82   H     H_    0.664683 0.570815 0.428198 0.099246
H83   H     H_    0.615096 0.560931 0.457816 0.199321
H84   H     H_    0.652900 0.477820 0.457257 0.149086
H85   H     H_    0.637199 0.389150 0.332906 0.087556
H86   H     H_    0.549767 0.369447 0.272010 0.203209
H87   H     H_    0.559652 0.433007 0.205928 0.159469
H88   H     H_    0.762097 0.424996 0.150155 0.125527
H89   H     H_    0.335896 0.571387 0.572477 0.099257
H90   H     H_    0.385367 0.561275 0.542657 0.199367
H91   H     H_    0.347766 0.478249 0.543626 0.148948
H92   H     H_    0.395214 0.730367 0.602788 0.119523
H93   H     H_    0.483503 0.773488 0.700748 0.124881
H94   H     H_    0.471100 0.670929 0.674600 0.162129
H95   H     H_    0.656297 0.268275 0.583685 0.104436
H96   H     H_    0.609145 0.353509 0.501772 0.175124
H97   H     H_    0.647196 0.292065 0.476008 0.126765
H98   H     H_    0.605132 0.729865 0.397619 0.119375
H99   H     H_    0.219325 0.547843 0.879129 0.136647
H100  H     H_    0.516803 0.772859 0.299264 0.124934
H101  H     H_    0.529277 0.670376 0.325737 0.161817
H102  H     H_    0.344449 0.268778 0.416710 0.104430
H103  H     H_    0.391486 0.353720 0.499722 0.175117
H104  H     H_    0.352750 0.291819 0.523795 0.126100
H105  H     H_    0.895213 0.230366 0.602788 0.119524
H106  H     H_    0.983503 0.273486 0.700747 0.124881
H107  H     H_    0.971099 0.170928 0.674598 0.162130
H108  H     H_    0.156297 0.768275 0.583686 0.104436
H109  H     H_    0.109146 0.853509 0.501773 0.175124
H110  H     H_    0.321570 0.029459 0.468986 0.147487
H111  H     H_    0.147197 0.792065 0.476009 0.126766
H112  H     H_    0.105132 0.229865 0.397619 0.119376
H113  H     H_    0.016803 0.272859 0.299264 0.124935
H114  H     H_    0.029277 0.170376 0.325737 0.161818
H115  H     H_    0.844449 0.768778 0.416710 0.104430
H116  H     H_    0.891486 0.853720 0.499722 0.175117
H117  H     H_    0.852750 0.791819 0.523794 0.126100
H118  H     H_    0.645758 0.288384 0.704969 0.091976
H119  H     H_    0.573317 0.353351 0.640068 0.172743
H120  H     H_    0.556921 0.263298 0.575301 0.149520
N1    N     N_R   0.625380 0.928280 0.709340 -0.058344
N2    N     N_R   0.613900 0.929750 0.547530 -0.068910
N3    N     N_R   0.613900 0.070250 0.547530 -0.064873
N4    N     N_R   0.386100 0.929750 0.452470 -0.069446
N5    N     N_R   0.886100 0.570250 0.452470 -0.064657
N6    N     N_R   0.113900 0.429750 0.547530 -0.068910
N7    N     N_R   0.113900 0.570250 0.547530 -0.064873
N8    N     N_R   0.886100 0.429750 0.452470 -0.069446
N9    N     N_R   0.437800 0.869550 0.507970 -0.120831
N10   N     N_R   0.562200 0.130450 0.492030 -0.138447
N11   N     N_R   0.562200 0.869550 0.492030 -0.120868
N12   N     N_R   0.374620 0.071720 0.290660 -0.061642
N13   N     N_R   0.437800 0.130450 0.507970 -0.138535
N14   N     N_R   0.937800 0.369550 0.507970 -0.120831
N15   N     N_R   0.062200 0.630450 0.492030 -0.138447
N16   N     N_R   0.062200 0.369550 0.492030 -0.120868
N17   N     N_R   0.937800 0.630450 0.507970 -0.138535
N18   N     N_R   0.573690 0.128980 0.653840 -0.134666
N19   N     N_R   0.426310 0.871020 0.346160 -0.099039
N20   N     N_R   0.426310 0.128980 0.346160 -0.134071
N21   N     N_R   0.573690 0.871020 0.653840 -0.099429
N22   N     N_R   0.073690 0.628980 0.653840 -0.134666
N23   N     N_R   0.374620 0.928280 0.290660 -0.058348
N24   N     N_R   0.926310 0.371020 0.346160 -0.099039
N25   N     N_R   0.926310 0.628980 0.346160 -0.134071
N26   N     N_R   0.073690 0.371020 0.653840 -0.099429
N27   N     N_R   0.625380 0.071720 0.709340 -0.061778
N28   N     N_R   0.125380 0.428280 0.709340 -0.058344
N29   N     N_R   0.874620 0.571720 0.290660 -0.061642
N30   N     N_R   0.874620 0.428280 0.290660 -0.058348
N31   N     N_R   0.125380 0.571720 0.709340 -0.061778
N32   N     N_R   0.386100 0.070250 0.452470 -0.064657
Ni1   Ni    Ni4+2 0.616560 0.000000 0.627280 0.178812
Ni2   Ni    Ni4+2 0.383440 0.000000 0.372720 0.178961
Ni3   Ni    Ni4+2 0.116560 0.500000 0.627280 0.178812
Ni4   Ni    Ni4+2 0.883440 0.500000 0.372720 0.178961
Ni5   Ni    Ni4+2 0.497990 0.870580 0.500000 0.331207
Ni6   Ni    Ni4+2 0.502010 0.129420 0.500000 0.205763
Ni7   Ni    Ni4+2 0.997990 0.370580 0.500000 0.331207
Ni8   Ni    Ni4+2 0.002010 0.629420 0.500000 0.205763
O1    O     O_3   0.928926 0.817701 0.805833 -0.571698
O2    O     O_3   0.555159 0.251781 0.422214 -0.548644
O3    O     O_3   0.555858 0.737582 0.445761 -0.539240
O4    O     O_3   0.445138 0.251759 0.578425 -0.548322
O5    O     O_3   0.944174 0.237650 0.554138 -0.539140
O6    O     O_3   0.055160 0.751781 0.422215 -0.548645
O7    O     O_3   0.055858 0.237582 0.445761 -0.539240
O8    O     O_3   0.945138 0.751759 0.578425 -0.548321
O9    O     O_3   0.576564 0.257571 0.710976 -0.558940
O10   O     O_3   0.421463 0.737057 0.359954 -0.559460
O11   O     O_3   0.423835 0.257374 0.289344 -0.558307
O12   O     O_3   0.224797 0.047891 0.591538 -0.587759
O13   O     O_3   0.577945 0.737021 0.638933 -0.558904
O14   O     O_3   0.076564 0.757571 0.710976 -0.558940
O15   O     O_3   0.921463 0.237057 0.359954 -0.559459
O16   O     O_3   0.923835 0.757374 0.289344 -0.558306
O17   O     O_3   0.077945 0.237021 0.638933 -0.558903
O18   O     O_3   0.071127 0.817331 0.194465 -0.571523
O19   O     O_3   0.775678 0.047948 0.409144 -0.587784
O20   O     O_3   0.428926 0.317701 0.805833 -0.571698
O21   O     O_3   0.724798 0.547891 0.591538 -0.587759
O22   O     O_3   0.571127 0.317331 0.194464 -0.571523
O23   O     O_3   0.275678 0.547948 0.409144 -0.587782
O24   O     O_3   0.444174 0.737650 0.554138 -0.539142

loop_
_geom_bond_atom_site_label_1
_geom_bond_atom_site_label_2
_ccdc_geom_bond_type
N8    Ni4   S    
C46   H53   S    
C38   H104  S    
C10   H32   S    
C20   C144  S    
C41   H113  S    
N1    Ni1   S    
C43   O9    S    
C37   O3    S    
C38   O4    S    
C29   H78   S    
C6    C25   S    
C25   C130  S    
C61   C80   A    
N30   Ni4   S    
N3    N10   A    
N4    Ni2   S    
C122  O16   S    
C69   O12   S    
C34   H94   S    
C112  N30   A    
C3    C19   S    
C50   H19   S    
C98   N32   A    
C43   H119  S    
C88   C97   A    
C82   H57   S    
C101  C130  A    
N17   Ni8   S    
C44   H5    S    
C107  O24   S    
C45   H8    S    
C115  O8    S    
C31   H82   S    
C11   C20   S    
C100  N3    A    
C123  N31   A    
C70   C93   A    
C17   C127  S    
C55   C133  S    
C60   C76   A    
C82   C91   A    
N19   N23   A    
C44   O10   S    
N22   N31   A    
C38   H102  S    
C36   O2    S    
C7    C53   S    
C104  N6    A    
C14   C35   S    
C90   N28   A    
C16   C25   S    
C34   O24   S    
C48   H12   S    
C5    C46   S    
C27   H71   S    
C8    C17   S    
C64   C94   A    
C2    C22   S    
C113  N15   A    
C91   C94   A    
C11   C13   S    
C114  N16   A    
C79   H55   S    
C116  N18   A    
C84   C93   A    
C30   H81   S    
C86   C95   A    
C120  N22   A    
N23   Ni2   S    
C5    C21   S    
N12   N20   A    
C114  O7    S    
C6    C52   S    
N5    Ni4   S    
C60   C138  S    
N6    Ni3   S    
C105  C140  A    
C63   C95   A    
C123  C132  A    
C109  C135  A    
C33   H89   S    
C40   H108  S    
C84   H59   S    
N25   Ni8   S    
N24   N30   A    
C49   H18   S    
C109  N11   A    
N5    N17   A    
C32   H85   S    
C99   H2    S    
C13   C23   S    
C13   C144  S    
C65   O22   S    
C18   C128  S    
C90   C129  A    
N12   Ni2   S    
C71   C92   A    
C51   O17   S    
C112  H88   S    
C64   C73   A    
C55   C81   A    
N32   Ni2   S    
C15   H37   S    
C112  C131  A    
C56   C75   A    
C3    C24   S    
C69   C89   A    
C116  O9    S    
C99   N2    A    
C92   C97   A    
C111  O5    S    
C27   H69   S    
C44   H4    S    
C49   H16   S    
C12   C46   S    
C79   N27   A    
N27   Ni1   S    
C5    H45   S    
C117  O10   S    
C10   C24   S    
C12   H35   S    
C31   H83   S    
C65   C74   A    
C73   F1    S    
C100  H13   S    
C102  C137  A    
N7    N15   A    
C30   H79   S    
C51   H22   S    
C19   C125  S    
C106  H29   S    
C5    C9    S    
C39   H106  S    
C4    C22   S    
C40   H109  S    
C98   H110  S    
C76   F6    S    
C28   H72   S    
N24   Ni7   S    
N22   Ni8   S    
N1    N21   A    
N28   Ni3   S    
C61   C141  S    
C33   H91   S    
C124  N26   A    
C58   C74   A    
C50   O16   S    
C27   O12   S    
C26   H67   S    
C57   H33   S    
C62   C78   A    
C41   H112  S    
N2    N11   A    
C28   H73   S    
C70   O18   S    
C32   H87   S    
C122  N25   A    
C14   C22   S    
N21   Ni5   S    
C58   C83   A    
C56   C137  S    
C48   H15   S    
C7    C23   S    
C54   C135  S    
C108  O2    S    
C111  N14   A    
C81   H58   S    
N8    N14   A    
C90   H66   S    
C111  C141  A    
C9    C18   S    
C36   H95   S    
C29   H75   S    
C50   H20   S    
C29   H76   S    
C62   C140  S    
C42   H115  S    
C51   H25   S    
C3    C16   S    
C100  C136  A    
C80   F7    S    
C24   H51   S    
C113  O6    S    
C88   H63   S    
N19   Ni5   S    
C11   H34   S    
C119  N21   A    
C45   H7    S    
C40   O6    S    
C98   C133  A    
N6    N16   A    
C50   H21   S    
C15   C53   S    
C74   F4    S    
N9    Ni5   S    
C40   H111  S    
C35   H52   S    
C104  H27   S    
C37   H98   S    
C68   N23   A    
C42   O8    S    
C53   H56   S    
C13   H50   S    
C23   C129  S    
C21   C131  S    
C69   C77   A    
C19   C52   S    
C29   O19   S    
N15   Ni8   S    
N16   Ni7   S    
C83   H60   S    
C81   C89   A    
C38   H103  S    
C4    C35   S    
C117  N19   A    
C26   H65   S    
C71   O19   S    
C118  N20   A    
C41   H114  S    
C2    H49   S    
N26   N28   A    
C18   C46   S    
C56   C84   A    
C26   O1    S    
C45   H6    S    
C32   O22   S    
C103  C138  A    
C77   F5    S    
N13   N32   A    
C75   F3    S    
C34   H92   S    
C107  C137  A    
C134  H48   S    
C20   C126  S    
C9    H31   S    
N26   Ni7   S    
C134  C142  S    
C54   C73   A    
C14   H36   S    
C64   O21   S    
N3    Ni1   S    
C59   C139  S    
C124  O17   S    
C34   H93   S    
C67   C91   A    
C36   H97   S    
C99   C135  A    
C68   H44   S    
C51   H23   S    
C66   O23   S    
C117  C127  A    
C68   C127  A    
C43   H120  S    
C16   H38   S    
C119  C125  A    
N18   Ni6   S    
C37   H101  S    
C63   O20   S    
C21   C134  S    
C54   C82   A    
C106  C141  A    
C66   C96   A    
C31   H84   S    
C8    H30   S    
C14   C143  S    
C2    C8    S    
C16   C52   S    
C20   C53   S    
C6    C10   S    
C60   C85   A    
N11   Ni5   S    
C37   H100  S    
C62   C87   A    
C104  C139  A    
C17   C143  S    
C103  H26   S    
C49   H17   S    
C118  O11   S    
C110  N13   A    
C32   H86   S    
C47   H11   S    
C72   F2    S    
C66   C75   A    
C12   C142  S    
C124  C129  A    
C31   O21   S    
C39   O5    S    
C59   C86   A    
C47   H9    S    
C48   H14   S    
C63   C72   A    
N4    N9    A    
C101  H77   S    
C17   C35   S    
C85   H62   S    
N2    Ni1   S    
C4    H43   S    
C120  O14   S    
C79   C128  A    
C89   C95   A    
C70   C78   A    
C30   O20   S    
C4    C8    S    
C59   C77   A    
C78   F8    S    
C7    C11   S    
C83   C92   A    
C52   H54   S    
C1    C125  A    
C108  C136  A    
C57   N12   A    
N13   Ni6   S    
C41   O7    S    
C102  H24   S    
C30   H80   S    
C43   H118  S    
C39   H105  S    
N7    Ni3   S    
C67   O1    S    
C48   O14   S    
C115  N17   A    
C143  H40   S    
C10   C19   S    
C101  N29   A    
C55   C72   A    
C9    C134  S    
C15   C23   S    
C109  O3    S    
C2    C143  S    
C47   H10   S    
C110  O4    S    
C33   H90   S    
C107  N9    A    
C121  C131  A    
N10   Ni6   S    
C71   C80   A    
C3    H42   S    
C26   H68   S    
C18   C142  S    
C24   C25   S    
C49   O15   S    
C28   H74   S    
C57   C126  A    
C6    H46   S    
C121  O15   S    
N31   Ni3   S    
C144  H41   S    
N29   Ni4   S    
C58   C136  S    
C119  O13   S    
C12   C21   S    
C1    H1    S    
C123  H99   S    
C61   C88   A    
C85   C94   A    
C115  C138  A    
C87   H64   S    
C28   O18   S    
C87   C96   A    
C113  C140  A    
C114  C139  A    
C39   H107  S    
C93   C96   A    
C36   H96   S    
C105  N7    A    
C106  N8    A    
C103  N5    A    
C105  H28   S    
C42   H116  S    
C108  N10   A    
C47   O13   S    
C27   H70   S    
N25   N29   A    
C22   C132  S    
C120  C132  A    
C44   H3    S    
C1    N1    A    
N18   N27   A    
C45   O11   S    
N14   Ni7   S    
C42   H117  S    
C86   H61   S    
C65   C97   A    
C142  H39   S    
C7    H47   S    
N20   Ni6   S    
C15   C144  S    
C116  C128  A    
C121  N24   A    
C33   O23   S    
C110  C133  A    
C67   C76   A    
C118  C126  A    
C102  N4    A    
C122  C130  A    
