data_mof_unit_37956.cif
_audit_creation_date              2012-12-10T19:24:55-0500
_audit_creation_method            fapswitch 2.2
_symmetry_space_group_name_H-M    P1
_symmetry_Int_Tables_number       1
_space_group_crystal_system       triclinic
_cell_length_a                    15.703102
_cell_length_b                    10.485372
_cell_length_c                    9.759733
_cell_angle_alpha                 90.482246
_cell_angle_beta                  89.995944
_cell_angle_gamma                 89.300112
_cell_volume                      1606.79117968

loop_
_atom_site_label
_atom_site_type_symbol
_atom_type_description
_atom_site_fract_x
_atom_site_fract_y
_atom_site_fract_z
_atom_type_partial_charge
C1    C     C_R   0.501043 0.257657 0.499402 0.876033
C2    C     C_R   0.498955 0.742343 0.500598 0.876033
C3    C     C_3   0.571206 0.955450 0.442034 0.055991
C4    C     C_3   0.428791 0.044548 0.557963 0.055998
C5    C     C_3   0.499052 0.877302 0.501458 -0.013037
C6    C     C_3   0.500946 0.122697 0.498541 -0.013034
C7    C     C_3   0.495453 0.960714 0.631324 -0.197142
C8    C     C_3   0.504544 0.039285 0.368675 -0.197135
C9    C     C_3   0.459174 0.403226 0.047770 -0.084634
C10   C     C_3   0.540826 0.596774 0.952230 -0.084624
C11   C     C_3   0.535928 0.397617 0.950373 -0.075182
C12   C     C_3   0.464072 0.602383 0.049627 -0.075167
C13   C     C_3   0.423169 0.505635 0.951570 -0.066065
C14   C     C_3   0.576831 0.494365 0.048430 -0.066050
C15   C     C_R   0.338068 0.499787 0.500015 0.904717
C16   C     C_R   0.661932 0.500212 0.499985 0.904725
C17   C     C_3   0.972799 0.383687 0.536956 -0.244070
C18   C     C_3   0.027201 0.616290 0.463052 -0.244081
C19   C     C_3   0.028799 0.412528 0.411400 0.337429
C20   C     C_3   0.971202 0.587449 0.588607 0.337415
C21   C     C_1   0.249129 0.499991 0.500219 -0.154881
C22   C     C_1   0.750871 0.499999 0.499782 -0.154884
C23   C     C_3   0.028372 0.472518 0.626911 -0.230637
C24   C     C_3   0.971628 0.527458 0.373096 -0.230651
C25   C     C_3   0.082897 0.500429 0.500445 0.088998
C26   C     C_3   0.917103 0.499548 0.499562 0.088993
C27   C     C_1   0.173789 0.500290 0.500480 0.003829
C28   C     C_1   0.826212 0.499693 0.499524 0.003811
C29   C     C_3   0.568456 0.041027 0.571183 -0.244045
C30   C     C_3   0.431542 0.958971 0.428815 -0.244039
H1    H     H_    0.948900 0.288478 0.566146 0.172483
H2    H     H_    0.051100 0.711499 0.433861 0.172485
H3    H     H_    0.946789 0.548546 0.269162 0.168999
H4    H     H_    0.053212 0.451430 0.730844 0.168997
H5    H     H_    0.623281 0.080572 0.628632 0.139325
H6    H     H_    0.376720 0.919423 0.371362 0.139316
H7    H     H_    0.491118 0.924668 0.737736 0.145318
H8    H     H_    0.508878 0.075332 0.262263 0.145314
H9    H     H_    0.566058 0.311332 0.903662 0.120323
H10   H     H_    0.433942 0.688668 0.096338 0.120322
H11   H     H_    0.424859 0.321674 0.092868 0.121001
H12   H     H_    0.575141 0.678326 0.907132 0.120992
H13   H     H_    0.358416 0.510294 0.906120 0.133251
H14   H     H_    0.641584 0.489706 0.093880 0.133256
N1    N     N_3   0.499940 0.500030 0.863290 -0.072350
N2    N     N_3   0.500060 0.499970 0.136710 -0.072350
O1    O     O_R   0.500000 0.313960 0.616610 -0.628457
O2    O     O_R   0.500000 0.686040 0.383390 -0.628443
O3    O     O_R   0.500040 0.313950 0.383350 -0.625159
O4    O     O_R   0.499960 0.686050 0.616650 -0.625161
O5    O     O_R   0.376760 0.499990 0.616610 -0.615466
O6    O     O_R   0.623240 0.500010 0.383390 -0.615461
O7    O     O_R   0.376790 0.499980 0.383350 -0.608316
O8    O     O_R   0.623210 0.500020 0.616650 -0.608315
Zn1   Zn    Zn3+2 0.499980 0.500010 0.655740 0.947356
Zn2   Zn    Zn3+2 0.500020 0.499990 0.344260 0.947366
Br1   Br    Br    0.072569 0.286328 0.282676 -0.558135
Br2   Br    Br    0.927433 0.713648 0.717334 -0.558149
C31   C     C_R   0.648837 0.896426 0.375111 0.087415
C32   C     C_R   0.727650 0.893965 0.443182 -0.149508
C33   C     C_R   0.798413 0.834408 0.382068 -0.107755
C34   C     C_R   0.790971 0.776863 0.253043 -0.101283
C35   C     C_R   0.712798 0.778876 0.184724 -0.122821
C36   C     C_R   0.641961 0.838456 0.245320 -0.120358
H15   H     H_    0.734372 0.936508 0.543914 0.144298
H16   H     H_    0.858981 0.832350 0.434938 0.172550
H17   H     H_    0.845743 0.730715 0.206027 0.141846
H18   H     H_    0.707055 0.734094 0.084893 0.131778
H19   H     H_    0.581643 0.838627 0.191501 0.126351
C37   C     C_R   0.351155 0.103563 0.624878 0.087394
C38   C     C_R   0.272335 0.105961 0.556823 -0.149484
C39   C     C_R   0.201563 0.165501 0.617928 -0.107725
C40   C     C_R   0.209002 0.223092 0.746930 -0.101289
C41   C     C_R   0.287181 0.221140 0.815234 -0.122826
C42   C     C_R   0.358026 0.161576 0.754647 -0.120378
H20   H     H_    0.265614 0.063379 0.456110 0.144282
H21   H     H_    0.140991 0.167509 0.565069 0.172540
H22   H     H_    0.154223 0.269226 0.793940 0.141846
H23   H     H_    0.292921 0.265957 0.915047 0.131785
H24   H     H_    0.418348 0.161449 0.808457 0.126385

loop_
_geom_bond_atom_site_label_1
_geom_bond_atom_site_label_2
_ccdc_geom_bond_type
C7    C29   S    
C10   H12   S    
C40   C41   A    
C4    C37   S    
C14   N2    S    
C19   Br1   S    
C31   C36   A    
C34   C35   A    
C34   H17   S    
C18   C24   S    
C17   C26   S    
C15   O7    A    
O1    Zn1   S    
C24   C26   S    
C38   H20   S    
C11   C14   S    
C3    C29   S    
C9    C13   S    
C2    O4    A    
C35   H18   S    
C33   H16   S    
C40   H22   S    
C37   C38   A    
C15   O5    A    
C42   H24   S    
O5    Zn1   S    
C21   C27   T    
C9    N2    S    
C22   C28   T    
C18   C25   S    
C8    H8    S    
C4    C7    S    
C41   C42   A    
C1    C6    S    
C16   O6    A    
C12   N2    S    
C3    C8    S    
C10   C14   S    
C5    C7    S    
C1    O1    A    
C6    C8    S    
C2    O2    A    
C32   C33   A    
C12   H10   S    
C39   H21   S    
C20   C23   S    
C15   C21   S    
C23   H4    S    
C10   N1    S    
C7    H7    S    
C17   C23   S    
C36   H19   S    
C11   H9    S    
C9    C11   S    
C10   C12   S    
C4    C6    S    
C32   H15   S    
C41   H23   S    
C17   H1    S    
C11   N1    S    
C2    C5    S    
C18   H2    S    
C20   Br2   S    
C13   H13   S    
C14   H14   S    
C5    C30   S    
O7    Zn2   S    
O2    Zn2   S    
O8    Zn1   S    
C16   C22   S    
C9    H11   S    
C24   H3    S    
C39   C40   A    
C3    C5    S    
C25   C27   S    
O3    Zn2   S    
C29   H5    S    
C26   C28   S    
O4    Zn1   S    
C30   H6    S    
C8    C30   S    
C19   C24   S    
C38   C39   A    
C13   N1    S    
C20   C26   S    
C17   C19   S    
C18   C20   S    
C23   C25   S    
C33   C34   A    
C19   C25   S    
C16   O8    A    
C35   C36   A    
C31   C32   A    
C6    C29   S    
C12   C13   S    
N1    Zn1   S    
N2    Zn2   S    
C37   C42   A    
C1    O3    A    
C4    C30   S    
O6    Zn2   S    
C3    C31   S    
