data_mof_unit_59433.cif
_audit_creation_date              2012-12-10T20:43:59-0500
_audit_creation_method            fapswitch 2.2
_symmetry_space_group_name_H-M    P1
_symmetry_Int_Tables_number       1
_space_group_crystal_system       triclinic
_cell_length_a                    17.316328
_cell_length_b                    10.684711
_cell_length_c                    9.855961
_cell_angle_alpha                 90.525405
_cell_angle_beta                  89.81568
_cell_angle_gamma                 89.791669
_cell_volume                      1823.45115511

loop_
_atom_site_label
_atom_site_type_symbol
_atom_type_description
_atom_site_fract_x
_atom_site_fract_y
_atom_site_fract_z
_atom_type_partial_charge
C1    C     C_R   0.500098 0.260264 0.499144 0.895995
C2    C     C_R   0.883976 0.410487 0.518843 0.006064
C3    C     C_1   0.965132 0.394853 0.512238 -0.009607
C4    C     C_1   0.033770 0.394166 0.507689 -0.061617
C5    C     C_R   0.153920 0.424368 0.627151 -0.148409
C6    C     C_R   0.231480 0.456193 0.625622 -0.181637
C7    C     C_R   0.270074 0.472275 0.501407 -0.030858
C8    C     C_R   0.230242 0.454523 0.378836 -0.204999
C9    C     C_R   0.152526 0.422787 0.380766 -0.159903
C10   C     C_R   0.114825 0.407933 0.504890 0.159994
C11   C     C_R   0.452008 0.065786 0.590405 0.129329
C12   C     C_R   0.352914 0.496092 0.500296 0.865309
C13   C     C_R   0.495558 0.128724 0.494508 -0.158029
C14   C     C_R   0.529445 0.063353 0.385845 -0.220623
C15   C     C_R   0.529674 0.934211 0.387152 -0.202220
C16   C     C_R   0.495814 0.871919 0.496912 -0.077489
C17   C     C_R   0.451339 0.938143 0.591173 0.035606
C18   C     C_3   0.447573 0.934630 0.742610 -0.564176
C19   C     C_3   0.449148 0.077036 0.741092 0.343505
C20   C     C_R   0.433223 0.519005 0.072025 0.204575
C21   C     C_R   0.564374 0.465970 0.071231 -0.139775
C22   C     C_R   0.564400 0.466101 0.927280 -0.129555
C23   C     C_R   0.499621 0.739925 0.500167 0.925759
C24   C     C_R   0.433209 0.519020 0.929424 0.185040
C25   C     C_3   0.384557 0.634025 0.925853 -0.509428
C26   C     C_3   0.384268 0.633709 0.079771 -0.492734
C27   C     C_R   0.647067 0.500595 0.499933 0.938094
C28   C     C_R   0.851118 0.480431 0.626662 0.460156
C29   C     C_R   0.775573 0.527369 0.612192 -0.156750
C30   C     C_R   0.730589 0.484230 0.501315 -0.173921
C31   C     C_R   0.763679 0.408863 0.399416 -0.210451
C32   C     C_R   0.840578 0.374731 0.406717 -0.217508
H1    H     H_    0.559899 0.883760 0.307077 0.167842
H2    H     H_    0.391504 0.896893 0.778535 0.220478
H3    H     H_    0.499938 0.892462 0.788878 0.188322
H4    H     H_    0.503022 0.118610 0.783715 0.070250
H5    H     H_    0.616733 0.442003 0.124662 0.151405
H6    H     H_    0.616794 0.442272 0.872787 0.154022
H7    H     H_    0.416526 0.713919 0.882879 0.215672
H8    H     H_    0.326793 0.616480 0.880984 0.195186
H9    H     H_    0.414990 0.714870 0.125664 0.218842
H10   H     H_    0.326388 0.614613 0.123742 0.193881
H11   H     H_    0.729789 0.375229 0.314424 0.159731
H12   H     H_    0.866543 0.321365 0.324351 0.164167
H13   H     H_    0.124055 0.415190 0.723395 0.127444
H14   H     H_    0.261108 0.467503 0.721504 0.145512
H15   H     H_    0.259013 0.464536 0.281855 0.145741
H16   H     H_    0.121543 0.412325 0.285972 0.131783
H17   H     H_    0.559461 0.111442 0.305059 0.166613
N1    N     N_R   0.499490 0.499140 0.142800 -0.107264
N2    N     N_R   0.499490 0.499180 0.857150 -0.106699
O1    O     O_R   0.500010 0.316790 0.614690 -0.625434
O2    O     O_R   0.500000 0.316760 0.385350 -0.629099
O3    O     O_R   0.389120 0.500020 0.614710 -0.617121
O4    O     O_R   0.389110 0.499990 0.385370 -0.619145
O5    O     O_R   0.500000 0.683240 0.614650 -0.594665
O6    O     O_R   0.499990 0.683210 0.385310 -0.627202
O7    O     O_R   0.610890 0.500010 0.614630 -0.613931
O8    O     O_R   0.610880 0.499980 0.385290 -0.625045
Zn1   Zn    Zn3+2 0.500010 0.500020 0.653130 0.961602
Zn2   Zn    Zn3+2 0.499990 0.499980 0.346870 0.935999
O9    O     O_3   0.895464 0.516755 0.737348 -0.610231
C33   C     C_3   0.912748 0.411758 0.819404 0.105181
H18   H     H_    0.967742 0.431570 0.873082 0.157654
H19   H     H_    0.922606 0.323692 0.760308 0.118427
C34   C     C_3   0.849374 0.390910 0.925765 -0.310574
H20   H     H_    0.844883 0.474576 0.993141 0.264748
H21   H     H_    0.793012 0.376509 0.874408 0.219083
C35   C     C_3   0.866797 0.276789 0.012533 -1.000483
H22   H     H_    0.871021 0.191282 0.947936 0.276663
H23   H     H_    0.819471 0.263728 0.087299 0.263670
H24   H     H_    0.921880 0.290055 0.068227 0.265696
O10   O     O_3   0.377823 0.130596 0.782177 -0.615330
C36   C     C_3   0.384854 0.193326 0.908378 0.123650
H25   H     H_    0.336258 0.261230 0.916404 0.156965
H26   H     H_    0.438694 0.249657 0.915832 0.117974
C37   C     C_3   0.378902 0.101328 0.026323 -0.408744
H27   H     H_    0.325143 0.045544 0.016115 0.241682
H28   H     H_    0.429058 0.036153 0.023977 0.217258
C38   C     C_3   0.377821 0.170606 0.162317 -0.903840
H29   H     H_    0.431160 0.226914 0.173463 0.280243
H30   H     H_    0.374918 0.102136 0.246241 0.275841
H31   H     H_    0.326776 0.233652 0.169382 0.255722
C39   C     C_2   0.746239 0.627272 0.706214 0.962917
O11   O     O_2   0.702126 0.707646 0.664099 -0.641597
O12   O     O_R   0.770238 0.632246 0.841297 -0.798252
H32   H     H_    0.746151 0.704593 0.893771 0.337048

loop_
_geom_bond_atom_site_label_1
_geom_bond_atom_site_label_2
_ccdc_geom_bond_type
C34   H21   S    
C33   H19   S    
O10   C36   S    
C7    C8    A    
O3    Zn1   S    
C37   H27   S    
C11   C19   S    
C29   C30   A    
C31   H11   S    
C28   C29   A    
C39   O12   S    
C19   H4    S    
C25   H8    S    
C5    C6    A    
C14   H17   S    
O7    Zn1   S    
C15   C16   A    
C22   H6    S    
C2    C32   A    
C18   C19   S    
C35   H23   S    
C1    O2    A    
C20   N1    A    
O1    Zn1   S    
O2    Zn2   S    
C20   C24   A    
C16   C17   A    
C36   C37   S    
C9    C10   A    
C24   N2    A    
C34   H20   S    
C33   C34   S    
C13   C14   A    
C27   C30   S    
C38   H31   S    
C21   N1    A    
C37   H28   S    
C7    C12   S    
O8    Zn2   S    
C36   H25   S    
C19   O10   S    
C39   O11   D    
C29   C39   S    
C38   H30   S    
O12   H32   S    
C8    C9    A    
C25   C26   S    
C5    H13   S    
O5    Zn1   S    
C35   H24   S    
O9    C33   S    
C31   C32   A    
C17   C18   S    
C32   H12   S    
C24   C25   S    
C18   H2    S    
C23   O5    A    
C36   H26   S    
C16   C23   S    
C1    C13   S    
C4    C10   S    
C3    C4    T    
C26   H10   S    
C18   H3    S    
C37   C38   S    
C23   O6    A    
C11   C17   A    
C6    H14   S    
C38   H29   S    
C27   O7    A    
O6    Zn2   S    
C6    C7    A    
C2    C3    S    
C8    H15   S    
C5    C10   A    
C27   O8    A    
C25   H7    S    
C11   C13   A    
C30   C31   A    
C20   C26   S    
O4    Zn2   S    
C35   H22   S    
C1    O1    A    
C12   O4    A    
C33   H18   S    
C34   C35   S    
C21   H5    S    
C9    H16   S    
N1    Zn2   S    
C14   C15   A    
C2    C28   A    
N2    Zn1   S    
C21   C22   A    
C15   H1    S    
C12   O3    A    
C26   H9    S    
C22   N2    A    
C28   O9    S    
