data_mof_unit_39417.cif
_audit_creation_date              2012-12-10T20:32:40-0500
_audit_creation_method            fapswitch 2.2
_symmetry_space_group_name_H-M    P1
_symmetry_Int_Tables_number       1
_space_group_crystal_system       triclinic
_cell_length_a                    11.541456
_cell_length_b                    10.692234
_cell_length_c                    9.903202
_cell_angle_alpha                 89.420392
_cell_angle_beta                  90.688446
_cell_angle_gamma                 90.572653
_cell_volume                      1221.8839105

loop_
_atom_site_label
_atom_site_type_symbol
_atom_type_description
_atom_site_fract_x
_atom_site_fract_y
_atom_site_fract_z
_atom_type_partial_charge
C1    C     C_R   0.503927 0.259857 0.500393 0.870091
C2    C     C_R   0.524128 0.128441 0.499693 -0.105461
C3    C     C_R   0.534455 0.066065 0.376211 -0.221508
C4    C     C_R   0.535339 0.936729 0.375425 -0.213249
C5    C     C_R   0.525982 0.871108 0.498129 -0.101997
C6    C     C_R   0.539856 0.934319 0.619440 0.122543
C7    C     C_3   0.473109 0.922948 0.747208 -0.469875
C8    C     C_3   0.471402 0.064390 0.748039 -0.498590
C9    C     C_R   0.403560 0.463236 0.070119 0.278135
C10   C     C_R   0.589020 0.551507 0.073892 -0.123012
C11   C     C_R   0.588500 0.554924 0.930050 -0.013979
C12   C     C_R   0.281996 0.499844 0.499370 0.906044
C13   C     C_R   0.404014 0.462500 0.928064 0.199720
C14   C     C_3   0.344988 0.338429 0.922509 -0.571182
C15   C     C_3   0.343883 0.338509 0.076343 -0.275699
C16   C     C_R   0.504804 0.739883 0.499357 0.870667
C17   C     C_R   0.718015 0.500119 0.500657 0.893455
C18   C     C_1   0.161513 0.499786 0.498446 -0.141401
C19   C     C_1   0.059333 0.499810 0.499264 0.037655
C20   C     C_1   0.940682 0.499936 0.500960 0.028501
C21   C     C_1   0.838499 0.500051 0.501717 -0.158338
C22   C     C_R   0.538854 0.062126 0.620365 0.152482
H1    H     H_    0.532888 0.115698 0.280318 0.170510
H2    H     H_    0.402383 0.266693 0.881713 0.205543
H3    H     H_    0.398728 0.264955 0.123946 0.140351
H4    H     H_    0.533978 0.889312 0.279249 0.175633
H5    H     H_    0.385811 0.879903 0.732270 0.215427
H6    H     H_    0.525703 0.881910 0.831050 0.198571
H7    H     H_    0.382919 0.102670 0.732708 0.204337
H8    H     H_    0.523122 0.104322 0.832917 0.206219
H9    H     H_    0.660262 0.592655 0.130557 0.196874
H10   H     H_    0.258256 0.344206 0.872710 0.214579
N1    N     N_R   0.499240 0.499140 0.142800 -0.150644
N2    N     N_R   0.499240 0.499180 0.857150 -0.154493
O1    O     O_R   0.500010 0.316790 0.614690 -0.611645
O2    O     O_R   0.500000 0.316760 0.385350 -0.630412
O3    O     O_R   0.334450 0.500030 0.614670 -0.615136
O4    O     O_R   0.334440 0.500000 0.385330 -0.570375
O5    O     O_R   0.500000 0.683240 0.614650 -0.648109
O6    O     O_R   0.499990 0.683210 0.385310 -0.618829
O7    O     O_R   0.665560 0.500000 0.614670 -0.632186
O8    O     O_R   0.665550 0.499970 0.385330 -0.611322
Zn1   Zn    Zn3+2 0.500010 0.500020 0.653130 0.939517
Zn2   Zn    Zn3+2 0.499990 0.499980 0.346870 0.967066
C23   C     C_2   0.222852 0.341507 0.131618 0.468065
H11   H     H_    0.174120 0.254672 0.141167 0.055477
O9    O     O_2   0.177933 0.439518 0.164079 -0.543981
C24   C     C_2   0.682444 0.625024 0.862457 0.427193
H12   H     H_    0.667292 0.671600 0.766853 0.114789
O10   O     O_2   0.778017 0.635364 0.915672 -0.578021

loop_
_geom_bond_atom_site_label_1
_geom_bond_atom_site_label_2
_ccdc_geom_bond_type
O3    Zn1   S    
C17   O8    A    
C8    C22   S    
O4    Zn2   S    
C6    C7    S    
O1    Zn1   S    
C3    H1    S    
C19   C20   S    
C8    H8    S    
C2    C22   A    
C24   O10   D    
C2    C3    A    
C9    C15   S    
C7    C8    S    
C13   C14   S    
C9    N1    A    
O7    Zn1   S    
C11   C24   S    
O8    Zn2   S    
C16   O6    A    
C8    H7    S    
C24   H12   S    
C18   C19   T    
C10   N1    A    
C23   O9    D    
C12   O4    A    
C5    C6    A    
C17   O7    A    
C4    H4    S    
C15   H3    S    
O2    Zn2   S    
C10   C11   A    
N2    Zn1   S    
C16   O5    A    
C12   C18   S    
C3    C4    A    
C6    C22   A    
O6    Zn2   S    
C7    H5    S    
C20   C21   T    
C1    O1    A    
C1    C2    S    
O5    Zn1   S    
C14   H2    S    
C12   O3    A    
C9    C13   A    
C14   C15   S    
C5    C16   S    
C13   N2    A    
C23   H11   S    
N1    Zn2   S    
C10   H9    S    
C11   N2    A    
C17   C21   S    
C7    H6    S    
C1    O2    A    
C14   H10   S    
C4    C5    A    
C15   C23   S    
