data_mof_unit_28842.cif
_audit_creation_date              2012-12-10T17:07:44-0500
_audit_creation_method            fapswitch 2.2
_symmetry_space_group_name_H-M    P1
_symmetry_Int_Tables_number       1
_space_group_crystal_system       triclinic
_cell_length_a                    10.641599
_cell_length_b                    10.705889
_cell_length_c                    10.031505
_cell_angle_alpha                 90.242934
_cell_angle_beta                  89.978288
_cell_angle_gamma                 90.097745
_cell_volume                      1142.85505641

loop_
_atom_site_label
_atom_site_type_symbol
_atom_type_description
_atom_site_fract_x
_atom_site_fract_y
_atom_site_fract_z
_atom_type_partial_charge
C1    C     C_R   0.499349 0.262577 0.499567 0.940893
C2    C     C_2   0.566822 0.576493 0.075302 -0.193733
C3    C     C_R   0.257896 0.502113 0.499783 0.862905
C4    C     C_R   0.506038 0.737227 0.500279 0.926278
C5    C     C_R   0.742150 0.503077 0.499951 0.898731
C6    C     C_3   0.073919 0.373997 0.546647 -0.488660
C7    C     C_3   0.929060 0.373243 0.541787 0.302324
C8    C     C_3   0.073183 0.607796 0.593266 -0.391616
C9    C     C_3   0.072288 0.528220 0.355613 -0.421606
C10   C     C_3   0.121706 0.503028 0.499026 0.056547
C11   C     C_3   0.696450 0.736546 0.870772 0.055039
C12   C     C_3   0.878534 0.505235 0.499513 -0.026692
C13   C     C_3   0.715894 0.859849 0.945650 -0.326282
C14   C     C_3   0.853698 0.899547 0.944410 -0.900734
C15   C     C_3   0.890664 0.370724 0.778894 0.158512
C16   C     C_3   0.896635 0.268483 0.884491 -0.319843
C17   C     C_3   0.906985 0.323903 0.024576 -0.961812
C18   C     C_3   0.929070 0.610510 0.592325 -0.406264
C19   C     C_3   0.928890 0.532243 0.355166 0.188525
C20   C     C_2   0.527281 0.932728 0.388113 -0.133521
C21   C     C_2   0.526600 0.868249 0.501622 -0.318139
C22   C     C_2   0.533389 0.067217 0.390888 -0.153832
C23   C     C_2   0.494763 0.130398 0.498364 -0.314030
C24   C     C_2   0.546371 0.590420 0.926697 0.556326
Cl1   Cl    Cl    0.875594 0.678857 0.287849 -0.686290
Cl2   Cl    Cl    0.524905 0.348508 0.904911 -0.608871
H1    H     H_    0.111358 0.351541 0.646898 0.197174
H2    H     H_    0.424001 0.461063 0.103608 0.212920
H3    H     H_    0.905069 0.310255 0.456769 0.099255
H4    H     H_    0.106684 0.592536 0.696975 0.184469
H5    H     H_    0.892854 0.602905 0.695292 0.140864
H6    H     H_    0.112106 0.617634 0.317949 0.230234
H7    H     H_    0.103866 0.452914 0.286325 0.160816
H8    H     H_    0.894810 0.458533 0.285339 0.125219
H9    H     H_    0.726666 0.749462 0.765715 0.166148
H10   H     H_    0.758732 0.663134 0.914117 0.112654
H11   H     H_    0.658488 0.934050 0.898158 0.237668
H12   H     H_    0.110209 0.700037 0.560492 0.184166
H13   H     H_    0.684324 0.849586 0.050627 0.233992
H14   H     H_    0.912834 0.827336 0.992784 0.291327
H15   H     H_    0.864676 0.988707 0.000182 0.268636
H16   H     H_    0.886421 0.913720 0.840375 0.253678
H17   H     H_    0.810160 0.432105 0.803931 0.182257
H18   H     H_    0.977926 0.426823 0.785473 0.116834
H19   H     H_    0.810345 0.209987 0.878668 0.262547
H20   H     H_    0.979287 0.207749 0.864925 0.219191
H21   H     H_    0.993452 0.381606 0.033664 0.261813
H22   H     H_    0.911429 0.247404 0.098818 0.265450
H23   H     H_    0.896476 0.703394 0.557446 0.220141
H24   H     H_    0.823650 0.382789 0.047026 0.287450
H25   H     H_    0.520340 0.887261 0.291312 0.180792
H26   H     H_    0.543915 0.910832 0.598215 0.165068
H27   H     H_    0.565607 0.114520 0.301461 0.187835
H28   H     H_    0.456561 0.086404 0.586693 0.159217
H29   H     H_    0.633344 0.637776 0.124765 0.195935
H30   H     H_    0.110860 0.299547 0.479333 0.147948
N1    N     N_2   0.501360 0.501330 0.852150 -0.000110
N2    N     N_2   0.501390 0.501360 0.147810 -0.184276
O1    O     O_R   0.499980 0.319060 0.613040 -0.544876
O2    O     O_3   0.869393 0.314426 0.652749 -0.621241
O3    O     O_R   0.500020 0.319100 0.386900 -0.616107
O4    O     O_R   0.314770 0.499960 0.613070 -0.616264
O5    O     O_R   0.314820 0.500000 0.386930 -0.634060
O6    O     O_R   0.499980 0.680900 0.613100 -0.584643
O7    O     O_R   0.500020 0.680940 0.386960 -0.609921
O8    O     O_R   0.685180 0.500000 0.613070 -0.615193
O9    O     O_R   0.685230 0.500040 0.386930 -0.598454
O10   O     O_3   0.566903 0.706094 0.869587 -0.638189
Zn1   Zn    Zn3+2 0.499970 0.499970 0.650990 1.044048
Zn2   Zn    Zn3+2 0.500030 0.500030 0.349010 0.973433

loop_
_geom_bond_atom_site_label_1
_geom_bond_atom_site_label_2
_ccdc_geom_bond_type
C16   H19   S    
C6    C10   S    
C17   H24   S    
C17   H22   S    
C6    C7    S    
C7    H3    S    
H2    N2    S    
C22   H27   S    
C23   H28   S    
C9    C10   S    
C4    O6    A    
C13   H11   S    
C6    H1    S    
O5    Zn2   S    
C14   H16   S    
C5    O9    A    
O9    Zn2   S    
C8    H4    S    
C2    N2    D    
C15   H17   S    
O3    Zn2   S    
C13   C14   S    
C11   O10   S    
C9    H7    S    
C4    C21   S    
C11   C13   S    
C4    O7    A    
C8    H12   S    
O1    Zn1   S    
C14   H15   S    
C12   C19   S    
C11   H9    S    
C11   H10   S    
C20   C22   S    
C15   H18   S    
C1    C23   S    
C20   H25   S    
C3    O5    A    
C2    H29   S    
C1    O1    A    
C2    C24   S    
C7    C12   S    
C19   Cl1   S    
Cl2   N1    S    
C13   H13   S    
O8    Zn1   S    
C16   C17   S    
C24   O10   S    
C14   H14   S    
C15   C16   S    
C17   H21   S    
C7    O2    S    
C1    O3    A    
C20   C21   D    
C18   H23   S    
C5    C12   S    
C8    C10   S    
C15   O2    S    
C3    O4    A    
C16   H20   S    
C3    C10   S    
C22   C23   D    
N2    Zn2   S    
C5    O8    A    
C18   H5    S    
C9    H6    S    
N1    Zn1   S    
O6    Zn1   S    
C9    C19   S    
C21   H26   S    
C8    C18   S    
O7    Zn2   S    
O4    Zn1   S    
C6    H30   S    
C24   N1    D    
C19   H8    S    
C12   C18   S    
