data_mof_unit_17208.cif
_audit_creation_date              2012-12-10T17:37:19-0500
_audit_creation_method            fapswitch 2.2
_symmetry_space_group_name_H-M    P1
_symmetry_Int_Tables_number       1
_space_group_crystal_system       triclinic
_cell_length_a                    12.467047
_cell_length_b                    13.817726
_cell_length_c                    15.796531
_cell_angle_alpha                 72.64184
_cell_angle_beta                  101.214588
_cell_angle_gamma                 117.985821
_cell_volume                      2288.76731471

loop_
_atom_site_label
_atom_site_type_symbol
_atom_type_description
_atom_site_fract_x
_atom_site_fract_y
_atom_site_fract_z
_atom_type_partial_charge
C1    C     C_R   0.852927 0.286941 0.508848 0.864162
C2    C     C_3   0.007484 0.504379 0.917073 -0.116583
C3    C     C_3   0.117240 0.581977 0.026248 -0.335975
C4    C     C_3   0.006089 0.504477 0.083735 -0.097393
C5    C     C_3   0.029718 0.608636 0.948597 0.180150
C6    C     C_3   0.920153 0.532501 0.007038 0.372408
C7    C     C_1   0.006924 0.503246 0.825408 0.154578
C8    C     C_1   0.001986 0.502972 0.175001 0.102497
C9    C     C_R   0.278456 0.035633 0.387009 0.423210
C10   C     C_R   0.231911 0.836240 0.452780 -0.240699
C11   C     C_R   0.803626 0.079721 0.558708 0.384889
C12   C     C_R   0.002272 0.501627 0.659536 0.829953
C13   C     C_R   0.729269 0.965951 0.557342 0.415697
C14   C     C_R   0.609469 0.932600 0.521237 -0.260784
C15   C     C_R   0.565710 0.012489 0.476480 0.048068
C16   C     C_R   0.644789 0.129580 0.468316 -0.089925
C17   C     C_R   0.441186 0.979162 0.444348 -0.068061
C18   C     C_R   0.403062 0.060878 0.393821 -0.103749
C19   C     C_R   0.493856 0.168214 0.359794 0.517676
C20   C     C_R   0.596468 0.205615 0.418115 0.155008
C21   C     C_R   0.356757 0.867557 0.449796 0.179113
C22   C     C_R   0.191324 0.922000 0.418681 0.322307
C23   C     C_R   0.146249 0.713526 0.480682 0.861537
C24   C     C_R   0.765668 0.164722 0.511649 -0.232822
C25   C     C_R   0.351825 0.349779 0.660730 0.325240
C26   C     C_R   0.749280 0.625627 0.366991 0.588095
C27   C     C_R   0.637735 0.627245 0.330969 0.062930
C28   C     C_R   0.535735 0.550053 0.376983 0.235363
C29   C     C_R   0.547567 0.517388 0.469767 -0.043440
C30   C     C_R   0.658686 0.511857 0.506915 0.063655
C31   C     C_R   0.446683 0.472448 0.523077 -0.142954
C32   C     C_R   0.456624 0.417038 0.612699 -0.179406
C33   C     C_R   0.570280 0.427583 0.652220 0.293542
C34   C     C_R   0.999190 0.500120 0.340396 0.765425
C35   C     C_R   0.662045 0.453322 0.599763 0.285301
C36   C     C_R   0.340617 0.490344 0.494129 0.546327
C37   C     C_R   0.246753 0.364913 0.628930 0.509426
C38   C     C_3   0.984991 0.401283 0.051654 0.323559
C39   C     C_3   0.897872 0.428680 0.976098 0.284181
C40   C     C_1   0.005328 0.502510 0.749636 -0.121305
C41   C     C_1   0.999054 0.501428 0.250470 -0.211406
C42   C     C_3   0.094313 0.477966 0.993999 0.387479
Cu1   Cu    Cu3+1 0.098270 0.475420 0.519690 1.037839
Cu2   Cu    Cu3+1 0.901730 0.524580 0.480310 1.047826
H1    H     H_    0.550516 0.843207 0.529858 0.206076
H2    H     H_    0.205755 0.644604 0.049095 0.201187
N1    N     N_R   0.246280 0.438200 0.549540 -0.284933
N2    N     N_R   0.754330 0.561180 0.450980 -0.235523
O1    O     O_R   0.972510 0.318130 0.524770 -0.507831
O2    O     O_R   0.806530 0.359650 0.491510 -0.524984
O3    O     O_R   0.082970 0.479240 0.637550 -0.561146
O4    O     O_R   0.916990 0.520750 0.604290 -0.547965
O5    O     O_R   0.193470 0.640350 0.508490 -0.539907
O6    O     O_R   0.027490 0.681870 0.475230 -0.507090
O7    O     O_R   0.083010 0.479250 0.395710 -0.591335
O8    O     O_R   0.917030 0.520760 0.362450 -0.555768
O9    O     O_3   0.787055 0.350524 0.943741 -0.538713
C43   C     C_3   0.700651 0.299174 0.008457 -0.169497
H3    H     H_    0.667642 0.358858 0.013848 0.187819
H4    H     H_    0.736198 0.264769 0.074633 0.161982
H5    H     H_    0.620969 0.227284 0.987163 0.203450
Br1   Br    Br    0.396148 0.818050 0.365303 -0.502585
O10   O     O_3   0.915635 0.107002 0.605581 -0.540947
C44   C     C_3   0.898454 0.089386 0.695697 -0.132063
H6    H     H_    0.826490 0.003781 0.723034 0.158961
H7    H     H_    0.876746 0.155116 0.704484 0.155995
H8    H     H_    0.984100 0.095768 0.735615 0.196737
O11   O     O_3   0.771321 0.886060 0.601123 -0.561363
C45   C     C_3   0.782604 0.837096 0.538634 -0.209629
H9    H     H_    0.839495 0.902452 0.483726 0.167435
H10   H     H_    0.691993 0.782297 0.511436 0.156976
H11   H     H_    0.828798 0.782689 0.572745 0.204393
Br2   Br    Br    0.542620 0.264979 0.485136 -0.493040
O12   O     O_3   0.141685 0.305409 0.674941 -0.546431
C46   C     C_3   0.164740 0.319343 0.762961 -0.198117
H12   H     H_    0.080399 0.310309 0.784684 0.159611
H13   H     H_    0.237914 0.404052 0.769212 0.167601
H14   H     H_    0.185783 0.251404 0.809110 0.197759
Br3   Br    Br    0.603323 0.409373 0.779509 -0.433517
O13   O     O_3   0.349902 0.266114 0.735843 -0.546818
C47   C     C_3   0.318474 0.166932 0.709016 -0.189515
H15   H     H_    0.387666 0.179207 0.666667 0.193634
H16   H     H_    0.226554 0.137642 0.673598 0.158444
H17   H     H_    0.315621 0.099240 0.769148 0.211533
O14   O     O_3   0.351303 0.587681 0.430413 -0.538973
C48   C     C_3   0.303415 0.569487 0.344641 -0.070321
H18   H     H_    0.247135 0.615270 0.315468 0.183948
H19   H     H_    0.248867 0.479213 0.342637 0.157771
H20   H     H_    0.376496 0.613614 0.298018 0.211205
O15   O     O_3   0.855505 0.688361 0.322107 -0.577886
C49   C     C_3   0.840244 0.674610 0.234585 -0.208371
H21   H     H_    0.832432 0.748001 0.185951 0.197178
H22   H     H_    0.762946 0.593584 0.224416 0.170915
H23   H     H_    0.924329 0.676245 0.219534 0.181242
O16   O     O_3   0.963264 0.296583 0.112490 -0.579960
C50   C     C_3   0.951424 0.218010 0.067190 -0.254484
H24   H     H_    0.038720 0.241719 0.040472 0.192383
H25   H     H_    0.877964 0.207272 0.013124 0.194554
H26   H     H_    0.926627 0.134773 0.115191 0.186456
Br4   Br    Br    0.425958 0.434697 0.315808 -0.512751
Br5   Br    Br    0.614781 0.723915 0.220170 -0.535000
Br6   Br    Br    0.714503 0.334377 0.654664 -0.422477
O17   O     O_3   0.830261 0.558196 0.023600 -0.599995
C51   C     C_3   0.779219 0.602291 0.942942 -0.202337
H27   H     H_    0.775817 0.567165 0.887062 0.213573
H28   H     H_    0.830400 0.695606 0.924829 0.207568
H29   H     H_    0.684319 0.581342 0.952718 0.182177
Br7   Br    Br    0.070295 0.758021 0.871346 -0.513731
O18   O     O_3   0.183509 0.449446 0.980464 -0.590532
C52   C     C_3   0.263470 0.450221 0.057059 -0.208740
H30   H     H_    0.324015 0.415150 0.049593 0.191079
H31   H     H_    0.214005 0.396702 0.118251 0.204575
H32   H     H_    0.322186 0.537859 0.064442 0.186617
O19   O     O_3   0.069305 0.894806 0.420175 -0.573622
C53   C     C_3   0.019048 0.921441 0.333106 -0.175408
H33   H     H_    0.918720 0.881807 0.335068 0.202409
H34   H     H_    0.042347 0.889523 0.285731 0.174719
H35   H     H_    0.045737 0.012935 0.307971 0.183124
O20   O     O_3   0.464834 0.242549 0.289766 -0.488413
C54   C     C_3   0.566712 0.316166 0.238622 -0.204065
H36   H     H_    0.637730 0.378368 0.275081 0.176967
H37   H     H_    0.537044 0.364323 0.177034 0.198125
H38   H     H_    0.605442 0.268943 0.218384 0.115192
O21   O     O_3   0.245601 0.123769 0.358577 -0.527133
C55   C     C_3   0.215113 0.142218 0.432231 -0.154546
H39   H     H_    0.219084 0.227744 0.413730 0.204199
H40   H     H_    0.278955 0.138198 0.491741 0.155994
H41   H     H_    0.120598 0.081364 0.449817 0.172954

loop_
_geom_bond_atom_site_label_1
_geom_bond_atom_site_label_2
_ccdc_geom_bond_type
Cu2   N2    S    
C37   O12   S    
C3    C42   S    
C34   O8    A    
C25   O13   S    
C19   C20   A    
C4    C8    S    
C35   Br6   S    
Cu1   O3    S    
C47   H17   S    
C51   H28   S    
O19   C53   S    
O15   C49   S    
O14   C48   S    
C10   C22   A    
C26   C27   A    
C30   C35   A    
C30   N2    A    
C28   C29   A    
C42   O18   S    
C38   C42   S    
C11   O10   S    
C5    C6    S    
C48   H19   S    
C9    C22   A    
C43   H4    S    
C15   C16   A    
C39   O9    S    
C50   H26   S    
C11   C24   A    
C9    O21   S    
C36   N1    A    
C18   C19   A    
C45   H10   S    
C52   H30   S    
C2    C7    S    
C25   C37   A    
C2    C39   S    
Cu1   O5    S    
O16   C50   S    
O11   C45   S    
C53   H34   S    
C50   H25   S    
C38   O16   S    
C55   H41   S    
C7    C40   T    
C37   N1    A    
C1    O2    A    
C54   H38   S    
C26   N2    A    
C28   Br4   S    
C43   H5    S    
C19   O20   S    
C34   O7    A    
C16   C24   A    
C13   C14   A    
C34   C41   S    
C51   H27   S    
C12   O4    A    
C54   H37   S    
C23   O5    A    
C14   H1    S    
C52   H31   S    
C10   C21   A    
O12   C46   S    
C44   H8    S    
C8    C41   T    
C4    C6    S    
C49   H21   S    
C48   H18   S    
Cu1   O1    S    
C43   H3    S    
C27   Br5   S    
C47   H15   S    
C44   H7    S    
C12   C40   S    
C45   H11   S    
C46   H12   S    
C29   C30   A    
C49   H22   S    
Cu2   O8    S    
C31   C32   A    
C14   C15   A    
C16   C20   A    
C53   H35   S    
C50   H24   S    
C17   C18   A    
C6    O17   S    
C46   H13   S    
C52   H32   S    
C21   Br1   S    
Cu1   O7    S    
C4    C38   S    
Cu1   Cu2   S    
C55   H39   S    
C10   C23   S    
C2    C5    S    
C3    C4    S    
C27   C28   A    
C12   O3    A    
C54   H36   S    
C23   O6    A    
Cu2   O2    S    
C15   C17   A    
C6    C39   S    
C33   Br3   S    
O13   C47   S    
C3    C5    S    
C48   H20   S    
C47   H16   S    
O20   C54   S    
C36   O14   S    
C26   O15   S    
C3    H2    S    
C32   C33   A    
C29   C31   A    
O18   C52   S    
C44   H6    S    
C49   H23   S    
C11   C13   A    
Cu2   O4    S    
O9    C43   S    
C38   C39   S    
C1    O1    A    
C2    C42   S    
C5    Br7   S    
C33   C35   A    
C20   Br2   S    
C45   H9    S    
C46   H14   S    
C17   C21   A    
O10   C44   S    
Cu2   O6    S    
C9    C18   A    
C22   O19   S    
C1    C24   S    
O17   C51   S    
C55   H40   S    
C31   C36   A    
Cu1   N1    S    
C13   O11   S    
C51   H29   S    
C53   H33   S    
O21   C55   S    
C25   C32   A    
