data_mof_unit_24439.cif
_audit_creation_date              2012-12-10T18:52:17-0500
_audit_creation_method            fapswitch 2.2
_symmetry_space_group_name_H-M    P1
_symmetry_Int_Tables_number       1
_space_group_crystal_system       triclinic
_cell_length_a                    15.651097
_cell_length_b                    10.614162
_cell_length_c                    9.999823
_cell_angle_alpha                 90.986047
_cell_angle_beta                  87.504333
_cell_angle_gamma                 91.973557
_cell_volume                      1658.43801038

loop_
_atom_site_label
_atom_site_type_symbol
_atom_type_description
_atom_site_fract_x
_atom_site_fract_y
_atom_site_fract_z
_atom_type_partial_charge
C1    C     C_R   0.511986 0.262329 0.498148 0.873468
C2    C     C_R   0.434710 0.441907 0.077983 0.487785
C3    C     C_R   0.338255 0.499858 0.502523 0.876876
C4    C     C_R   0.661743 0.500812 0.497444 0.894486
C5    C     C_3   0.966004 0.412594 0.585365 0.190697
C6    C     C_3   0.033748 0.584284 0.414632 0.190742
C7    C     C_3   0.028426 0.382870 0.465695 -0.248923
C8    C     C_3   0.971343 0.614002 0.534322 -0.260080
C9    C     C_1   0.249240 0.499948 0.508013 -0.185364
C10   C     C_1   0.750700 0.498977 0.492022 -0.220312
C11   C     C_3   0.021439 0.528952 0.625144 0.184400
C12   C     C_R   0.498709 0.740974 0.501516 0.927173
C13   C     C_3   0.978274 0.467915 0.374910 0.188187
C14   C     C_3   0.082923 0.500233 0.505796 0.018622
C15   C     C_3   0.916865 0.496653 0.494279 0.024488
C16   C     C_1   0.173810 0.500081 0.509152 -0.070083
C17   C     C_1   0.826055 0.497521 0.491008 -0.077900
C18   C     C_R   0.520919 0.064920 0.373891 0.449064
C19   C     C_R   0.542906 0.940361 0.613817 0.455084
C20   C     C_3   0.921989 0.311748 0.674313 -0.397623
C21   C     C_3   0.986299 0.233409 0.743699 -0.887126
C22   C     C_3   0.077714 0.684772 0.324991 -0.393241
C23   C     C_R   0.487671 0.942602 0.387665 0.040605
C24   C     C_3   0.013235 0.764406 0.257525 -0.886937
C25   C     C_3   0.947333 0.426872 0.237188 -0.396181
C26   C     C_3   0.021176 0.392006 0.140629 -0.881989
C27   C     C_3   0.051760 0.570155 0.763175 -0.389399
C28   C     C_3   0.977247 0.601939 0.859942 -0.900276
C29   C     C_3   0.548781 0.127009 0.155798 -0.322904
C30   C     C_3   0.492221 0.885729 0.821083 -0.259617
C31   C     C_3   0.414179 0.899975 0.301282 -0.371296
C32   C     C_3   0.443020 0.836188 0.169444 -0.803466
C33   C     C_3   0.610402 0.136696 0.717181 -0.347382
C34   C     C_R   0.559719 0.069821 0.607851 0.028564
C35   C     C_3   0.695227 0.192454 0.660467 -0.831534
C36   C     C_3   0.638672 0.628240 0.134049 -0.274144
C37   C     C_3   0.716007 0.544354 0.148281 -0.846807
C38   C     C_3   0.348841 0.399438 0.874664 -0.254209
C39   C     C_3   0.353847 0.271776 0.800916 -0.812698
C40   C     C_3   0.700481 0.614603 0.831288 -0.182336
C41   C     C_3   0.357803 0.265825 0.153704 -0.343369
C42   C     C_R   0.505934 0.876897 0.503731 -0.307662
C43   C     C_R   0.533909 0.131671 0.493377 -0.237371
C44   C     C_R   0.565844 0.559089 0.066379 -0.047918
C45   C     C_R   0.432625 0.444696 0.934620 -0.035988
C46   C     C_R   0.564511 0.561514 0.922234 0.504096
H1    H     H_    0.054232 0.289310 0.438363 0.150532
H2    H     H_    0.047909 0.836466 0.194688 0.248540
H3    H     H_    0.118442 0.747707 0.387499 0.198702
H4    H     H_    0.119978 0.639063 0.248030 0.212302
H5    H     H_    0.063242 0.475708 0.118021 0.265822
H6    H     H_    0.059423 0.317486 0.183328 0.258122
H7    H     H_    0.995112 0.355542 0.045552 0.253706
H8    H     H_    0.903175 0.343307 0.249782 0.211744
H9    H     H_    0.911012 0.503251 0.194328 0.206123
H10   H     H_    0.937609 0.674977 0.817542 0.255219
H11   H     H_    0.936596 0.516741 0.882255 0.261880
H12   H     H_    0.945477 0.707495 0.561804 0.152684
H13   H     H_    0.002656 0.639078 0.955225 0.257363
H14   H     H_    0.089448 0.494854 0.805375 0.203517
H15   H     H_    0.094551 0.655267 0.751168 0.199776
H16   H     H_    0.543056 0.230730 0.160335 0.195638
H17   H     H_    0.486715 0.080150 0.133389 0.150197
H18   H     H_    0.593745 0.105670 0.070243 0.177620
H19   H     H_    0.487221 0.983306 0.862240 0.109757
H20   H     H_    0.430437 0.854139 0.778061 0.142512
H21   H     H_    0.503229 0.822848 0.905069 0.209795
H22   H     H_    0.512429 0.853355 0.146130 0.267157
H23   H     H_    0.028547 0.184962 0.668568 0.256038
H24   H     H_    0.429341 0.733125 0.173279 0.270470
H25   H     H_    0.406079 0.872727 0.087010 0.201883
H26   H     H_    0.368945 0.835219 0.357720 0.190579
H27   H     H_    0.375986 0.983055 0.279264 0.157512
H28   H     H_    0.684961 0.256108 0.576632 0.257221
H29   H     H_    0.728103 0.246893 0.740133 0.228320
H30   H     H_    0.736991 0.115686 0.623372 0.258350
H31   H     H_    0.573250 0.210113 0.770847 0.207625
H32   H     H_    0.626851 0.071086 0.796524 0.230589
H33   H     H_    0.695485 0.446788 0.176115 0.280772
H34   H     H_    0.026049 0.293648 0.809751 0.259449
H35   H     H_    0.756428 0.536021 0.055910 0.214798
H36   H     H_    0.757586 0.585929 0.225740 0.247699
H37   H     H_    0.658606 0.715663 0.080462 0.195115
H38   H     H_    0.616946 0.664636 0.232633 0.253100
H39   H     H_    0.345856 0.282047 0.692268 0.265753
H40   H     H_    0.414871 0.225424 0.817899 0.241117
H41   H     H_    0.301022 0.207129 0.838020 0.204423
H42   H     H_    0.296756 0.388240 0.952529 0.200673
H43   H     H_    0.321043 0.474518 0.818217 0.203817
H44   H     H_    0.724043 0.643059 0.729890 0.190837
H45   H     H_    0.951494 0.160953 0.805859 0.252447
H46   H     H_    0.709841 0.511468 0.840420 0.126843
H47   H     H_    0.741679 0.671563 0.898065 0.141200
H48   H     H_    0.384010 0.229918 0.246092 0.193056
H49   H     H_    0.389134 0.219991 0.064594 0.134315
H50   H     H_    0.289092 0.236304 0.155044 0.175149
H51   H     H_    0.878546 0.356910 0.750007 0.199632
H52   H     H_    0.882661 0.247976 0.610658 0.211092
H53   H     H_    0.972324 0.704998 0.192385 0.259751
H54   H     H_    0.972133 0.813417 0.333804 0.260109
N1    N     N_R   0.499980 0.499970 0.857200 -0.153203
N2    N     N_R   0.500020 0.500030 0.142800 -0.170153
O1    O     O_R   0.499990 0.316750 0.614620 -0.617925
O2    O     O_3   0.561929 0.876191 0.727291 -0.548250
O3    O     O_3   0.614487 0.649527 0.849787 -0.551227
O4    O     O_3   0.364013 0.398870 0.154269 -0.571461
O5    O     O_R   0.500010 0.683250 0.385380 -0.628887
O6    O     O_R   0.500000 0.316780 0.385290 -0.610039
O7    O     O_R   0.500000 0.683220 0.614710 -0.537415
O8    O     O_R   0.376780 0.499970 0.614640 -0.639246
O9    O     O_R   0.623220 0.500030 0.385360 -0.618049
O10   O     O_R   0.376780 0.500000 0.385310 -0.538546
O11   O     O_R   0.623220 0.500000 0.614690 -0.589044
O12   O     O_3   0.583719 0.084330 0.273499 -0.574005
Zn1   Zn    Zn3+2 0.500000 0.499980 0.653120 0.971996
Zn2   Zn    Zn3+2 0.500000 0.500020 0.346880 0.956815

loop_
_geom_bond_atom_site_label_1
_geom_bond_atom_site_label_2
_ccdc_geom_bond_type
C29   O12   S    
C29   H17   S    
C35   H28   S    
C24   H53   S    
C39   H41   S    
C40   H47   S    
C13   C25   S    
C18   O12   S    
C30   O2    S    
C28   H10   S    
C5    C20   S    
C28   H11   S    
C37   H33   S    
C38   H43   S    
C35   H29   S    
C23   C42   A    
C36   C37   S    
C9    C16   T    
C5    C11   S    
C27   H14   S    
C38   C39   S    
C11   C14   S    
C33   H32   S    
C31   H27   S    
C41   H50   S    
C2    N2    A    
C10   C17   T    
C6    C22   S    
C46   O3    S    
C38   C45   S    
C12   C42   S    
C27   H15   S    
C8    H12   S    
C1    C43   S    
C7    C14   S    
C20   H51   S    
C41   H48   S    
O9    Zn2   S    
C36   H37   S    
C1    O1    A    
C30   H21   S    
C19   C42   A    
C32   H22   S    
C29   H18   S    
C37   H35   S    
C12   O7    A    
C44   C46   A    
C32   H25   S    
C2    C45   A    
C46   N1    A    
C35   H30   S    
C41   O4    S    
C18   C23   A    
C24   H2    S    
C4    O11   A    
C25   H8    S    
C5    C7    S    
C44   N2    A    
C32   H24   S    
C25   C26   S    
C2    O4    S    
C38   H42   S    
C7    H1    S    
O1    Zn1   S    
C3    C9    S    
C26   H6    S    
C6    C14   S    
C19   O2    S    
C31   C32   S    
C11   C27   S    
C3    O10   A    
C33   C34   S    
C40   H46   S    
C30   H20   S    
C45   N1    A    
C22   H3    S    
C31   H26   S    
C4    O9    A    
C8    C15   S    
C13   C15   S    
N1    Zn1   S    
C14   C16   S    
C37   H36   S    
C36   C44   S    
C39   H39   S    
C4    C10   S    
C26   H7    S    
O10   Zn2   S    
C21   H45   S    
C28   H13   S    
C15   C17   S    
C29   H16   S    
C24   H54   S    
C34   C43   A    
C25   H9    S    
C19   C34   A    
C12   O5    A    
C6    C8    S    
C22   H4    S    
O6    Zn2   S    
C18   C43   A    
C6    C13   S    
C33   H31   S    
C41   H49   S    
C36   H38   S    
C8    C11   S    
C21   H34   S    
C33   C35   S    
C22   C24   S    
O5    Zn2   S    
C5    C15   S    
C30   H19   S    
N2    Zn2   S    
O7    Zn1   S    
C1    O6    A    
C7    C13   S    
C20   H52   S    
C20   C21   S    
C21   H23   S    
C27   C28   S    
C3    O8    A    
C39   H40   S    
C40   H44   S    
C26   H5    S    
O8    Zn1   S    
C23   C31   S    
C40   O3    S    
O11   Zn1   S    
