data_mof_unit_39823.cif
_audit_creation_date              2012-12-10T19:30:56-0500
_audit_creation_method            fapswitch 2.2
_symmetry_space_group_name_H-M    P1
_symmetry_Int_Tables_number       1
_space_group_crystal_system       triclinic
_cell_length_a                    17.852309
_cell_length_b                    16.413286
_cell_length_c                    23.558179
_cell_angle_alpha                 89.996645
_cell_angle_beta                  90.4688
_cell_angle_gamma                 89.999583
_cell_volume                      6902.67000277

loop_
_atom_site_label
_atom_site_type_symbol
_atom_type_description
_atom_site_fract_x
_atom_site_fract_y
_atom_site_fract_z
_atom_type_partial_charge
C1    C     C_R   0.355124 0.500004 0.501228 0.892882
C2    C     C_R   0.528097 0.566172 0.703736 0.311088
C3    C     C_R   0.476832 0.565171 0.236719 0.398559
C4    C     C_R   0.523152 0.565153 0.763279 0.398549
C5    C     C_R   0.502373 0.494872 0.208949 0.190640
C6    C     C_R   0.497613 0.494851 0.791050 0.190689
C7    C     C_R   0.847096 0.569570 0.480977 0.317667
C8    C     C_R   0.153904 0.427937 0.486717 0.312567
C9    C     C_R   0.152903 0.569567 0.519020 0.317662
C10   C     C_R   0.846098 0.427936 0.513285 0.312563
C11   C     C_R   0.768489 0.572249 0.485990 0.296100
C12   C     C_R   0.644876 0.500004 0.498772 0.892885
C13   C     C_R   0.231988 0.426354 0.494015 0.300043
C14   C     C_R   0.231510 0.572248 0.514009 0.296100
C15   C     C_R   0.768014 0.426354 0.505990 0.300038
C16   C     C_R   0.728075 0.499774 0.497133 -0.382732
C17   C     C_R   0.271925 0.499773 0.502868 -0.382737
C18   C     C_R   0.885914 0.498785 0.498330 -0.306227
C19   C     C_R   0.114086 0.498784 0.501668 -0.306228
C20   C     C_R   0.499081 0.499992 0.390698 0.847025
C21   C     C_R   0.500919 0.499988 0.609302 0.847016
C22   C     C_1   0.966361 0.498248 0.499536 0.290925
C23   C     C_R   0.527197 0.427908 0.240604 -0.154968
C24   C     C_1   0.033640 0.498248 0.500460 0.290924
C25   C     C_R   0.524691 0.829280 0.547962 0.276329
C26   C     C_R   0.466702 0.170841 0.455123 0.287880
C27   C     C_R   0.475312 0.829286 0.452032 0.276364
C28   C     C_R   0.533291 0.170829 0.544875 0.287917
C29   C     C_R   0.526111 0.743062 0.546082 -0.066164
C30   C     C_R   0.468285 0.256981 0.455787 -0.040602
C31   C     C_R   0.473892 0.743067 0.453916 -0.066206
C32   C     C_R   0.531711 0.256971 0.544213 -0.040675
C33   C     C_R   0.500001 0.873183 0.499997 -0.058017
C34   C     C_R   0.472797 0.427887 0.759398 -0.154986
C35   C     C_R   0.499998 0.126814 0.499998 -0.090095
C36   C     C_1   0.500000 0.962758 0.499996 0.112728
C37   C     C_1   0.499999 0.037223 0.499997 0.101254
C38   C     C_R   0.564317 0.487712 0.880285 0.640988
C39   C     C_R   0.435665 0.487764 0.119715 0.640995
C40   C     C_R   0.430764 0.492110 0.879954 0.577144
C41   C     C_R   0.569219 0.492100 0.120045 0.577116
C42   C     C_R   0.428818 0.488090 0.940153 -0.136619
C43   C     C_R   0.571164 0.488067 0.059847 -0.136613
C44   C     C_R   0.498670 0.487420 0.969937 -0.058893
C45   C     C_R   0.526093 0.430306 0.299659 -0.278113
C46   C     C_R   0.501311 0.487425 0.030062 -0.058895
C47   C     C_R   0.566242 0.487007 0.939642 -0.088859
C48   C     C_R   0.433739 0.487052 0.060357 -0.088870
C49   C     C_R   0.361088 0.485402 0.972027 0.424426
C50   C     C_R   0.638893 0.485337 0.027973 0.424430
C51   C     C_R   0.365163 0.485532 0.031284 -0.206861
C52   C     C_R   0.634818 0.485458 0.968716 -0.206860
C53   C     C_3   0.362334 0.625818 0.322869 0.091430
C54   C     C_3   0.327209 0.710324 0.322609 -0.773968
C55   C     C_3   0.637659 0.625798 0.677127 0.091428
C56   C     C_R   0.473907 0.430290 0.700342 -0.278113
C57   C     C_3   0.672789 0.710301 0.677389 -0.773941
C58   C     C_3   0.509052 0.688897 0.201830 0.080832
C59   C     C_3   0.480591 0.762662 0.169140 -0.738693
C60   C     C_3   0.490939 0.688889 0.798148 0.080832
C61   C     C_3   0.519394 0.762640 0.830851 -0.738672
C62   C     C_3   0.730277 0.693574 0.523021 0.136401
C63   C     C_3   0.711129 0.780579 0.506016 -0.693585
C64   C     C_3   0.268358 0.319113 0.548176 0.158750
C65   C     C_3   0.294055 0.230926 0.546352 -0.757052
C66   C     C_3   0.269720 0.693577 0.476976 0.136403
C67   C     C_R   0.499083 0.499370 0.328154 -0.182456
C68   C     C_3   0.288872 0.780578 0.493979 -0.693603
C69   C     C_3   0.731647 0.319112 0.451838 0.158754
C70   C     C_3   0.705957 0.230923 0.453670 -0.757030
C71   C     C_3   0.505569 0.858118 0.641436 0.065711
C72   C     C_3   0.532126 0.910806 0.690716 -0.757971
C73   C     C_3   0.357316 0.126510 0.416576 0.066847
C74   C     C_3   0.323048 0.074304 0.369805 -0.719619
C75   C     C_3   0.494423 0.858103 0.358550 0.065677
C76   C     C_3   0.467887 0.910820 0.309272 -0.757934
C77   C     C_3   0.642675 0.126526 0.583450 0.066883
C78   C     C_R   0.500914 0.499357 0.671846 -0.182457
C79   C     C_3   0.676924 0.074241 0.630191 -0.719634
C80   C     C_R   0.471893 0.566185 0.296263 0.311092
Cu1   Cu    Cu3+1 0.500000 0.580420 0.500000 0.986677
Cu2   Cu    Cu3+1 0.500000 0.419580 0.500000 0.962220
H1    H     H_    0.548897 0.709710 0.581527 0.190069
H2    H     H_    0.453368 0.377974 0.676891 0.188565
H3    H     H_    0.202310 0.555683 0.886444 0.391546
H4    H     H_    0.797705 0.555543 0.113544 0.391543
H5    H     H_    0.345102 0.592927 0.361886 0.123470
H6    H     H_    0.339228 0.592401 0.285301 0.186569
H7    H     H_    0.342581 0.743009 0.283100 0.267860
H8    H     H_    0.265281 0.704986 0.324556 0.214427
H9    H     H_    0.347025 0.746254 0.359632 0.241700
H10   H     H_    0.654886 0.592914 0.638108 0.123467
H11   H     H_    0.660764 0.592371 0.714694 0.186552
H12   H     H_    0.443018 0.290193 0.420937 0.173649
H13   H     H_    0.657422 0.742979 0.716901 0.267852
H14   H     H_    0.734717 0.704957 0.675440 0.214419
H15   H     H_    0.652973 0.746242 0.640368 0.241717
H16   H     H_    0.558058 0.663300 0.178887 0.168523
H17   H     H_    0.527291 0.709808 0.244781 0.163517
H18   H     H_    0.432200 0.790116 0.191488 0.248428
H19   H     H_    0.525799 0.808861 0.165917 0.204392
H20   H     H_    0.462799 0.744237 0.125712 0.260030
H21   H     H_    0.441911 0.663299 0.821072 0.168536
H22   H     H_    0.472733 0.709814 0.755190 0.163543
H23   H     H_    0.451106 0.709718 0.418472 0.190050
H24   H     H_    0.567809 0.790085 0.808524 0.248431
H25   H     H_    0.474194 0.808850 0.834056 0.204387
H26   H     H_    0.537150 0.744200 0.874287 0.260020
H27   H     H_    0.866944 0.758402 0.399471 0.372004
H28   H     H_    0.141101 0.229576 0.416562 0.369971
H29   H     H_    0.133053 0.758392 0.600518 0.372007
H30   H     H_    0.858908 0.229575 0.583455 0.369971
H31   H     H_    0.785149 0.694621 0.545899 0.159716
H32   H     H_    0.687057 0.671409 0.552825 0.129341
H33   H     H_    0.658547 0.781682 0.480546 0.238362
H34   H     H_    0.556975 0.290175 0.579066 0.173619
H35   H     H_    0.703758 0.818572 0.544570 0.203522
H36   H     H_    0.757023 0.806755 0.480263 0.265796
H37   H     H_    0.211263 0.319870 0.567019 0.167600
H38   H     H_    0.307037 0.353820 0.576513 0.134079
H39   H     H_    0.352634 0.227618 0.531514 0.226244
H40   H     H_    0.291313 0.203942 0.589506 0.209244
H41   H     H_    0.257320 0.195331 0.517278 0.257004
H42   H     H_    0.214848 0.694630 0.454099 0.159721
H43   H     H_    0.312938 0.671414 0.447172 0.129342
H44   H     H_    0.341454 0.781675 0.519449 0.238362
H45   H     H_    0.313777 0.484469 0.055294 0.233952
H46   H     H_    0.296243 0.818577 0.455424 0.203527
H47   H     H_    0.242979 0.806753 0.519733 0.265791
H48   H     H_    0.788742 0.319871 0.432995 0.167598
H49   H     H_    0.692967 0.353816 0.423498 0.134080
H50   H     H_    0.647376 0.227613 0.468505 0.226238
H51   H     H_    0.708704 0.203937 0.410520 0.209242
H52   H     H_    0.742691 0.195333 0.482751 0.257015
H53   H     H_    0.507230 0.793492 0.655598 0.178678
H54   H     H_    0.446664 0.875419 0.630917 0.154472
H55   H     H_    0.529304 0.976180 0.678703 0.273619
H56   H     H_    0.686203 0.484364 0.944706 0.233952
H57   H     H_    0.495853 0.900425 0.728100 0.204405
H58   H     H_    0.590772 0.894960 0.702314 0.245430
H59   H     H_    0.332317 0.188595 0.413857 0.184376
H60   H     H_    0.342708 0.098295 0.458110 0.145918
H61   H     H_    0.344787 0.011053 0.372904 0.268773
H62   H     H_    0.261179 0.072977 0.374225 0.209180
H63   H     H_    0.337200 0.099842 0.327573 0.253824
H64   H     H_    0.492717 0.793479 0.344388 0.178720
H65   H     H_    0.553343 0.875357 0.369060 0.154469
H66   H     H_    0.470756 0.976192 0.321284 0.273595
H67   H     H_    0.547343 0.373822 0.219285 0.183579
H68   H     H_    0.504144 0.900414 0.271884 0.204408
H69   H     H_    0.409226 0.895022 0.297683 0.245419
H70   H     H_    0.667651 0.188619 0.586233 0.184372
H71   H     H_    0.657325 0.098393 0.541898 0.145886
H72   H     H_    0.655270 0.010959 0.626986 0.268751
H73   H     H_    0.738810 0.073026 0.625835 0.209200
H74   H     H_    0.662655 0.099641 0.672443 0.253847
H75   H     H_    0.452652 0.373799 0.780719 0.183560
H76   H     H_    0.546637 0.377990 0.323111 0.188570
N1    N     N_R   0.497529 0.491152 0.851953 -0.453643
N2    N     N_R   0.502454 0.491177 0.148047 -0.453652
N3    N     N_R   0.500000 0.701220 0.500000 -0.199697
N4    N     N_R   0.500000 0.298780 0.500000 -0.215447
O1    O     O_R   0.391260 0.567930 0.500000 -0.555337
O2    O     O_2   0.371135 0.485171 0.149181 -0.509742
O3    O     O_2   0.367392 0.498742 0.849038 -0.450620
O4    O     O_2   0.632594 0.498713 0.150959 -0.450616
O5    O     O_2   0.265089 0.407495 0.902235 -0.227954
O6    O     O_2   0.211295 0.469452 0.986921 -0.260601
O7    O     O_3   0.251161 0.565566 0.905458 -0.478019
O8    O     O_2   0.734854 0.407390 0.097781 -0.227978
O9    O     O_2   0.788677 0.469293 0.013082 -0.260598
O10   O     O_3   0.748858 0.565453 0.094526 -0.477988
O11   O     O_3   0.441285 0.633476 0.322619 -0.597469
O12   O     O_R   0.608740 0.432070 0.500000 -0.544452
O13   O     O_3   0.558707 0.633464 0.677380 -0.597466
O14   O     O_3   0.451066 0.630745 0.205368 -0.553274
O15   O     O_3   0.548915 0.630722 0.794631 -0.553294
O16   O     O_2   0.918668 0.710130 0.500855 -0.246689
O17   O     O_2   0.963548 0.629101 0.420610 -0.257942
O18   O     O_3   0.839136 0.707725 0.408091 -0.479202
O19   O     O_2   0.081037 0.289892 0.510378 -0.237752
O20   O     O_2   0.042140 0.362024 0.423768 -0.248701
O21   O     O_3   0.167176 0.282243 0.422287 -0.492791
O22   O     O_2   0.081326 0.710128 0.499139 -0.246691
O23   O     O_R   0.608740 0.567930 0.500000 -0.555341
O24   O     O_2   0.036450 0.629090 0.579386 -0.257936
O25   O     O_3   0.160859 0.707715 0.591903 -0.479208
O26   O     O_2   0.918970 0.289893 0.489634 -0.237750
O27   O     O_2   0.957863 0.362023 0.576239 -0.248701
O28   O     O_3   0.832830 0.282240 0.577724 -0.492801
O29   O     O_3   0.730898 0.643999 0.473899 -0.498342
O30   O     O_3   0.268918 0.352261 0.492667 -0.512590
O31   O     O_3   0.269099 0.643995 0.526099 -0.498342
O32   O     O_3   0.731084 0.352262 0.507344 -0.512591
O33   O     O_3   0.552976 0.870859 0.594551 -0.583078
O34   O     O_R   0.391260 0.432070 0.500000 -0.544453
O35   O     O_3   0.435657 0.129968 0.409369 -0.567336
O36   O     O_3   0.447033 0.870874 0.405441 -0.583056
O37   O     O_3   0.564323 0.129942 0.590631 -0.567354
O38   O     O_R   0.499980 0.567930 0.417880 -0.554823
O39   O     O_R   0.500020 0.432070 0.582120 -0.603899
O40   O     O_R   0.500020 0.567930 0.582120 -0.554824
O41   O     O_R   0.499980 0.432070 0.417880 -0.603906
O42   O     O_2   0.628845 0.485088 0.850819 -0.509758
S1    S     S_3+6 0.269510 0.479403 0.941668 0.071698
S2    S     S_3+6 0.730467 0.479291 0.058333 0.071699
S3    S     S_3+6 0.895299 0.655459 0.452729 0.063063
S4    S     S_3+6 0.107819 0.339123 0.460764 0.067050
S5    S     S_3+6 0.104698 0.655453 0.547266 0.063062
S6    S     S_3+6 0.892185 0.339122 0.539244 0.067046

loop_
_geom_bond_atom_site_label_1
_geom_bond_atom_site_label_2
_ccdc_geom_bond_type
C66   C68   S    
C74   H61   S    
C31   N3    A    
C34   C56   A    
C8    C13   A    
C23   C45   A    
C39   N2    A    
Cu1   O1    S    
C73   C74   S    
C74   H63   S    
C58   H16   S    
C4    O15   S    
C55   H11   S    
Cu1   O38   S    
Cu1   Cu2   S    
C53   O11   S    
O22   S5    D    
C73   H59   S    
C53   C54   S    
C27   C33   A    
C7    C11   A    
C55   H10   S    
C13   O30   S    
H4    O10   S    
O5    S1    D    
C59   H20   S    
C36   C37   T    
C35   C37   S    
C21   O39   A    
C80   O11   S    
C54   H8    S    
C59   H18   S    
O27   S6    D    
O7    S1    S    
Cu2   O41   S    
C63   H35   S    
C15   C16   A    
C33   C36   S    
C56   C78   A    
C11   O29   S    
C8    S4    S    
C26   O35   S    
C20   O38   A    
C61   H26   S    
C77   H71   S    
C79   H74   S    
C15   O32   S    
O26   S6    D    
C9    C19   A    
C72   H57   S    
O25   S5    S    
C28   C35   A    
C9    S5    S    
C69   H48   S    
C49   C51   A    
C57   H14   S    
C32   N4    A    
C21   C78   S    
C45   C67   A    
C70   H51   S    
C52   H56   S    
C65   H39   S    
O18   S3    S    
C68   H46   S    
Cu2   O34   S    
C25   O33   S    
C44   C47   A    
C71   O33   S    
C3    C5    A    
C63   H33   S    
C5    N2    S    
C40   C42   A    
C23   H67   S    
C38   O42   S    
C41   O4    S    
O21   S4    S    
C41   C43   A    
C14   C17   A    
C68   H47   S    
C27   O36   S    
C42   C44   A    
C12   C16   S    
C3    C80   A    
C77   H70   S    
Cu1   O23   S    
C64   O30   S    
C10   S6    S    
C56   H2    S    
Cu1   O40   S    
O17   S3    D    
C73   H60   S    
C77   C79   S    
C75   H64   S    
C25   C29   A    
C46   C48   A    
C48   C51   A    
C8    C19   A    
C58   H17   S    
C20   C67   S    
C27   C31   A    
C28   O37   S    
Cu2   O12   S    
C28   C32   A    
C1    O34   A    
C62   H31   S    
C7    S3    S    
C71   H54   S    
C62   H32   S    
C44   C46   A    
C76   H69   S    
C75   H65   S    
C60   O15   S    
H30   O28   S    
H3    O7    S    
C6    C34   A    
C73   O35   S    
C60   C61   S    
C59   H19   S    
C2    C4    A    
C75   C76   S    
C62   C63   S    
C2    C78   A    
C29   N3    A    
C2    O13   S    
C41   N2    A    
C11   C16   A    
C45   H76   S    
C50   C52   A    
C5    C23   A    
C76   H68   S    
C69   H49   S    
C7    C18   A    
C57   H15   S    
O16   S3    D    
O19   S4    D    
C70   H50   S    
C38   C47   A    
C9    C14   A    
C53   H5    S    
C65   H40   S    
C32   H34   S    
O9    S2    D    
C61   H24   S    
C77   O37   S    
C55   O13   S    
C40   O3    S    
C47   C52   A    
C54   H7    S    
C50   S2    S    
C4    C6    A    
C72   H55   S    
C14   O31   S    
C49   S1    S    
H28   O21   S    
C26   C30   A    
C55   C57   S    
O8    S2    D    
C57   H13   S    
C66   H42   S    
C22   C24   T    
C30   N4    A    
C72   H58   S    
C64   H37   S    
C60   H21   S    
C68   H44   S    
C66   O31   S    
C12   O12   A    
C75   O36   S    
C3    O14   S    
C63   H36   S    
C74   H62   S    
C18   C22   S    
C40   N1    A    
Cu1   N3    S    
C21   O40   A    
C58   O14   S    
C67   C80   A    
C20   O41   A    
C6    N1    S    
C38   N1    A    
Cu2   O39   S    
C43   C50   A    
C29   H1    S    
C62   O29   S    
Cu2   N4    S    
C1    C17   S    
C64   H38   S    
C66   H43   S    
C13   C17   A    
H29   O25   S    
C10   C15   A    
C51   H45   S    
C64   C65   S    
O10   S2    S    
C19   C24   S    
C58   C59   S    
C54   H9    S    
C30   H12   S    
C79   H72   S    
C71   H53   S    
H27   O18   S    
C10   C18   A    
C12   O23   A    
C69   O32   S    
C53   H6    S    
O20   S4    D    
C65   H41   S    
C1    O1    A    
O28   S6    S    
C69   C70   S    
C61   H25   S    
C43   C46   A    
C42   C49   A    
C79   H73   S    
C34   H75   S    
C26   C35   A    
C71   C72   S    
C76   H66   S    
C31   H23   S    
O24   S5    D    
C70   H52   S    
O6    S1    D    
C39   O2    S    
C60   H22   S    
C25   C33   A    
C39   C48   A    
