data_mof_unit_18497.cif
_audit_creation_date              2012-10-26T19:24:23-0400
_audit_creation_method            fapswitch 2.2
_symmetry_space_group_name_H-M    P1
_symmetry_Int_Tables_number       1
_space_group_crystal_system       triclinic
_cell_length_a                    27.80914
_cell_length_b                    10.767301
_cell_length_c                    9.602978
_cell_angle_alpha                 89.984012
_cell_angle_beta                  89.992034
_cell_angle_gamma                 92.596959
_cell_volume                      2872.46049388

loop_
_atom_site_label
_atom_site_type_symbol
_atom_type_description
_atom_site_fract_x
_atom_site_fract_y
_atom_site_fract_z
_atom_type_partial_charge
C1    C     C_R   0.498331 0.262597 0.500046 0.543953
C2    C     C_R   0.971983 0.386966 0.477294 0.016476
C3    C     C_R   0.976842 0.611686 0.527834 0.018963
C4    C     C_R   0.407551 0.499767 0.500038 0.535543
C5    C     C_R   0.949155 0.500127 0.502118 0.035705
C6    C     C_R   0.942806 0.280536 0.441451 -0.143158
C7    C     C_R   0.892941 0.283669 0.438382 -0.110849
C8    C     C_R   0.870115 0.393063 0.469680 0.024388
C9    C     C_R   0.898064 0.501750 0.501076 -0.027271
C10   C     C_R   0.874814 0.612060 0.531368 0.024739
C11   C     C_R   0.824302 0.611424 0.530537 0.397630
C12   C     C_R   0.279363 0.515441 0.626245 -0.060877
C13   C     C_R   0.819716 0.396598 0.469334 0.398663
C14   C     C_R   0.721330 0.513990 0.625529 -0.056500
C15   C     C_R   0.671163 0.512497 0.625832 -0.146210
C16   C     C_R   0.498535 0.737073 0.500000 0.527472
C17   C     C_R   0.670889 0.496049 0.373772 -0.147365
C18   C     C_R   0.721043 0.497082 0.373861 -0.056992
C19   C     C_R   0.746397 0.505792 0.499669 0.243191
C20   C     C_R   0.022969 0.384059 0.487261 0.003648
C21   C     C_R   0.050800 0.496411 0.503974 0.028986
C22   C     C_R   0.027886 0.611063 0.520518 0.021985
C23   C     C_R   0.253735 0.498098 0.501846 0.250698
C24   C     C_R   0.046923 0.271501 0.483448 -0.117713
C25   C     C_R   0.106712 0.719781 0.525298 -0.113888
C26   C     C_R   0.952298 0.720237 0.560913 -0.142906
C27   C     C_R   0.902336 0.720168 0.562440 -0.113358
C28   C     C_R   0.592467 0.500909 0.500001 0.539805
C29   C     C_R   0.056962 0.721874 0.527839 -0.142210
C30   C     C_R   0.421460 0.120230 0.645326 -0.107310
C31   C     C_R   0.385610 0.050959 0.716024 -0.113408
C32   C     C_R   0.385653 0.921789 0.716053 -0.108617
C33   C     C_R   0.421561 0.861086 0.645453 -0.096638
C34   C     C_R   0.101968 0.494484 0.504124 -0.039056
C35   C     C_R   0.458777 0.929413 0.574884 0.029440
C36   C     C_R   0.458721 0.060752 0.574849 0.024890
C37   C     C_R   0.495069 0.128409 0.499936 0.002825
C38   C     C_R   0.529140 0.067549 0.421834 -0.142537
C39   C     C_R   0.529199 0.939486 0.421846 -0.149463
C40   C     C_R   0.176696 0.385246 0.492543 0.394706
C41   C     C_R   0.495179 0.870456 0.499944 0.007302
C42   C     C_R   0.564129 0.664978 0.143891 -0.089985
C43   C     C_R   0.595521 0.745512 0.071713 -0.171297
C44   C     C_R   0.595515 0.745595 0.928220 -0.166499
C45   C     C_R   0.125551 0.380578 0.493434 0.033157
C46   C     C_R   0.564103 0.665181 0.856006 -0.087194
C47   C     C_R   0.531501 0.581172 0.925183 0.157679
C48   C     C_R   0.531506 0.581088 0.074735 0.158995
C49   C     C_R   0.469979 0.422910 0.073902 -0.001578
C50   C     C_R   0.469997 0.422925 0.926037 -0.001656
C51   C     C_R   0.179873 0.606092 0.514073 0.395543
C52   C     C_R   0.278462 0.481931 0.376668 -0.056120
C53   C     C_R   0.328628 0.483036 0.375745 -0.140495
C54   C     C_R   0.329505 0.516006 0.625762 -0.156759
C55   C     C_3   0.118289 0.140571 0.481029 -0.342146
C56   C     C_R   0.097130 0.267622 0.485792 -0.002613
C57   C     C_R   0.129601 0.607368 0.514974 0.025362
C58   C     C_R   0.354608 0.499725 0.500435 0.001561
C59   C     C_R   0.645458 0.503089 0.499895 0.001532
Cu1   Cu    Cu3+1 0.500000 0.499990 0.640660 0.916782
Cu2   Cu    Cu3+1 0.500000 0.500010 0.359340 0.929408
H1    H     H_    0.348555 0.529528 0.723329 0.124365
H2    H     H_    0.418965 0.220112 0.644399 0.128108
H3    H     H_    0.357307 0.097704 0.769445 0.122853
H4    H     H_    0.260346 0.527965 0.723279 0.123566
H5    H     H_    0.357378 0.868274 0.769467 0.126165
H6    H     H_    0.419140 0.760668 0.644776 0.143998
H7    H     H_    0.556657 0.893980 0.363123 0.114408
H8    H     H_    0.445358 0.359688 0.129059 0.117422
H9    H     H_    0.567113 0.672864 0.253624 0.178597
H10   H     H_    0.620026 0.808453 0.127881 0.128093
H11   H     H_    0.620036 0.808562 0.872087 0.134294
H12   H     H_    0.258740 0.468587 0.280210 0.123705
H13   H     H_    0.567082 0.673204 0.746241 0.183880
H14   H     H_    0.445392 0.359702 0.870885 0.110966
H15   H     H_    0.652586 0.518625 0.724551 0.133283
H16   H     H_    0.740776 0.520577 0.723129 0.130459
H17   H     H_    0.872307 0.199459 0.410910 0.169039
H18   H     H_    0.957370 0.193546 0.411215 0.107906
H19   H     H_    0.026991 0.183440 0.482841 0.106698
H20   H     H_    0.346991 0.470051 0.277718 0.127126
H21   H     H_    0.090195 0.063877 0.478582 0.090661
H22   H     H_    0.140227 0.131416 0.385313 0.184722
H23   H     H_    0.127253 0.807589 0.531309 0.161480
H24   H     H_    0.140391 0.126032 0.575408 0.180911
H25   H     H_    0.970617 0.806731 0.589533 0.107604
H26   H     H_    0.652096 0.489143 0.275106 0.135051
H27   H     H_    0.885346 0.805784 0.588240 0.165991
H28   H     H_    0.740273 0.490995 0.276216 0.130378
H29   H     H_    0.042424 0.812808 0.532213 0.102421
H30   H     H_    0.556541 0.119712 0.363063 0.135747
N1    N     N_R   0.202161 0.496462 0.502749 -0.397548
N2    N     N_R   0.797930 0.504670 0.499753 -0.398715
N3    N     N_R   0.500460 0.501210 0.147910 -0.243042
N4    N     N_R   0.500480 0.501290 0.852040 -0.243252
O1    O     O_R   0.500000 0.319640 0.618810 -0.497453
O2    O     O_R   0.569730 0.499970 0.618800 -0.516327
O3    O     O_R   0.569740 0.499990 0.381230 -0.521591
O4    O     O_2   0.201256 0.280631 0.481892 -0.512096
O5    O     O_2   0.792651 0.292671 0.440013 -0.491572
O6    O     O_2   0.206468 0.713817 0.523717 -0.498460
O7    O     O_2   0.801702 0.716743 0.559228 -0.494756
O8    O     O_R   0.500000 0.319660 0.381240 -0.496299
O9    O     O_R   0.430260 0.500010 0.618770 -0.519413
O10   O     O_R   0.430270 0.500030 0.381200 -0.498352
O11   O     O_R   0.500000 0.680340 0.618760 -0.526455
O12   O     O_R   0.500000 0.680360 0.381190 -0.512926

loop_
_geom_bond_atom_site_label_1
_geom_bond_atom_site_label_2
_ccdc_geom_bond_type
C10   C27   A    
C28   O2    A    
C55   C56   S    
C8    C13   A    
C22   C29   A    
C39   H7    S    
C35   C36   A    
C40   O4    S    
C6    H18   S    
C7    C8    A    
C39   C41   A    
C31   C32   A    
C12   C23   A    
C26   C27   A    
C48   N3    A    
C21   C22   A    
C36   C37   A    
Cu2   O8    S    
C30   C31   A    
C50   N4    A    
C42   H9    S    
C53   H20   S    
C18   C19   A    
C14   H16   S    
C16   O12   A    
C24   H19   S    
C20   C24   A    
C45   C56   A    
C8    C9    A    
C34   C57   A    
C51   C57   A    
C49   N3    A    
Cu2   O10   S    
C9    C10   A    
C1    O8    A    
C19   N2    S    
C1    C37   S    
C11   N2    A    
C15   H15   S    
C49   H8    S    
C30   H2    S    
C2    C6    A    
C25   C57   A    
C35   C41   A    
C31   H3    S    
C29   H29   S    
C44   C46   A    
C25   C29   A    
C40   C45   A    
C2    C20   A    
Cu1   O2    S    
Cu2   N3    S    
C21   C34   A    
C54   H1    S    
C38   H30   S    
C13   N2    A    
Cu1   Cu2   S    
C55   H24   S    
C43   C44   A    
C5    C9    A    
C37   C38   A    
C51   N1    A    
C25   H23   S    
C12   H4    S    
C47   C48   A    
C14   C15   A    
C26   H25   S    
C17   C18   A    
C34   C45   A    
C42   C48   A    
C40   N1    A    
C55   H21   S    
C17   C59   A    
C7    H17   S    
Cu1   O1    S    
C52   H12   S    
C2    C5    A    
C24   C56   A    
C42   C43   A    
C55   H22   S    
C46   H13   S    
Cu1   O11   S    
C52   C53   A    
C33   H6    S    
C32   H5    S    
C54   C58   A    
C28   C59   S    
C28   O3    A    
C46   C47   A    
C43   H10   S    
C17   H26   S    
C18   H28   S    
C15   C59   A    
C14   C19   A    
C3    C26   A    
C3    C5    A    
C53   C58   A    
C6    C7    A    
C16   O11   A    
C51   O6    S    
C4    O10   A    
C30   C36   A    
C32   C33   A    
C13   O5    S    
C50   H14   S    
Cu2   O3    S    
C23   C52   A    
C38   C39   A    
C1    O1    A    
C4    O9    A    
C33   C35   A    
C44   H11   S    
C11   O7    S    
C27   H27   S    
Cu2   O12   S    
C10   C11   A    
Cu1   N4    S    
C20   C21   A    
C49   C50   A    
C4    C58   S    
C47   N4    A    
C23   N1    S    
C3    C22   A    
Cu1   O9    S    
C16   C41   S    
C12   C54   A    
