data_mof_unit_19514.cif
_audit_creation_date              2013-03-05T16:47:43-0500
_audit_creation_method            fapswitch 2.2
_symmetry_space_group_name_H-M    P1
_symmetry_Int_Tables_number       1
_space_group_crystal_system       triclinic
_cell_length_a                    10.949841
_cell_length_b                    13.018327
_cell_length_c                    11.862576
_cell_angle_alpha                 98.817253
_cell_angle_beta                  95.820772
_cell_angle_gamma                 90.648801
_cell_volume                      1661.77328491

loop_
_atom_site_label
_atom_site_type_symbol
_atom_site_description
_atom_site_fract_x
_atom_site_fract_y
_atom_site_fract_z
_atom_type_partial_charge
O1    O     O_R   0.506570 0.354460 0.582000 -0.512002
O2    O     O_R   0.493430 0.645540 0.418000 -0.511998
O3    O     O_R   0.490940 0.341410 0.386200 -0.549290
O4    O     O_R   0.509060 0.658590 0.613800 -0.549291
C1    C     C_R   0.496597 0.300001 0.479793 0.884808
C2    C     C_R   0.503401 0.699999 0.520206 0.884804
O5    O     O_R   0.327460 0.506540 0.597900 -0.572692
O6    O     O_R   0.672540 0.493460 0.402100 -0.572682
O7    O     O_R   0.311830 0.493480 0.402100 -0.555774
O8    O     O_R   0.688170 0.506520 0.597900 -0.555769
C3    C     C_R   0.262418 0.504080 0.498402 0.822963
C4    C     C_R   0.737582 0.495922 0.501598 0.822988
Cu1   Cu    Cu3+1 0.509250 0.507730 0.615930 1.085179
Cu2   Cu    Cu3+1 0.490750 0.492270 0.384070 1.085186
H1    H     H_    0.121527 0.666862 0.011819 0.174787
H2    H     H_    0.878521 0.332968 0.988096 0.174809
C5    C     C_R   0.073804 0.711127 0.183759 -0.029966
C6    C     C_R   0.926259 0.288781 0.816150 -0.029997
H3    H     H_    0.056810 0.790591 0.171362 0.196673
H4    H     H_    0.943283 0.209313 0.828511 0.196681
C7    C     C_R   0.059156 0.679055 0.289801 0.397202
C8    C     C_R   0.940883 0.320900 0.710127 0.397173
C9    C     C_R   0.084800 0.574732 0.304169 -0.016832
C10   C     C_R   0.915204 0.425227 0.695803 -0.016790
C11   C     C_R   0.114192 0.504570 0.209607 -0.123798
C12   C     C_R   0.885784 0.495349 0.790388 -0.123862
H5    H     H_    0.118015 0.422703 0.215084 0.212487
H6    H     H_    0.881936 0.577221 0.784948 0.212493
C13   C     C_R   0.129841 0.538091 0.105644 -0.162570
C14   C     C_R   0.870147 0.461780 0.894330 -0.162568
H7    H     H_    0.152770 0.483374 0.033487 0.198602
H8    H     H_    0.847193 0.516465 0.966503 0.198576
C15   C     C_R   0.110747 0.641389 0.093011 -0.145573
C16   C     C_R   0.889288 0.358478 0.906920 -0.145478
C17   C     C_R   0.921463 0.524632 0.409571 -0.155400
C18   C     C_R   0.078536 0.475391 0.590436 -0.155447
H9    H     H_    0.861705 0.544695 0.338348 0.198170
H10   H     H_    0.138293 0.455332 0.661661 0.198156
C19   C     C_R   0.871971 0.495280 0.504232 -0.035384
C20   C     C_R   0.128028 0.504733 0.495770 -0.035376
C21   C     C_R   0.952679 0.468050 0.595581 0.043894
C22   C     C_R   0.047320 0.531958 0.404419 0.043914
C23   C     C_R   0.513578 0.812451 0.529084 -0.102643
C24   C     C_R   0.486419 0.187550 0.470914 -0.102634
C25   C     C_R   0.370323 0.028878 0.396631 -0.057466
C26   C     C_R   0.629673 0.971123 0.603369 -0.057484
C27   C     C_R   0.388333 0.134828 0.400680 -0.180581
C28   C     C_R   0.611660 0.865173 0.599324 -0.180592
C29   C     C_R   0.567793 0.133871 0.538617 0.380180
C30   C     C_R   0.432209 0.866128 0.461374 0.380169
C31   C     C_R   0.549974 0.026571 0.535916 0.030825
C32   C     C_R   0.450025 0.973429 0.464080 0.030811
H11   H     H_    0.677552 0.823805 0.648133 0.225463
H12   H     H_    0.322440 0.176199 0.351875 0.225462
H13   H     H_    0.292529 0.991799 0.341303 0.219861
H14   H     H_    0.707466 0.008203 0.658699 0.219842
N1    N     N_R   0.523180 0.519350 0.790130 -0.283641
N2    N     N_R   0.476820 0.480650 0.209870 -0.283652
C33   C     C_R   0.405496 0.386177 0.021130 0.218845
C34   C     C_R   0.594542 0.613800 0.978872 0.218872
C35   C     C_R   0.411178 0.399843 0.141850 0.415327
C36   C     C_R   0.588837 0.600148 0.858150 0.415283
C37   C     C_R   0.532023 0.554375 0.157617 0.451506
C38   C     C_R   0.467982 0.445622 0.842380 0.451486
C39   C     C_R   0.531874 0.542847 0.034742 -0.277701
C40   C     C_R   0.468146 0.457139 0.965256 -0.277752
N3    N     N_R   0.421097 0.350986 0.773814 0.175845
O9    O     O_R   0.313324 0.346594 0.716075 -0.327502
O10   O     O_R   0.481869 0.266069 0.777568 -0.276392
N4    N     N_R   0.578877 0.649025 0.226175 0.175876
O11   O     O_R   0.686607 0.653427 0.283996 -0.327404
O12   O     O_R   0.518115 0.733940 0.222352 -0.276423
Cl1   Cl    Cl    0.679616 0.685804 0.798695 -0.572827
Cl2   Cl    Cl    0.320399 0.314182 0.201300 -0.572808
N5    N     N_R   0.330955 0.301183 0.957543 0.196526
O13   O     O_R   0.364758 0.206149 0.961391 -0.222694
O14   O     O_R   0.219132 0.317434 0.917178 -0.345178
N6    N     N_R   0.669162 0.698742 0.042465 0.196469
O15   O     O_R   0.780913 0.682385 0.082952 -0.345281
O16   O     O_R   0.635500 0.793810 0.038592 -0.222652
N7    N     N_R   0.017014 0.752493 0.380555 0.148305
O17   O     O_R   0.955469 0.832701 0.356481 -0.266544
O18   O     O_R   0.048723 0.745156 0.487705 -0.317385
N8    N     N_R   0.983036 0.247503 0.619342 0.148282
O19   O     O_R   0.044629 0.167307 0.643376 -0.266576
O20   O     O_R   0.951292 0.254860 0.512204 -0.317401
Cl3   Cl    Cl    0.307567 0.798529 0.375111 -0.587498
Cl4   Cl    Cl    0.692448 0.201467 0.624861 -0.587532

loop_
_geom_bond_atom_site_label_1
_geom_bond_atom_site_label_2
_geom_bond_distance
_ccdc_geom_bond_type
C24   C29   1.402957 A    
C37   C39   1.442091 A    
N5    O13   1.301519 A    
N7    O17   1.301662 A    
N1    C36   1.370893 A    
C19   C21   1.418278 A    
O5    C3    1.311016 A    
C34   N6    1.434682 S    
C9    C22   1.479728 S    
O1    C1    1.300934 A    
C17   H9    1.081476 S    
N8    O20   1.301434 A    
C33   C40   1.424394 A    
N6    O16   1.301537 A    
Cu1   N1    2.038658 S    
C13   C15   1.391530 A    
C34   C36   1.410640 A    
C25   C27   1.383928 A    
O4    Cu1   1.967999 S    
C17   C22   1.388500 A    
H2    C16   1.082425 S    
C29   C31   1.403271 A    
C30   C32   1.403274 A    
C36   Cl1   1.757033 S    
N4    O11   1.299066 A    
C23   C28   1.394729 A    
C24   C27   1.394718 A    
N2    C35   1.370894 A    
C20   C22   1.418280 A    
Cu1   Cu2   2.713468 S    
C10   C21   1.479736 S    
C29   Cl4   1.760025 S    
C18   C21   1.388496 A    
O2    C2    1.300932 A    
C5    C15   1.394195 A    
N7    O18   1.301446 A    
C6    C16   1.394197 A    
C11   C13   1.395325 A    
C28   H11   1.079585 S    
Cu2   N2    2.038657 S    
C26   C28   1.383930 A    
C33   C35   1.410633 A    
C14   C16   1.391542 A    
N3    O9    1.299055 A    
C38   N3    1.427142 S    
C18   C20   1.396764 A    
N8    O19   1.301648 A    
O4    C2    1.302851 A    
N6    O15   1.300534 A    
C25   C32   1.404503 A    
C26   C31   1.404506 A    
C5    C7    1.408141 A    
C31   C32   1.419687 A    
N3    O10   1.301009 A    
C38   C40   1.442090 A    
C17   C19   1.396769 A    
O7    Cu2   1.992210 S    
N5    O14   1.300503 A    
C37   N4    1.427152 S    
O6    C4    1.311014 A    
O7    C3    1.302143 A    
O3    Cu2   1.967998 S    
O8    C4    1.302141 A    
C30   Cl3   1.760036 S    
C27   H12   1.079581 S    
C1    C24   1.453700 S    
C7    N7    1.442639 S    
C34   C39   1.424392 A    
C12   C14   1.395328 A    
C2    C23   1.453705 S    
C7    C9    1.422057 A    
C8    C10   1.422066 A    
O1    Cu1   1.973380 S    
C33   N5    1.434668 S    
N1    C38   1.384191 A    
N2    C37   1.384194 A    
O6    Cu2   1.979972 S    
C6    C8    1.408137 A    
C10   C12   1.400710 A    
O3    C1    1.302847 A    
O8    Cu1   1.992210 S    
C23   C30   1.402964 A    
C35   Cl2   1.757032 S    
C11   H5    1.078661 S    
C12   H6    1.078653 S    
C4    C19   1.468844 S    
C18   H10   1.081468 S    
C13   H7    1.078809 S    
C14   H8    1.078819 S    
C5    H3    1.082518 S    
C6    H4    1.082528 S    
C9    C11   1.400705 A    
C3    C20   1.468854 S    
O2    Cu2   1.973381 S    
O5    Cu1   1.979972 S    
C25   H13   1.081459 S    
C39   C40   1.412477 A    
C26   H14   1.081467 S    
N4    O12   1.301017 A    
H1    C15   1.082425 S    
C8    N8    1.442633 S    
