data_mof_unit_48642.cif
_audit_creation_date              2012-12-10T18:09:50-0500
_audit_creation_method            fapswitch 2.2
_symmetry_space_group_name_H-M    P1
_symmetry_Int_Tables_number       1
_space_group_crystal_system       triclinic
_cell_length_a                    10.697956
_cell_length_b                    12.602239
_cell_length_c                    13.221299
_cell_angle_alpha                 82.584434
_cell_angle_beta                  93.075313
_cell_angle_gamma                 102.670673
_cell_volume                      1723.92624721

loop_
_atom_site_label
_atom_site_type_symbol
_atom_type_description
_atom_site_fract_x
_atom_site_fract_y
_atom_site_fract_z
_atom_type_partial_charge
C1    C     C_R   0.494109 0.439632 0.691954 0.915737
C2    C     C_R   0.519447 0.451050 0.976539 -0.010640
C3    C     C_R   0.548058 0.480163 0.872776 -0.122502
C4    C     C_R   0.742337 0.499713 0.503049 0.869011
C5    C     C_R   0.523071 0.537342 0.036722 0.090723
C6    C     C_R   0.571562 0.648022 0.996699 0.098200
C7    C     C_R   0.619104 0.671432 0.899236 -0.365836
C8    C     C_R   0.625245 0.585206 0.844598 0.591396
C9    C     C_R   0.476990 0.517330 0.134781 -0.243195
C10   C     C_R   0.560113 0.706201 0.162184 -0.203254
C11   C     C_R   0.502867 0.402815 0.802754 -0.240814
C12   C     C_3   0.121896 0.498755 0.497985 0.063716
C13   C     C_R   0.302680 0.086546 0.351488 0.459665
C14   C     C_R   0.660462 0.803841 0.625183 0.009977
C15   C     C_R   0.692090 0.908659 0.653477 -0.294932
C16   C     C_R   0.507843 0.560473 0.309087 0.847486
C17   C     C_R   0.627561 0.987214 0.607323 -0.155733
C18   C     C_R   0.532068 0.961560 0.530486 0.052707
C19   C     C_R   0.503390 0.853098 0.505462 0.190339
C20   C     C_R   0.466108 0.039291 0.477168 -0.126435
C21   C     C_R   0.368516 0.007002 0.401677 0.028546
C22   C     C_R   0.342602 0.897227 0.378236 0.135256
C23   C     C_3   0.056923 0.475607 0.393500 -0.450616
C24   C     C_R   0.412572 0.824305 0.428774 -0.253428
C25   C     C_R   0.494646 0.149139 0.496536 -0.032729
C26   C     C_R   0.337715 0.193901 0.375902 -0.127752
C27   C     C_R   0.258263 0.500207 0.496750 0.847411
C28   C     C_3   0.917307 0.408848 0.591795 0.385609
C29   C     C_3   0.060799 0.407480 0.580917 -0.382887
C30   C     C_3   0.912631 0.472513 0.397916 -0.527892
C31   C     C_3   0.961809 0.616806 0.515048 0.378549
C32   C     C_3   0.879794 0.498776 0.504749 0.076613
C33   C     C_3   0.837084 0.290814 0.586202 -0.896183
C34   C     C_3   0.102767 0.611248 0.523136 -0.461049
C35   C     C_3   0.278422 0.185495 0.774171 -0.301700
C36   C     C_3   0.536929 0.296131 0.121261 -0.917130
C37   C     C_3   0.898658 0.435062 0.699913 -0.826159
C38   C     C_3   0.842149 0.610648 0.839600 -0.357540
C39   C     C_3   0.244506 0.853805 0.298457 -0.830365
C40   C     C_3   0.215494 0.110896 0.190028 -0.378947
C41   C     C_3   0.966677 0.777070 0.586688 -0.340299
C42   C     C_R   0.585293 0.732324 0.058821 -0.173447
C43   C     C_R   0.511038 0.597009 0.200605 -0.067066
C44   C     C_R   0.453804 0.292207 0.841231 0.489345
C45   C     C_R   0.460119 0.259960 0.946193 -0.258501
C46   C     C_R   0.496644 0.337614 0.014759 0.153165
H1    H     H_    0.155962 0.679120 0.469145 0.164530
H2    H     H_    0.563747 0.179490 0.552978 0.145679
H3    H     H_    0.712733 0.744009 0.657778 0.224851
H4    H     H_    0.655790 0.066688 0.633251 0.144662
H5    H     H_    0.766942 0.929130 0.710571 0.144181
H6    H     H_    0.395757 0.744258 0.405818 0.216410
H7    H     H_    0.115916 0.417318 0.654377 0.135008
H8    H     H_    0.071964 0.327181 0.560046 0.184216
H9    H     H_    0.856748 0.391916 0.379542 0.215665
H10   H     H_    0.070753 0.395961 0.373291 0.198205
H11   H     H_    0.945493 0.669788 0.442887 0.080080
H12   H     H_    0.886281 0.533500 0.336395 0.165382
H13   H     H_    0.141706 0.624666 0.601454 0.206783
H14   H     H_    0.833272 0.264788 0.509110 0.238488
H15   H     H_    0.878836 0.230601 0.638751 0.221300
H16   H     H_    0.738748 0.283334 0.612567 0.252376
H17   H     H_    0.236978 0.258681 0.749058 0.145951
H18   H     H_    0.240939 0.145278 0.849728 0.143732
H19   H     H_    0.245974 0.126279 0.717992 0.191952
H20   H     H_    0.608088 0.360039 0.156279 0.258048
H21   H     H_    0.452686 0.267011 0.170260 0.229337
H22   H     H_    0.584654 0.226552 0.119073 0.238997
H23   H     H_    0.100856 0.540771 0.332835 0.168394
H24   H     H_    0.911111 0.366198 0.758497 0.214348
H25   H     H_    0.972076 0.506704 0.718676 0.250486
H26   H     H_    0.800785 0.448725 0.706552 0.275887
H27   H     H_    0.851967 0.531410 0.883612 0.175537
H28   H     H_    0.852596 0.674222 0.892266 0.149102
H29   H     H_    0.924265 0.640431 0.788980 0.231228
H30   H     H_    0.241726 0.766704 0.290059 0.193999
H31   H     H_    0.146974 0.857337 0.320493 0.268265
H32   H     H_    0.268441 0.900893 0.222695 0.257426
H33   H     H_    0.305268 0.098424 0.159095 0.163592
H34   H     H_    0.583002 0.769975 0.212027 0.162124
H35   H     H_    0.215718 0.199507 0.186073 0.162788
H36   H     H_    0.135250 0.074612 0.139903 0.199364
H37   H     H_    0.908950 0.812904 0.524344 0.180132
H38   H     H_    0.070595 0.805248 0.571124 0.165717
H39   H     H_    0.949692 0.808785 0.658004 0.177865
H40   H     H_    0.669598 0.753792 0.872084 0.154272
H41   H     H_    0.624918 0.816703 0.029407 0.136495
H42   H     H_    0.421003 0.437997 0.162861 0.170482
H43   H     H_    0.438682 0.173359 0.974105 0.159567
H44   H     H_    0.286294 0.255209 0.342188 0.145309
N1    N     N_R   0.433240 0.222190 0.444680 -0.124948
N2    N     N_R   0.566070 0.776970 0.554790 -0.128498
O1    O     O_R   0.468120 0.366740 0.627160 -0.564838
O2    O     O_3   0.726190 0.596790 0.780301 -0.604502
O3    O     O_3   0.194580 0.057292 0.290125 -0.608969
O4    O     O_3   0.928344 0.661427 0.600378 -0.586955
O5    O     O_R   0.510770 0.544830 0.662520 -0.592892
O6    O     O_R   0.663880 0.410950 0.482330 -0.629848
O7    O     O_R   0.706530 0.589040 0.517700 -0.569235
O8    O     O_R   0.489230 0.455170 0.337480 -0.617870
O9    O     O_R   0.531880 0.633260 0.372840 -0.646326
O10   O     O_R   0.293470 0.410960 0.482300 -0.627587
O11   O     O_R   0.336120 0.589050 0.517670 -0.648384
O12   O     O_3   0.413543 0.213015 0.776307 -0.588326
Zn1   Zn    Zn3+2 0.471520 0.381090 0.476390 0.942030
Zn2   Zn    Zn3+2 0.528480 0.618910 0.523610 0.952511

loop_
_geom_bond_atom_site_label_1
_geom_bond_atom_site_label_2
_ccdc_geom_bond_type
C24   H6    S    
C4    O6    A    
C12   C29   S    
C10   C42   A    
N1    Zn1   S    
C1    C11   S    
C44   O12   S    
C36   H21   S    
C7    C8    A    
C45   C46   A    
C2    C46   A    
C12   C23   S    
O8    Zn1   S    
O6    Zn1   S    
C13   O3    S    
C39   H31   S    
C28   C29   S    
C9    H42   S    
C5    C6    A    
C36   H20   S    
C41   O4    S    
C20   C25   A    
C35   H19   S    
C31   O4    S    
C41   H37   S    
O10   Zn1   S    
C18   C19   A    
C23   H10   S    
C23   H23   S    
C19   N2    A    
O1    Zn1   S    
C33   H16   S    
C36   C46   S    
C35   H18   S    
C15   H5    S    
C45   H43   S    
C21   C22   A    
C38   H29   S    
C9    C43   A    
C25   N1    A    
C12   C27   S    
C39   H32   S    
C40   H36   S    
C28   C32   S    
C8    O2    S    
C35   O12   S    
C1    O5    A    
C10   H34   S    
C16   O8    A    
C26   N1    A    
C41   H38   S    
C1    O1    A    
C23   C30   S    
C5    C9    A    
C31   C32   S    
C25   H2    S    
C38   O2    S    
C17   C18   A    
C31   C34   S    
C13   C21   A    
C11   C44   A    
C39   H30   S    
C16   C43   S    
C14   N2    A    
C4    C32   S    
O5    Zn2   S    
N2    Zn2   S    
C28   C33   S    
C3    C8    A    
C33   H14   S    
C37   H25   S    
C6    C42   A    
C34   H13   S    
C22   C24   A    
C13   C26   A    
C37   H26   S    
C2    C5    A    
C40   O3    S    
C12   C34   S    
C44   C45   A    
C40   H33   S    
C38   H28   S    
O9    Zn2   S    
C15   C17   A    
O7    Zn2   S    
C10   C43   A    
C40   H35   S    
C7    H40   S    
C17   H4    S    
C36   H22   S    
C6    C7    A    
C34   H1    S    
C26   H44   S    
C41   H39   S    
C30   H9    S    
C27   O10   A    
C31   H11   S    
C2    C3    A    
C30   C32   S    
C29   H7    S    
C28   C37   S    
C22   C39   S    
C30   H12   S    
C27   O11   A    
C19   C24   A    
O11   Zn2   S    
C18   C20   A    
C3    C11   A    
C14   H3    S    
C16   O9    A    
C20   C21   A    
C33   H15   S    
C29   H8    S    
C4    O7    A    
C14   C15   A    
C35   H17   S    
C42   H41   S    
C37   H24   S    
C38   H27   S    
