data_mof_unit_6122.cif
_audit_creation_date              2013-03-05T16:46:53-0500
_audit_creation_method            fapswitch 2.2
_symmetry_space_group_name_H-M    P1
_symmetry_Int_Tables_number       1
_space_group_crystal_system       triclinic
_cell_length_a                    18.221838
_cell_length_b                    18.238546
_cell_length_c                    18.363772
_cell_angle_alpha                 120.139308
_cell_angle_beta                  89.954471
_cell_angle_gamma                 119.644401
_cell_volume                      4331.16575057

loop_
_atom_site_label
_atom_site_type_symbol
_atom_site_description
_atom_site_fract_x
_atom_site_fract_y
_atom_site_fract_z
_atom_type_partial_charge
Zn1   Zn    Zn3+2 0.456040 0.586770 0.543190 0.976757
Zn2   Zn    Zn3+2 0.456820 0.413240 0.543960 1.028481
Zn3   Zn    Zn3+2 0.631110 0.586750 0.543190 0.993025
Zn4   Zn    Zn3+2 0.456040 0.413240 0.369660 0.998889
O1    O     O_3   0.500000 0.500000 0.500000 -0.493317
O2    O     O_R   0.383400 0.268380 0.323710 -0.640181
O3    O     O_R   0.555060 0.731630 0.615290 -0.643220
O4    O     O_R   0.383950 0.439280 0.616600 -0.604018
O5    O     O_R   0.677590 0.560710 0.444390 -0.642420
O6    O     O_R   0.556370 0.439260 0.616600 -0.640980
O7    O     O_R   0.382640 0.439290 0.322940 -0.647583
O8    O     O_R   0.678360 0.560700 0.616060 -0.629860
O9    O     O_R   0.382640 0.560750 0.444390 -0.642125
O10   O     O_R   0.383400 0.560740 0.616060 -0.652527
O11   O     O_R   0.555060 0.439270 0.322940 -0.637064
O12   O     O_R   0.383950 0.268380 0.445700 -0.627752
O13   O     O_R   0.677590 0.731610 0.615290 -0.648163
C1    C     C_R   0.359817 0.219950 0.361149 0.856491
C2    C     C_R   0.640576 0.780968 0.640957 0.768313
C3    C     C_R   0.357882 0.499477 0.639420 0.837404
C4    C     C_R   0.640378 0.500204 0.359328 0.826690
C5    C     C_R   0.641770 0.501024 0.640962 0.832985
C6    C     C_R   0.357996 0.500271 0.359482 0.778825
C7    C     C_3   0.349220 0.531058 0.242725 -0.443562
H1    H     H_    0.367342 0.476597 0.201339 0.173263
H2    H     H_    0.413073 0.609118 0.285621 0.201594
C8    C     C_3   0.288055 0.527446 0.180306 0.174157
H3    H     H_    0.271486 0.463487 0.110560 0.137878
H4    H     H_    0.224661 0.333813 0.198202 0.201573
H5    H     H_    0.134680 0.332920 0.110772 0.227129
C9    C     C_3   0.211066 0.392230 0.241478 -0.396360
C10   C     C_3   0.278376 0.580091 0.360324 -0.325270
C11   C     C_3   0.300377 0.500892 0.302281 0.084681
H6    H     H_    0.244373 0.561275 0.404793 0.218033
H7    H     H_    0.341087 0.659309 0.403492 0.219869
C12   C     C_3   0.198281 0.500632 0.200576 -0.009876
C13   C     C_3   0.150675 0.392199 0.182183 -0.423205
C14   C     C_3   0.217232 0.578434 0.301148 -0.303245
H8    H     H_    0.248008 0.657558 0.318782 0.245012
H9    H     H_    0.153094 0.555562 0.315702 0.220843
H10   H     H_    0.175301 0.369103 0.283122 0.186795
H11   H     H_    0.086179 0.369976 0.195870 0.216754
C15   C     C_3   0.638814 0.939720 0.730800 -0.403632
H12   H     H_    0.598695 0.908564 0.765994 0.211924
H13   H     H_    0.590878 0.912294 0.670910 0.194398
C16   C     C_3   0.697173 0.059346 0.791867 -0.054366
H14   H     H_    0.678770 0.086789 0.757652 0.164855
H15   H     H_    0.722200 0.905083 0.823313 0.150869
H16   H     H_    0.803395 0.079567 0.913392 0.133344
C17   C     C_3   0.761822 0.936578 0.787870 -0.442893
C18   C     C_3   0.754034 0.942355 0.654175 -0.394165
C19   C     C_3   0.697517 0.897363 0.702045 0.107661
H17   H     H_    0.799039 0.916203 0.635657 0.194465
H18   H     H_    0.709399 0.913594 0.591375 0.166009
C20   C     C_3   0.798552 0.102361 0.807893 0.022203
C21   C     C_3   0.820854 0.056949 0.851075 0.199418
C22   C     C_3   0.810668 0.061667 0.714985 -0.430866
H19   H     H_    0.791204 0.089979 0.682483 0.157065
H20   H     H_    0.881822 0.092926 0.722866 0.239694
H21   H     H_    0.803908 0.906340 0.769677 0.209639
C23   C     C_3   0.640217 0.428941 0.201761 -0.363100
H22   H     H_    0.602212 0.457755 0.192138 0.186476
H23   H     H_    0.589736 0.348424 0.179555 0.236147
C24   C     C_3   0.699996 0.429389 0.142937 -0.447621
H24   H     H_    0.678834 0.348702 0.092838 0.219206
H25   H     H_    0.690585 0.458762 0.105878 0.204404
H26   H     H_    0.725849 0.639376 0.317938 0.187346
H27   H     H_    0.813883 0.638580 0.229437 0.189898
C25   C     C_3   0.763656 0.609941 0.326569 -0.471821
C26   C     C_3   0.754552 0.462779 0.316683 0.081613
C27   C     C_3   0.697718 0.499036 0.301743 0.026685
H28   H     H_    0.801954 0.523491 0.386306 0.147213
C28   C     C_3   0.800010 0.499241 0.200765 0.016791
C29   C     C_3   0.823739 0.610033 0.267203 -0.353057
C30   C     C_3   0.809314 0.454416 0.251266 0.082759
H29   H     H_    0.780376 0.371290 0.199634 0.159341
H30   H     H_    0.806554 0.663918 0.397833 0.197990
H31   H     H_    0.895152 0.665423 0.309596 0.233125
C31   C     C_R   0.427024 0.186419 0.583018 -0.245957
H32   H     H_    0.494157 0.226918 0.624472 0.165743
C32   C     C_R   0.410993 0.151346 0.493366 0.185901
C33   C     C_R   0.323243 0.096512 0.438279 0.105451
C34   C     C_R   0.252856 0.074735 0.473383 -0.180505
H33   H     H_    0.184701 0.030431 0.431278 0.189392
C35   C     C_R   0.269195 0.108897 0.562324 -0.167806
H34   H     H_    0.213657 0.091946 0.587760 0.189395
C36   C     C_R   0.356562 0.166723 0.618411 0.371836
C37   C     C_R   0.254829 0.944209 0.283537 0.116852
C38   C     C_R   0.201587 0.892040 0.195858 -0.098585
C39   C     C_R   0.206818 0.948999 0.162228 0.038683
C40   C     C_R   0.262715 0.055667 0.217026 -0.196538
H35   H     H_    0.267389 0.098406 0.190194 0.173806
C41   C     C_R   0.306780 0.107563 0.306723 -0.070320
C42   C     C_R   0.299673 0.051131 0.341557 -0.013689
C43   C     C_R   0.202668 0.900180 0.009072 -0.176493
H36   H     H_    0.273445 0.932932 0.029358 0.158970
C44   C     C_R   0.158564 0.856066 0.921457 -0.103281
H37   H     H_    0.195088 0.855150 0.874831 0.156096
C45   C     C_R   0.067530 0.813241 0.893914 -0.175609
H38   H     H_    0.033697 0.779447 0.825957 0.160748
C46   C     C_R   0.020076 0.813950 0.953764 -0.182708
H39   H     H_    0.949503 0.780741 0.930878 0.175465
C47   C     C_R   0.063247 0.858307 0.042598 0.355927
C48   C     C_R   0.156044 0.901594 0.070242 0.026256
H40   H     H_    0.970341 0.800047 0.607142 0.149671
C49   C     C_R   0.913542 0.651878 0.584121 -0.104541
H41   H     H_    0.932733 0.622318 0.525665 0.191363
C50   C     C_R   0.867387 0.589664 0.613481 -0.113859
H42   H     H_    0.850686 0.511876 0.577056 0.166291
C51   C     C_R   0.842354 0.627718 0.689259 0.119566
C52   C     C_R   0.864797 0.728899 0.735920 -0.131353
H43   H     H_    0.846130 0.759301 0.794697 0.135898
C53   C     C_R   0.910689 0.790715 0.706126 -0.126992
H44   H     H_    0.927489 0.868449 0.741860 0.171472
C54   C     C_R   0.934886 0.752159 0.630178 -0.104273
C55   C     C_R   0.841624 0.556910 0.772129 -0.257648
H45   H     H_    0.913451 0.599744 0.786757 0.175122
C56   C     C_R   0.799678 0.497745 0.805012 -0.028804
C57   C     C_R   0.705704 0.439756 0.783696 0.008359
C58   C     C_R   0.656608 0.445650 0.732357 -0.202567
H46   H     H_    0.584961 0.403781 0.718450 0.198685
C59   C     C_R   0.698412 0.503951 0.698698 -0.048565
C60   C     C_R   0.792418 0.561567 0.719722 -0.002168
C61   C     C_R   0.625380 0.264260 0.750914 -0.185046
H47   H     H_    0.638972 0.237317 0.688417 0.145729
C62   C     C_R   0.577607 0.194653 0.772861 -0.083696
H48   H     H_    0.554529 0.114675 0.727605 0.163077
C63   C     C_R   0.559137 0.228057 0.852925 -0.048330
H49   H     H_    0.521527 0.173879 0.869537 0.156523
C64   C     C_R   0.588733 0.331214 0.911386 -0.102544
H50   H     H_    0.572767 0.355818 0.972515 0.135703
C65   C     C_R   0.637449 0.401915 0.890464 0.238160
C66   C     C_R   0.655465 0.368168 0.809243 0.107552
H51   H     H_    0.464484 0.951435 0.798445 0.197357
C67   C     C_R   0.461850 0.869327 0.851606 -0.187929
H52   H     H_    0.514248 0.938230 0.913754 0.205457
C68   C     C_R   0.421914 0.773717 0.838019 -0.168066
H53   H     H_    0.443395 0.769781 0.890180 0.168071
C69   C     C_R   0.351959 0.684143 0.759086 0.085533
C70   C     C_R   0.322348 0.691350 0.693790 -0.159491
H54   H     H_    0.266253 0.622267 0.634167 0.172181
C71   C     C_R   0.363588 0.787293 0.706195 0.342608
C72   C     C_R   0.433090 0.876347 0.786220 -0.209816
C73   C     C_R   0.246674 0.583447 0.805970 -0.218498
H55   H     H_    0.250528 0.653063 0.853634 0.176289
C74   C     C_R   0.189450 0.493159 0.800086 -0.070988
C75   C     C_R   0.181102 0.401149 0.735091 -0.033742
C76   C     C_R   0.231466 0.402228 0.677292 0.130666
C77   C     C_R   0.295939 0.496448 0.690288 -0.105947
C78   C     C_R   0.299392 0.586415 0.751719 -0.014196
C79   C     C_R   0.152612 0.270606 0.764119 0.222446
C80   C     C_R   0.101637 0.167651 0.736071 -0.074413
H56   H     H_    0.126763 0.142738 0.765901 0.184946
C81   C     C_R   0.019311 0.095773 0.667647 -0.125558
H57   H     H_    0.980909 0.015775 0.644998 0.154335
C82   C     C_R   0.985760 0.127298 0.629374 -0.163767
H58   H     H_    0.921647 0.071554 0.576768 0.153529
C83   C     C_R   0.035047 0.230424 0.658480 -0.166813
H59   H     H_    0.009840 0.253000 0.625874 0.151601
C84   C     C_R   0.120009 0.302044 0.723889 0.082998
Zn5   Zn    Zn3+2 0.041710 0.413240 0.959030 1.049440
Zn6   Zn    Zn3+2 0.866640 0.413270 0.959030 0.994149
Zn7   Zn    Zn3+2 0.040930 0.586780 0.958260 0.993226
Zn8   Zn    Zn3+2 0.041710 0.586770 0.132560 1.078825
O14   O     O_3   0.997750 0.500010 0.002220 -0.510862
O15   O     O_R   0.942690 0.560750 0.179280 -0.594412
O16   O     O_R   0.114340 0.439270 0.886160 -0.627663
O17   O     O_R   0.820160 0.268410 0.886930 -0.626061
O18   O     O_R   0.113800 0.731630 0.056520 -0.649697
O19   O     O_R   0.819390 0.439310 0.886160 -0.648864
O20   O     O_R   0.115110 0.560720 0.179280 -0.613179
O21   O     O_R   0.941380 0.560750 0.885620 -0.646861
O22   O     O_R   0.115110 0.439270 0.057830 -0.620082
O23   O     O_R   0.942690 0.268390 0.886930 -0.601359
O24   O     O_R   0.114340 0.731630 0.178520 -0.610429
O25   O     O_R   0.820160 0.439310 0.057830 -0.639404
O26   O     O_R   0.113800 0.560730 0.885620 -0.651519
C85   C     C_R   0.857253 0.499801 0.142891 0.813985
C86   C     C_R   0.136492 0.497474 0.859668 0.822552
C87   C     C_R   0.856879 0.219062 0.864478 0.786526
C88   C     C_R   0.140455 0.779894 0.141238 0.849243
C89   C     C_R   0.856058 0.499273 0.861525 0.823859
C90   C     C_R   0.139655 0.499818 0.142888 0.837040
I1    I     I_    0.664998 0.115867 0.914146 -0.453926
N1    N     N_R   0.916178 0.097927 0.876007 0.225807
O27   O     O_R   0.963882 0.157669 0.959834 -0.396803
O28   O     O_R   0.952353 0.068954 0.815823 -0.440148
N2    N     N_R   0.334339 0.623772 0.186027 0.207313
O29   O     O_R   0.340912 0.620480 0.114035 -0.364662
O30   O     O_R   0.373038 0.713187 0.262521 -0.373814
N3    N     N_R   0.699851 0.365524 0.309050 0.202971
O31   O     O_R   0.710324 0.365216 0.378957 -0.372119
O32   O     O_R   0.642948 0.278634 0.232897 -0.385708
N4    N     N_R   0.902819 0.503882 0.298296 0.212141
O33   O     O_R   0.936124 0.449716 0.273816 -0.382431
O34   O     O_R   0.952519 0.600455 0.366043 -0.412964
N5    N     N_R   0.373582 0.205935 0.710996 0.221076
O35   O     O_R   0.450944 0.288824 0.769347 -0.402820
O36   O     O_R   0.309771 0.164596 0.738625 -0.383458
I2    I     I_    0.520630 0.181127 0.444724 -0.255026
I3    I     I_    0.278154 0.868278 0.331375 -0.194615
N6    N     N_R   0.012152 0.857892 0.102530 0.187551
O37   O     O_R   0.049491 0.929887 0.187818 -0.392952
O38   O     O_R   0.926002 0.789568 0.071070 -0.382028
I4    I     I_    0.681479 0.557463 0.982909 -0.267466
N7    N     N_R   0.333727 0.794639 0.639084 0.206514
O39   O     O_R   0.264091 0.713916 0.568621 -0.407457
O40   O     O_R   0.375712 0.882236 0.647943 -0.396135
I5    I     I_    0.197556 0.257888 0.560529 -0.353599
I6    I     I_    0.280148 0.373851 0.863463 -0.178035

loop_
_geom_bond_atom_site_label_1
_geom_bond_atom_site_label_2
_geom_bond_distance
_ccdc_geom_bond_type
O16   C86   1.273153 A    
C20   C21   1.572572 S    
C41   C42   1.419311 A    
C33   C42   1.482428 S    
C55   C60   1.377001 A    
C20   C87   1.510831 S    
C25   H30   1.113302 S    
C43   H36   1.083560 S    
C7    C8    1.553703 S    
C15   H12   1.110022 S    
C63   H49   1.082406 S    
C32   I2    2.120138 S    
C31   C36   1.406022 A    
C44   H37   1.082612 S    
C39   C40   1.382167 A    
C67   H52   1.080705 S    
C35   H34   1.082901 S    
C50   H42   1.083083 S    
C68   C69   1.399918 A    
Zn8   O15   1.943256 S    
C57   C66   1.481533 S    
N6    O38   1.301650 A    
C61   C66   1.405027 A    
C4    C27   1.485958 S    
Zn1   O1    1.941072 S    
O20   C90   1.275139 A    
C12   C13   1.552504 S    
C79   I6    2.121967 S    
C70   C71   1.406334 A    
C74   C75   1.414289 A    
C14   H8    1.110110 S    
N7    O40   1.301669 A    
C15   C19   1.557804 S    
C22   H20   1.101483 S    
Zn6   O25   1.940330 S    
C49   H41   1.081678 S    
H27   C29   1.113393 S    
O8    C5    1.272699 A    
C55   H45   1.083438 S    
O9    C6    1.278094 A    
Zn8   O24   1.935918 S    
N2    O30   1.301358 A    
C28   C29   1.555455 S    
C16   I1    2.172535 S    
C13   H11   1.113210 S    
C23   H23   1.109919 S    
C56   C57   1.413441 A    
C73   C78   1.385435 A    
Zn3   O8    1.950040 S    
C47   C48   1.420738 A    
C75   C76   1.403841 A    
C10   H6    1.113030 S    
H51   C72   1.081516 S    
C51   C52   1.404651 A    
C2    C19   1.507681 S    
C52   H43   1.083127 S    
C55   C56   1.396771 A    
C65   C66   1.410134 A    
C6    C11   1.493764 S    
Zn6   O19   1.949895 S    
C16   C20   1.565249 S    
Zn7   O26   1.937286 S    
C17   C19   1.552556 S    
C24   C28   1.555557 S    
C9    C11   1.553400 S    
C7    H1    1.113222 S    
C26   C27   1.563677 S    
O15   C85   1.284398 A    
C10   C14   1.535826 S    
C37   I3    2.162132 S    
Zn2   O12   1.935312 S    
C81   C82   1.397334 A    
O24   C88   1.288550 A    
C23   C27   1.556955 S    
H15   C17   1.113233 S    
N4    O33   1.301173 A    
C65   I4    2.118532 S    
C46   C47   1.407744 A    
O19   C89   1.273038 A    
C83   C84   1.404533 A    
C28   C30   1.567128 S    
N5    O35   1.299366 A    
C75   C84   1.478231 S    
C44   C45   1.393010 A    
C58   C59   1.396787 A    
C26   N3    1.470054 S    
C5    C59   1.443124 S    
C35   C36   1.399419 A    
O2    C1    1.292832 A    
C37   C42   1.394411 A    
C25   C27   1.553586 S    
N6    O37   1.301086 A    
N3    O31   1.301227 A    
C46   H39   1.082566 S    
O10   C3    1.271131 A    
C70   H54   1.083298 S    
C73   C74   1.390516 A    
C40   H35   1.085175 S    
C31   C32   1.401197 A    
N7    O39   1.301349 A    
C73   H55   1.085849 S    
C32   C33   1.408880 A    
O26   C86   1.283967 A    
O17   C87   1.284669 A    
O6    C5    1.285163 A    
C9    C13   1.548331 S    
H5    C13   1.112962 S    
N2    O29   1.301107 A    
H26   C25   1.113288 S    
C24   H25   1.112089 S    
C23   C24   1.533519 S    
C64   C65   1.401076 A    
C30   H29   1.114462 S    
N3    O32   1.301342 A    
Zn3   O5    1.940330 S    
C51   C60   1.479033 S    
C40   C41   1.392279 A    
Zn6   O14   1.960513 S    
Zn5   O22   1.953672 S    
C34   H33   1.083766 S    
C82   C83   1.396480 A    
C79   C80   1.399357 A    
C39   C48   1.483751 S    
N4    O34   1.301387 A    
C58   H46   1.082238 S    
C25   C29   1.544424 S    
C52   C53   1.398510 A    
C12   C90   1.494674 S    
O4    C3    1.288473 A    
C76   C77   1.407719 A    
Zn4   O7    1.946912 S    
Zn7   O21   1.952258 S    
C15   H13   1.113372 S    
O18   C88   1.278330 A    
C81   H57   1.082843 S    
Zn5   O16   1.944535 S    
C18   C22   1.545133 S    
C28   C85   1.488700 S    
Zn4   O2    1.935964 S    
C34   C35   1.392778 A    
C80   C81   1.396867 A    
C33   C34   1.403645 A    
O3    C2    1.283831 A    
C20   C22   1.549322 S    
C83   H59   1.083570 S    
Zn6   O17   1.930305 S    
Zn2   O1    1.955717 S    
Zn1   O9    1.953773 S    
C3    C77   1.462236 S    
C36   N5    1.434831 S    
C12   C14   1.558301 S    
Zn2   O6    1.952359 S    
O23   C87   1.288904 A    
C26   C30   1.557823 S    
C43   C48   1.405474 A    
C61   C62   1.397125 A    
C53   H44   1.082167 S    
C56   C89   1.441373 S    
C67   C68   1.393075 A    
C16   H14   1.113519 S    
Zn8   O14   1.954565 S    
C62   C63   1.395948 A    
C9    H10   1.112953 S    
Zn7   O14   1.955865 S    
Zn1   O3    1.940149 S    
H40   C54   1.082402 S    
Zn2   O4    1.937242 S    
C10   H7    1.113435 S    
C7    H2    1.112573 S    
Zn4   O1    1.954565 S    
Zn3   O1    1.960513 S    
C63   C64   1.397154 A    
C69   C70   1.405589 A    
C43   C44   1.394410 A    
Zn1   O10   1.944637 S    
C8    C12   1.563374 S    
C21   N1    1.469253 S    
H16   C21   1.111827 S    
C68   H53   1.083218 S    
C69   C78   1.477147 S    
N1    O27   1.301287 A    
C7    C11   1.552179 S    
C45   H38   1.081783 S    
C49   C54   1.398286 A    
C18   H18   1.112929 S    
C17   H21   1.112129 S    
C79   C84   1.410873 A    
Zn4   O11   1.943260 S    
N5    O36   1.301477 A    
C64   H50   1.081162 S    
C38   C39   1.419816 A    
C47   N6    1.441507 S    
C18   C19   1.547159 S    
H4    C9    1.112938 S    
C76   I5    2.152722 S    
C10   C11   1.552210 S    
C14   H9    1.113793 S    
Zn5   O23   1.940048 S    
O5    C4    1.283756 A    
C22   H19   1.113387 S    
C49   C50   1.398274 A    
C62   H48   1.082428 S    
C24   H24   1.113710 S    
O7    C6    1.277914 A    
C67   C72   1.398044 A    
O13   C2    1.288975 A    
C50   C51   1.403035 A    
C74   C86   1.456564 S    
Zn3   O13   1.930305 S    
C8    N2    1.468981 S    
C71   N7    1.439389 S    
C23   H22   1.113769 S    
Zn7   O18   1.935209 S    
C15   C16   1.548677 S    
C17   C21   1.559176 S    
N1    O28   1.300836 A    
C31   H32   1.079114 S    
C30   N4    1.470411 S    
O21   C89   1.283973 A    
O11   C4    1.282685 A    
C82   H58   1.082705 S    
C37   C38   1.410644 A    
O22   C90   1.280500 A    
O12   C1    1.274362 A    
C57   C58   1.378028 A    
C29   H31   1.109654 S    
C8    H3    1.115454 S    
C1    C41   1.455720 S    
C71   C72   1.404550 A    
C61   H47   1.083313 S    
Zn8   O20   1.946908 S    
C26   H28   1.113901 S    
C80   H56   1.082704 S    
C18   H17   1.113223 S    
C59   C60   1.414404 A    
C77   C78   1.417091 A    
C45   C46   1.396813 A    
Zn5   O14   1.941072 S    
C38   C88   1.455400 S    
O25   C85   1.283516 A    
C53   C54   1.398181 A    
