data_mof_unit_34103.cif
_audit_creation_date              2013-03-05T16:17:51-0500
_audit_creation_method            fapswitch 2.2
_symmetry_space_group_name_H-M    P1
_symmetry_Int_Tables_number       1
_space_group_crystal_system       triclinic
_cell_length_a                    15.114852
_cell_length_b                    15.217005
_cell_length_c                    9.740348
_cell_angle_alpha                 89.10038
_cell_angle_beta                  89.88818
_cell_angle_gamma                 90.01187
_cell_volume                      2240.02662603

loop_
_atom_site_label
_atom_site_type_symbol
_atom_site_description
_atom_site_fract_x
_atom_site_fract_y
_atom_site_fract_z
_atom_type_partial_charge
O1    O     O_R   0.092530 0.407440 0.616040 -0.648221
O2    O     O_R   0.092530 0.407440 0.383960 -0.574890
O3    O     O_R   0.092530 0.592560 0.383960 -0.654209
O4    O     O_R   0.092530 0.592560 0.616040 -0.572101
O5    O     O_R   0.592530 0.907440 0.616040 -0.649146
O6    O     O_R   0.592530 0.907440 0.383960 -0.574104
O7    O     O_R   0.592530 0.092560 0.383960 -0.608594
O8    O     O_R   0.592530 0.092560 0.616040 -0.582848
C1    C     C_R   0.120627 0.378353 0.500565 0.946730
C2    C     C_R   0.121198 0.621038 0.499363 0.933323
C3    C     C_R   0.620687 0.878384 0.500626 0.942299
C4    C     C_R   0.621502 0.120719 0.499366 0.942848
O9    O     O_R   0.907330 0.407420 0.616040 -0.624606
O10   O     O_R   0.907330 0.407420 0.383960 -0.604105
O11   O     O_R   0.907330 0.592580 0.383960 -0.600096
O12   O     O_R   0.907330 0.592580 0.616040 -0.605552
O13   O     O_R   0.407330 0.907420 0.616040 -0.631155
O14   O     O_R   0.407330 0.907420 0.383960 -0.616250
O15   O     O_R   0.407330 0.092580 0.383960 -0.534286
O16   O     O_R   0.407330 0.092580 0.616040 -0.604427
C5    C     C_R   0.878129 0.379425 0.500602 0.986283
C6    C     C_R   0.878844 0.621214 0.499420 0.976401
C7    C     C_R   0.377873 0.879681 0.500564 0.978357
C8    C     C_R   0.378674 0.121074 0.499385 0.982567
Zn1   Zn    Zn3+2 0.999890 0.500000 0.654960 1.006281
Zn2   Zn    Zn3+2 0.999890 0.500000 0.345040 1.012805
Zn3   Zn    Zn3+2 0.499890 0.000000 0.654960 1.005198
Zn4   Zn    Zn3+2 0.499890 1.000000 0.345040 1.054907
C9    C     C_3   0.848089 0.225408 0.564478 -0.524581
C10   C     C_3   0.783217 0.291136 0.350792 -0.432128
C11   C     C_3   0.850425 0.776979 0.445397 -0.438950
C12   C     C_3   0.777910 0.703718 0.647945 -0.535288
C13   C     C_3   0.348241 0.725327 0.562188 -0.526838
C14   C     C_3   0.281619 0.792737 0.350635 -0.432362
C15   C     C_3   0.350133 0.276764 0.444975 -0.422033
C16   C     C_3   0.277555 0.203489 0.647712 -0.530281
H1    H     H_    0.871243 0.236085 0.670987 0.266356
H2    H     H_    0.763917 0.352958 0.295860 0.263653
H3    H     H_    0.877925 0.768940 0.340417 0.287997
H4    H     H_    0.755938 0.640368 0.695579 0.236860
H5    H     H_    0.372465 0.735432 0.668268 0.266664
H6    H     H_    0.260777 0.854681 0.297379 0.259228
H7    H     H_    0.377545 0.268561 0.339998 0.300875
H8    H     H_    0.254921 0.140285 0.695054 0.237878
H9    H     H_    0.907720 0.205317 0.505421 0.211291
H10   H     H_    0.841013 0.264282 0.293833 0.203730
H11   H     H_    0.907045 0.796280 0.511480 0.180323
H12   H     H_    0.833645 0.727301 0.712547 0.231398
H13   H     H_    0.407258 0.705571 0.501388 0.211496
H14   H     H_    0.339132 0.767106 0.291635 0.199076
H15   H     H_    0.406728 0.296163 0.511044 0.175974
H16   H     H_    0.333380 0.226523 0.712613 0.233393
C17   C     C_3   0.278428 0.651210 0.556025 0.097372
C18   C     C_3   0.207187 0.724965 0.348588 0.124965
C19   C     C_3   0.278549 0.349395 0.447788 0.089925
C20   C     C_3   0.204348 0.272364 0.650529 0.108403
C21   C     C_3   0.778353 0.151314 0.557575 0.095970
C22   C     C_3   0.707798 0.224252 0.348257 0.135376
C23   C     C_3   0.778794 0.849576 0.448711 0.100559
C24   C     C_3   0.704024 0.771957 0.650769 0.109233
H17   H     H_    0.302626 0.602363 0.480861 0.164319
H18   H     H_    0.230917 0.668350 0.287218 0.145409
H19   H     H_    0.300340 0.398905 0.523395 0.158232
H20   H     H_    0.228323 0.327920 0.713875 0.157750
H21   H     H_    0.803061 0.102294 0.483093 0.163762
H22   H     H_    0.730644 0.167651 0.286147 0.142265
H23   H     H_    0.800436 0.898832 0.524868 0.157423
H24   H     H_    0.727087 0.827336 0.715247 0.158898
H25   H     H_    0.154411 0.741369 0.701609 0.210521
H26   H     H_    0.090583 0.787380 0.572393 0.204241
H27   H     H_    0.151032 0.261158 0.298157 0.227257
H28   H     H_    0.093853 0.207617 0.428371 0.203851
H29   H     H_    0.651891 0.242847 0.699404 0.207232
H30   H     H_    0.590642 0.288359 0.565604 0.203085
H31   H     H_    0.651891 0.761342 0.298625 0.229955
H32   H     H_    0.594137 0.707698 0.428099 0.204367
C25   C     C_3   0.725178 0.342646 0.581785 0.807605
C26   C     C_3   0.731426 0.661870 0.403268 0.816234
C27   C     C_3   0.225363 0.842391 0.583758 0.808421
C28   C     C_3   0.231149 0.161694 0.402924 0.810319
C29   C     C_3   0.809681 0.311370 0.501261 -0.086773
C30   C     C_3   0.810404 0.689161 0.498403 -0.073108
C31   C     C_3   0.309301 0.811754 0.501104 -0.080931
C32   C     C_3   0.310119 0.188961 0.498194 -0.082567
C33   C     C_3   0.188852 0.689727 0.499421 -0.177254
C34   C     C_3   0.188280 0.309549 0.500577 -0.172215
C35   C     C_3   0.689083 0.189500 0.499216 -0.178588
C36   C     C_3   0.688415 0.809588 0.500931 -0.174507
C37   C     C_3   0.159063 0.765342 0.594184 -0.410274
C38   C     C_3   0.160037 0.234644 0.403512 -0.433560
C39   C     C_3   0.658428 0.265916 0.591644 -0.422998
C40   C     C_3   0.660391 0.734767 0.403764 -0.433822
C41   C     C_3   0.049055 0.424161 0.083587 0.319730
C42   C     C_3   0.039974 0.418663 0.921727 0.193282
C43   C     C_3   0.048635 0.576117 0.916213 0.318892
C44   C     C_3   0.039568 0.581549 0.078157 0.196260
C45   C     C_3   0.555019 0.928460 0.083142 0.304834
C46   C     C_3   0.546408 0.922289 0.921439 0.188361
C47   C     C_3   0.541596 0.080263 0.916488 0.235039
C48   C     C_3   0.532517 0.084628 0.079366 0.231305
H33   H     H_    0.120373 0.432912 0.109132 0.106942
H34   H     H_    0.107585 0.410146 0.878113 0.120201
H35   H     H_    0.119970 0.567633 0.890339 0.111001
H36   H     H_    0.107202 0.590246 0.121240 0.115973
H37   H     H_    0.625412 0.942567 0.108836 0.109024
H38   H     H_    0.614254 0.918907 0.877077 0.128969
H39   H     H_    0.613454 0.077673 0.890701 0.123186
H40   H     H_    0.599325 0.097709 0.122605 0.106718
H41   H     H_    0.876355 0.430741 0.110763 0.215276
H42   H     H_    0.864903 0.453435 0.874373 0.226570
H43   H     H_    0.875962 0.568533 0.889868 0.221195
H44   H     H_    0.864636 0.545721 0.126432 0.234054
H45   H     H_    0.382323 0.921235 0.110985 0.205502
H46   H     H_    0.369230 0.942560 0.875157 0.221546
H47   H     H_    0.370507 0.058141 0.889774 0.223911
H48   H     H_    0.361196 0.034834 0.126942 0.233872
C49   C     C_3   0.907411 0.494539 0.081055 -0.210189
C50   C     C_3   0.907379 0.504931 0.919457 -0.210229
C51   C     C_3   0.408094 0.987321 0.081283 -0.194069
C52   C     C_3   0.407244 0.997486 0.919664 -0.218553
N1    N     N_3   0.998760 0.500000 0.138610 -0.153869
N2    N     N_3   0.998760 0.500000 0.861390 -0.154702
N3    N     N_3   0.498760 0.000000 0.138610 -0.120786
N4    N     N_3   0.498760 1.000000 0.861390 -0.143936
N5    N     N_R   0.269789 0.605474 0.689842 0.243770
O17   O     O_R   0.275727 0.520270 0.696323 -0.420844
O18   O     O_R   0.265206 0.648674 0.803922 -0.405526
N6    N     N_R   0.130598 0.762503 0.275205 0.241622
O19   O     O_R   0.137312 0.777975 0.143791 -0.352982
O20   O     O_R   0.060230 0.789453 0.338768 -0.408297
N7    N     N_R   0.271618 0.394292 0.313175 0.239612
O21   O     O_R   0.277789 0.479462 0.305409 -0.424334
O22   O     O_R   0.267606 0.350214 0.199881 -0.356160
N8    N     N_R   0.126539 0.235164 0.721639 0.224471
O23   O     O_R   0.132414 0.215940 0.851986 -0.346585
O24   O     O_R   0.054298 0.214950 0.657359 -0.452522
N9    N     N_R   0.768893 0.106026 0.691569 0.244447
O25   O     O_R   0.776168 0.020945 0.699202 -0.417946
O26   O     O_R   0.761935 0.149704 0.804903 -0.406741
N10   N     N_R   0.631511 0.263367 0.275889 0.245562
O27   O     O_R   0.641606 0.290610 0.149447 -0.399947
O28   O     O_R   0.554142 0.270920 0.332972 -0.404848
N11   N     N_R   0.772030 0.894894 0.314430 0.241297
O29   O     O_R   0.778519 0.980053 0.307276 -0.426483
O30   O     O_R   0.767942 0.851160 0.200813 -0.352445
N12   N     N_R   0.626178 0.733448 0.720160 0.230860
O31   O     O_R   0.632388 0.710505 0.849090 -0.336163
O32   O     O_R   0.552663 0.717770 0.656154 -0.450901
O33   O     O_3   0.746208 0.372983 0.714139 -0.765722
H49   H     H_    0.770434 0.323400 0.769374 0.354712
O34   O     O_3   0.685711 0.412090 0.507823 -0.688652
H50   H     H_    0.635780 0.434104 0.564201 0.371702
O35   O     O_3   0.762185 0.652250 0.267641 -0.715930
H51   H     H_    0.713601 0.625595 0.213751 0.368433
O36   O     O_3   0.695185 0.581157 0.447952 -0.732208
H52   H     H_    0.661609 0.590634 0.533995 0.349092
O37   O     O_3   0.247363 0.872107 0.716064 -0.768690
H53   H     H_    0.272508 0.822396 0.769990 0.350654
O38   O     O_3   0.184986 0.912053 0.511534 -0.683762
H54   H     H_    0.135613 0.933748 0.569372 0.373700
O39   O     O_3   0.261995 0.152198 0.267294 -0.700621
H55   H     H_    0.213631 0.125019 0.213495 0.367636
O40   O     O_3   0.194955 0.080895 0.447415 -0.735035
H56   H     H_    0.161220 0.090302 0.533319 0.351655
O41   O     O_3   0.019762 0.346066 0.148036 -0.672828
H57   H     H_    0.060342 0.298775 0.118170 0.372259
O42   O     O_3   0.989045 0.344428 0.889756 -0.666254
H58   H     H_    0.992710 0.337410 0.789687 0.404542
O43   O     O_3   0.019038 0.654089 0.851956 -0.669023
H59   H     H_    0.060193 0.701322 0.879995 0.373953
O44   O     O_3   0.988316 0.655521 0.110796 -0.645029
H60   H     H_    0.994027 0.664057 0.210385 0.403195
O45   O     O_3   0.531733 0.848187 0.146885 -0.674037
H61   H     H_    0.574577 0.803817 0.113906 0.377536
O46   O     O_3   0.501573 0.844134 0.890105 -0.665149
H62   H     H_    0.495894 0.842317 0.789687 0.405489
O47   O     O_3   0.505167 0.155235 0.852068 -0.697139
H63   H     H_    0.547504 0.204108 0.865882 0.339913
O48   O     O_3   0.475557 0.153073 0.118638 -0.641566
H64   H     H_    0.504496 0.209333 0.093441 0.399459

loop_
_geom_bond_atom_site_label_1
_geom_bond_atom_site_label_2
_geom_bond_distance
_ccdc_geom_bond_type
O44   H60   0.984668 S    
C2    C33   1.462114 S    
C41   C42   1.586317 S    
C35   C39   1.552035 S    
O43   H59   0.992360 S    
C43   C44   1.586514 S    
C14   H6    1.114552 S    
C28   C32   1.572963 S    
O9    Zn1   2.025762 S    
C22   C35   1.579757 S    
C25   O34   1.403420 S    
C45   C46   1.584920 S    
C24   C36   1.577586 S    
Zn4   N3    2.010807 S    
H41   C49   1.112215 S    
O45   H61   0.992265 S    
C46   N4    1.496475 S    
N9    O26   1.301558 A    
O41   H57   0.992357 S    
C11   C30   1.547597 S    
C7    C31   1.463576 S    
C44   N1    1.497467 S    
H43   C50   1.112306 S    
C6    C30   1.462677 S    
O10   C5    1.284469 A    
N10   O28   1.299765 A    
C47   O47   1.406253 S    
C27   O38   1.403415 S    
H44   C49   1.108988 S    
C26   O36   1.407117 S    
C13   H13   1.113758 S    
N11   O29   1.300319 A    
C10   H2    1.114138 S    
C50   N2    1.493847 S    
C11   C23   1.547615 S    
C49   N1    1.493990 S    
C23   C36   1.575556 S    
C23   H23   1.112370 S    
H45   C51   1.112192 S    
O40   H56   0.991330 S    
C17   H17   1.112851 S    
C22   H22   1.114785 S    
O11   C6    1.285915 A    
O6    Zn4   2.018501 S    
C36   C40   1.551342 S    
C44   O44   1.406730 S    
C19   H19   1.112068 S    
O34   H50   0.993791 S    
C20   H20   1.115276 S    
Zn2   N1    2.010807 S    
C15   H7    1.111375 S    
Zn1   N2    2.010740 S    
H47   C52   1.112391 S    
C16   H16   1.115068 S    
O5    Zn3   2.025768 S    
C45   H37   1.115078 S    
C41   O41   1.406269 S    
C11   H11   1.113975 S    
N6    O19   1.301607 A    
O1    Zn1   2.025768 S    
C12   H12   1.115097 S    
H42   C50   1.109409 S    
C24   N12   1.472703 S    
H25   C37   1.104810 S    
C21   N9    1.473019 S    
C43   H35   1.114778 S    
O39   H55   0.994076 S    
N12   O32   1.299055 A    
C13   C17   1.546273 S    
O7    C4    1.286829 A    
C14   H14   1.115035 S    
C48   H40   1.113937 S    
C9    C21   1.545609 S    
C15   C19   1.547351 S    
O14   C7    1.284238 A    
O13   Zn3   2.025762 S    
O16   C8    1.285781 A    
O14   Zn4   2.016440 S    
N10   O27   1.301982 A    
H29   C39   1.105757 S    
C34   C38   1.552594 S    
C25   O33   1.412918 S    
O42   H58   0.983654 S    
C33   C37   1.552614 S    
O11   Zn2   2.025142 S    
N8    O24   1.299024 A    
C18   H18   1.115180 S    
C26   C40   1.544005 S    
C18   N6    1.472409 S    
O7    Zn4   2.026386 S    
C21   C35   1.573005 S    
O37   H53   0.990459 S    
C9    H9    1.113707 S    
H30   C39   1.108683 S    
C43   O43   1.406287 S    
C28   O40   1.407429 S    
C9    C29   1.550377 S    
C16   C20   1.524736 S    
C1    C34   1.463660 S    
H28   C38   1.106450 S    
C26   C30   1.572367 S    
C20   C34   1.577324 S    
O38   H54   0.993774 S    
C25   C29   1.575146 S    
C3    C36   1.464327 S    
O8    C4    1.284356 A    
C41   N1    1.488335 S    
O1    C1    1.286551 A    
O2    Zn2   2.018501 S    
O13   C7    1.287748 A    
O10   Zn2   2.016440 S    
C51   C52   1.579460 S    
O15   Zn4   2.025142 S    
C13   C31   1.551509 S    
C42   H34   1.114316 S    
C17   N5    1.473479 S    
H31   C40   1.102878 S    
H32   C40   1.106581 S    
C42   N2    1.498090 S    
C43   N2    1.488512 S    
C5    C29   1.463614 S    
C14   C18   1.526387 S    
C19   N7    1.472870 S    
C44   H36   1.114458 S    
C15   H15   1.114008 S    
N5    O17   1.300224 A    
C16   H8    1.113559 S    
H26   C37   1.107983 S    
C14   C31   1.556448 S    
C12   C24   1.525611 S    
C41   H33   1.115209 S    
N7    O21   1.300372 A    
O4    Zn1   2.017068 S    
O6    C3    1.286132 A    
Zn3   N4    2.010740 S    
C12   C30   1.555421 S    
N12   O31   1.301721 A    
C22   N10   1.473438 S    
O12   Zn1   2.017870 S    
N11   O30   1.301849 A    
C25   C39   1.544675 S    
O12   C6    1.285298 A    
C4    C35   1.462316 S    
C10   H10   1.115024 S    
O3    Zn2   2.026386 S    
C21   H21   1.112778 S    
N7    O22   1.301855 A    
N6    O20   1.299361 A    
C42   O42   1.406149 S    
C27   O37   1.412693 S    
C18   C33   1.580002 S    
C20   N8    1.472268 S    
C15   C32   1.548034 S    
H48   C51   1.109990 S    
C26   O35   1.409429 S    
O5    C3    1.286156 A    
N8    O23   1.301617 A    
O16   Zn3   2.017870 S    
C51   N3    1.494414 S    
C47   H39   1.115162 S    
N9    O25   1.300334 A    
C46   H38   1.113534 S    
C47   C48   1.594576 S    
C48   N3    1.492309 S    
C13   H5    1.109856 S    
C19   C34   1.575042 S    
O15   C8    1.285729 A    
C8    C32   1.463252 S    
C45   N3    1.489003 S    
O3    C2    1.286938 A    
O33   H49   0.990420 S    
O9    C5    1.287426 A    
C27   C31   1.575810 S    
C46   O46   1.406637 S    
O2    C1    1.285460 A    
H27   C38   1.105419 S    
C16   C32   1.555455 S    
C10   C22   1.528524 S    
C11   H3    1.111590 S    
O46   H62   0.982857 S    
C12   H4    1.113586 S    
C28   C38   1.545397 S    
C28   O39   1.409662 S    
C27   C37   1.544215 S    
C45   O45   1.405930 S    
C23   N11   1.472737 S    
O48   H64   0.988601 S    
C24   H24   1.115105 S    
O47   H63   0.991958 S    
C9    H1    1.109879 S    
O36   H52   0.991416 S    
N5    O18   1.301655 A    
O8    Zn3   2.017068 S    
C17   C33   1.572795 S    
O35   H51   0.993660 S    
C49   C50   1.579474 S    
C48   O48   1.408510 S    
O4    C2    1.284390 A    
C10   C29   1.555396 S    
H46   C52   1.108508 S    
C52   N4    1.494409 S    
C47   N4    1.490156 S    
