data_mof_unit_43211.cif
_audit_creation_date              2012-10-26T19:02:55-0400
_audit_creation_method            fapswitch 2.2
_symmetry_space_group_name_H-M    P1
_symmetry_Int_Tables_number       1
_space_group_crystal_system       triclinic
_cell_length_a                    15.127267
_cell_length_b                    10.866409
_cell_length_c                    10.07499
_cell_angle_alpha                 108.788778
_cell_angle_beta                  99.401494
_cell_angle_gamma                 96.400546
_cell_volume                      1522.74829725

loop_
_atom_site_label
_atom_site_type_symbol
_atom_type_description
_atom_site_fract_x
_atom_site_fract_y
_atom_site_fract_z
_atom_type_partial_charge
C1    C     C_R   0.499858 0.254763 0.443436 0.559284
C2    C     C_2   0.492290 0.470833 0.907659 0.233677
C3    C     C_R   0.328389 0.489874 0.496741 0.583804
C4    C     C_R   0.671594 0.512018 0.504264 0.564912
C5    C     C_R   0.837126 0.631152 0.594078 0.247200
C6    C     C_R   0.164624 0.366402 0.434964 0.231928
C7    C     C_R   0.769597 0.518373 0.509908 0.010938
C8    C     C_R   0.230565 0.484648 0.494176 0.004108
C9    C     C_R   0.794925 0.402748 0.429187 -0.125934
C10   C     C_R   0.204282 0.604635 0.560204 -0.128626
C11   C     C_R   0.885924 0.393518 0.428432 0.022623
C12   C     C_R   0.508856 0.746570 0.557522 0.528750
C13   C     C_R   0.114072 0.611973 0.570609 0.022239
C14   C     C_R   0.953879 0.505873 0.504528 0.007344
C15   C     C_R   0.046417 0.498178 0.500452 0.008045
C16   C     C_R   0.929851 0.625081 0.586822 0.001518
C17   C     C_R   0.071243 0.375852 0.429404 0.001181
C18   C     C_R   0.910584 0.273572 0.354129 0.094248
C19   C     C_R   0.089991 0.730345 0.650934 0.092856
C20   C     C_R   0.001689 0.265180 0.357399 -0.037553
C21   C     C_R   0.999927 0.734910 0.661043 -0.037915
C22   C     C_2   0.508114 0.114924 0.421329 0.204407
C23   C     C_2   0.516369 0.889317 0.585495 0.200617
C24   C     C_2   0.565866 0.085710 0.521241 0.074299
C25   C     C_2   0.567150 0.948760 0.516369 0.103871
C26   C     C_2   0.518013 0.451883 0.053255 0.269036
Cu1   Cu    Cu3+1 0.515770 0.521810 0.644910 1.192660
Cu2   Cu    Cu3+1 0.484230 0.478190 0.355090 1.223501
H1    H     H_    0.741926 0.318175 0.369739 0.161868
H2    H     H_    0.262380 0.211252 0.122891 0.401293
H3    H     H_    0.255997 0.692297 0.606062 0.139815
H4    H     H_    0.015771 0.169832 0.300333 0.222625
H5    H     H_    0.987195 0.827352 0.728704 0.222659
H6    H     H_    0.693337 0.869194 0.751446 0.373761
H7    H     H_    0.316230 0.125642 0.430893 0.406531
H8    H     H_    0.385293 0.824331 0.766059 0.336369
H9    H     H_    0.341917 0.966456 0.078205 0.396697
H10   H     H_    0.689230 0.865790 0.999123 0.386635
I1    I     I_    0.815692 0.096427 0.236891 -0.170296
I2    I     I_    0.184751 0.907829 0.769118 -0.116259
I3    I     I_    0.668578 0.862716 0.417233 -0.034021
I4    I     I_    0.678129 0.226145 0.669990 -0.157575
I5    I     I_    0.382702 0.327537 0.752944 0.058563
I6    I     I_    0.637654 0.367425 0.075157 -0.046477
N1    N     N_2   0.460520 0.445420 0.137370 -0.104974
N2    N     N_2   0.539480 0.554580 0.862630 -0.088252
O1    O     O_R   0.508410 0.332340 0.577400 -0.515735
O2    O     O_2   0.844948 0.893424 0.667309 -0.269634
O3    O     O_3   0.698802 0.775964 0.703914 -0.491891
O4    O     O_2   0.157591 0.139334 0.484460 -0.229591
O5    O     O_2   0.155554 0.125110 0.237318 -0.274309
O6    O     O_3   0.308200 0.211348 0.420193 -0.481832
O7    O     O_2   0.511519 0.111925 0.795721 -0.218239
O8    O     O_2   0.367878 0.994720 0.628419 -0.245286
O9    O     O_3   0.433992 0.900464 0.823108 -0.411664
O10   O     O_2   0.504621 0.911143 0.182919 -0.198074
O11   O     O_2   0.382302 0.893314 0.310849 -0.270405
O12   O     O_R   0.491590 0.667660 0.422600 -0.492130
O13   O     O_3   0.376209 0.045427 0.158991 -0.416302
O14   O     O_2   0.648443 0.670799 0.121008 -0.262226
O15   O     O_2   0.717653 0.620575 0.912141 -0.186535
O16   O     O_3   0.626756 0.814353 0.961764 -0.407860
O17   O     O_2   0.288722 0.377818 0.991377 -0.263238
O18   O     O_2   0.383394 0.200980 0.963439 -0.170443
O19   O     O_3   0.317889 0.274484 0.182226 -0.390516
O20   O     O_R   0.481780 0.295500 0.332650 -0.398902
O21   O     O_R   0.518220 0.704500 0.667350 -0.440660
O22   O     O_R   0.383570 0.518390 0.622380 -0.523413
O23   O     O_R   0.616430 0.481610 0.377620 -0.521989
O24   O     O_R   0.356940 0.481550 0.377630 -0.423814
O25   O     O_R   0.643060 0.518450 0.622370 -0.425598
O26   O     O_2   0.856986 0.802849 0.860870 -0.225151
S1    S     S_3+6 0.809916 0.779227 0.709175 0.044786
S2    S     S_3+6 0.195842 0.206536 0.391740 0.049922
S3    S     S_3+6 0.455831 0.978413 0.709230 0.077934
S4    S     S_3+6 0.441948 0.986159 0.266052 0.069016
S5    S     S_3+6 0.636014 0.663814 0.968511 0.192642
S6    S     S_3+6 0.362374 0.324581 0.064059 0.179156

loop_
_geom_bond_atom_site_label_1
_geom_bond_atom_site_label_2
_ccdc_geom_bond_type
C11   C18   A    
C16   C21   A    
O10   S4    D    
C24   I4    S    
O16   S5    S    
Cu2   O23   S    
O5    S2    D    
C22   S4    S    
O3    S1    S    
C26   I6    S    
C2    N2    D    
C12   C23   S    
C22   C24   D    
C19   C21   A    
O6    S2    S    
O4    S2    D    
C11   C14   A    
C21   H5    S    
C17   C20   A    
C7    C9    A    
C5    C16   A    
Cu1   O22   S    
C26   N1    D    
C10   H3    S    
C3    O22   A    
O15   S5    D    
N1    S6    S    
C9    H1    S    
O9    S3    S    
C1    C22   S    
O7    S3    D    
C4    C7    S    
C4    O23   A    
C6    S2    S    
O14   S5    D    
C12   O21   A    
Cu2   N1    S    
C13   C19   A    
C3    O24   A    
C24   C25   S    
C3    C8    S    
C25   I3    S    
C5    C7    A    
C1    O1    A    
C6    C8    A    
Cu2   O20   S    
C18   I1    S    
C2    I5    S    
C1    O20   A    
C2    C26   S    
C9    C11   A    
H9    O13   S    
Cu1   N2    S    
C13   C15   A    
C14   C16   A    
H7    O6    S    
Cu1   O25   S    
O11   S4    D    
C20   H4    S    
Cu1   O1    S    
C15   C17   A    
C6    C17   A    
H6    O3    S    
O19   S6    S    
O18   S6    D    
O2    S1    D    
Cu2   O24   S    
C23   S3    S    
O26   S1    D    
C10   C13   A    
N2    S5    S    
Cu2   O12   S    
C12   O12   A    
H8    O9    S    
C18   C20   A    
C23   C25   D    
C5    S1    S    
H2    O19   S    
Cu1   O21   S    
C19   I2    S    
O8    S3    D    
C8    C10   A    
Cu1   Cu2   S    
C14   C15   A    
O13   S4    S    
C4    O25   A    
H10   O16   S    
O17   S6    D    
