data_mof_unit_58982.cif
_audit_creation_date              2012-12-10T18:03:57-0500
_audit_creation_method            fapswitch 2.2
_symmetry_space_group_name_H-M    P1
_symmetry_Int_Tables_number       1
_space_group_crystal_system       triclinic
_cell_length_a                    10.829256
_cell_length_b                    9.575155
_cell_length_c                    10.821691
_cell_angle_alpha                 89.981244
_cell_angle_beta                  91.672508
_cell_angle_gamma                 89.987582
_cell_volume                      1121.64253503

loop_
_atom_site_label
_atom_site_type_symbol
_atom_type_description
_atom_site_fract_x
_atom_site_fract_y
_atom_site_fract_z
_atom_type_partial_charge
C1    C     C_R   0.262226 0.499974 0.499881 0.788702
C2    C     C_R   0.737768 0.499960 0.500325 0.785799
C3    C     C_R   0.415029 0.072278 0.428210 0.088309
C4    C     C_R   0.585007 0.072197 0.571740 0.089375
C5    C     C_R   0.416436 0.923942 0.429491 0.034967
C6    C     C_R   0.583640 0.923875 0.570403 -0.010021
C7    C     C_R   0.497714 0.500057 0.262421 0.802137
C8    C     C_R   0.499618 0.499970 0.737549 0.799669
C9    C     C_R   0.491945 0.625637 0.063533 0.093792
C10   C     C_R   0.496597 0.625090 0.936525 0.077057
C11   C     C_R   0.486790 0.500309 0.129010 -0.110753
C12   C     C_R   0.490844 0.499893 0.870523 -0.063862
C13   C     C_R   0.466772 0.375188 0.063417 -0.199996
C14   C     C_R   0.468258 0.375107 0.934623 -0.201281
C15   C     C_3   0.587042 0.743897 0.934685 -0.123951
C16   C     C_3   0.580718 0.745035 0.075696 -0.031050
C17   C     C_R   0.063866 0.373092 0.499513 -0.154479
C18   C     C_R   0.936130 0.373084 0.499646 -0.150189
C19   C     C_R   0.871701 0.499974 0.500511 -0.039228
C20   C     C_R   0.128288 0.499993 0.500078 -0.038647
C21   C     C_R   0.936110 0.626895 0.501343 -0.167497
C22   C     C_R   0.063866 0.626904 0.501007 -0.160238
Cu1   Cu    Cu3+1 0.500000 0.640660 0.500000 0.951458
Cu2   Cu    Cu3+1 0.500000 0.359340 0.500000 0.924560
H1    H     H_    0.455224 0.276806 0.111132 0.161522
H2    H     H_    0.456826 0.276812 0.886112 0.163036
H3    H     H_    0.550548 0.838892 0.886725 0.156090
H4    H     H_    0.668058 0.717317 0.126774 0.182893
H5    H     H_    0.111825 0.273840 0.498954 0.176009
H6    H     H_    0.888169 0.273830 0.498933 0.176696
H7    H     H_    0.888092 0.726141 0.502168 0.167794
H8    H     H_    0.111873 0.726157 0.501512 0.167324
H9    H     H_    0.350997 0.864995 0.372832 0.177130
H10   H     H_    0.649268 0.864932 0.626811 0.161988
N1    N     N_R   0.500000 0.852070 0.500000 -0.208305
N2    N     N_R   0.500000 0.147940 0.500000 -0.245804
O1    O     O_R   0.319640 0.618740 0.499990 -0.586839
O2    O     O_R   0.680360 0.618740 0.500010 -0.588796
O3    O     O_R   0.319620 0.381170 0.499990 -0.610020
O4    O     O_R   0.680380 0.381170 0.500010 -0.606074
O5    O     O_R   0.499990 0.618810 0.319660 -0.556124
O6    O     O_R   0.500010 0.618810 0.680340 -0.585123
O7    O     O_R   0.499960 0.381240 0.319650 -0.612318
O8    O     O_R   0.500040 0.381240 0.680350 -0.615374
N3    N     N_3   0.708717 0.700413 0.894079 -0.572663
H11   H     H_    0.770523 0.781396 0.915262 0.245144
H12   H     H_    0.704992 0.692909 0.797750 0.233877
N4    N     N_3   0.521883 0.870366 0.124512 -0.574971
H13   H     H_    0.582210 0.954213 0.112614 0.223870
H14   H     H_    0.440650 0.893018 0.073591 0.228613
C23   C     C_2   0.319680 0.139706 0.346671 0.318569
H15   H     H_    0.325011 0.246984 0.319240 0.143024
O9    O     O_2   0.230991 0.073236 0.306483 -0.583034
C24   C     C_2   0.680279 0.139516 0.653383 0.317373
H16   H     H_    0.674758 0.246705 0.681040 0.149526
O10   O     O_2   0.769058 0.073026 0.693452 -0.589665

loop_
_geom_bond_atom_site_label_1
_geom_bond_atom_site_label_2
_ccdc_geom_bond_type
C16   H4    S    
C8    O8    A    
Cu1   Cu2   S    
C4    N2    A    
C18   H6    S    
C7    O7    A    
Cu1   O2    S    
C17   H5    S    
C9    C10   A    
C2    O2    A    
C15   H3    S    
Cu1   O5    S    
C1    O1    A    
C8    C12   S    
C13   H1    S    
C16   N4    S    
N4    H14   S    
C17   C18   A    
C20   C22   A    
Cu1   O1    S    
C21   C22   A    
C14   H2    S    
C7    C11   S    
C17   C20   A    
C21   H7    S    
C9    C11   A    
Cu2   N2    S    
Cu1   O6    S    
C22   H8    S    
C3    N2    A    
C10   C12   A    
N4    H13   S    
C19   C21   A    
C9    C16   S    
C12   C14   A    
Cu1   N1    S    
C10   C15   S    
C7    O5    A    
Cu2   O8    S    
C24   O10   D    
C6    H10   S    
C1    O3    A    
C23   O9    D    
C15   C16   S    
C2    O4    A    
C11   C13   A    
Cu2   O3    S    
C6    N1    A    
C4    C6    A    
C18   C19   A    
N3    H12   S    
Cu2   O7    S    
C15   N3    S    
C24   H16   S    
Cu2   O4    S    
C1    C20   S    
C3    C23   S    
C13   C14   A    
C4    C24   S    
C2    C19   S    
N3    H11   S    
C5    N1    A    
C23   H15   S    
C8    O6    A    
C3    C5    A    
C5    H9    S    
