data_mof_unit_52963.cif
_audit_creation_date              2012-10-26T21:14:53-0400
_audit_creation_method            fapswitch 2.2
_symmetry_space_group_name_H-M    P1
_symmetry_Int_Tables_number       1
_space_group_crystal_system       triclinic
_cell_length_a                    15.078342
_cell_length_b                    10.83975
_cell_length_c                    13.882816
_cell_angle_alpha                 90.111271
_cell_angle_beta                  89.322924
_cell_angle_gamma                 88.310544
_cell_volume                      2267.93253184

loop_
_atom_site_label
_atom_site_type_symbol
_atom_type_description
_atom_site_fract_x
_atom_site_fract_y
_atom_site_fract_z
_atom_type_partial_charge
C1    C     C_R   0.499199 0.262811 0.499514 0.552557
C2    C     C_R   0.633735 0.865414 0.610204 0.037541
C3    C     C_R   0.378366 0.153213 0.292208 -0.035723
C4    C     C_R   0.617503 0.844723 0.709562 -0.033672
C5    C     C_R   0.308509 0.204667 0.236445 0.033961
C6    C     C_R   0.686209 0.794280 0.767475 0.036552
C7    C     C_R   0.226721 0.238742 0.280791 0.234187
C8    C     C_R   0.770948 0.768469 0.726876 0.230389
C9    C     C_R   0.430076 0.937289 0.455661 -0.025378
C10   C     C_R   0.570177 0.062727 0.544598 -0.024486
C11   C     C_R   0.499073 0.871292 0.502430 0.014032
C12   C     C_R   0.501061 0.737187 0.500517 0.552996
C13   C     C_R   0.501214 0.128717 0.497754 0.014672
C14   C     C_R   0.566829 0.933603 0.550417 0.036672
C15   C     C_R   0.433176 0.066466 0.450317 0.036691
C16   C     C_R   0.329014 0.496117 0.500703 0.530050
C17   C     C_R   0.671015 0.503011 0.499257 0.533928
C18   C     C_R   0.571507 0.451881 0.793848 0.366078
C19   C     C_R   0.428093 0.546716 0.206039 0.368590
C20   C     C_R   0.428175 0.549278 0.796097 0.128803
C21   C     C_R   0.572442 0.453363 0.203676 0.098411
C22   C     C_R   0.422273 0.533555 0.898551 0.026084
C23   C     C_R   0.042553 0.393595 0.656387 -0.079922
C24   C     C_R   0.577972 0.471105 0.101586 -0.021010
C25   C     C_R   0.499838 0.499520 0.948641 -0.083571
C26   C     C_R   0.499926 0.500657 0.051380 -0.071587
C27   C     C_R   0.577520 0.465569 0.895869 -0.003777
C28   C     C_R   0.422087 0.531208 0.104385 0.012189
C29   C     C_R   0.341798 0.553760 0.952059 0.234924
C30   C     C_R   0.658850 0.456754 0.048288 0.224208
C31   C     C_R   0.341090 0.548029 0.054318 0.005834
C32   C     C_R   0.658667 0.447844 0.946628 0.045424
C33   C     C_R   0.815439 0.557272 0.419098 0.239858
C34   C     C_R   0.957576 0.597294 0.341138 -0.079677
C35   C     C_R   0.184791 0.438288 0.580221 0.241028
C36   C     C_R   0.767847 0.505672 0.497438 -0.001625
C37   C     C_R   0.232257 0.490548 0.502025 -0.003582
C38   C     C_R   0.813436 0.451740 0.574657 -0.161867
C39   C     C_R   0.186552 0.541131 0.423578 -0.165291
C40   C     C_R   0.905533 0.447388 0.575712 -0.009100
C41   C     C_R   0.094543 0.542847 0.421589 -0.000259
C42   C     C_R   0.953474 0.496065 0.497575 0.023784
C43   C     C_R   0.046660 0.493854 0.499593 0.042105
C44   C     C_R   0.908441 0.549237 0.418371 0.088609
C45   C     C_R   0.212350 0.213681 0.379977 0.230064
C46   C     C_R   0.091706 0.442560 0.579507 0.093986
C47   C     C_R   0.950294 0.396127 0.654448 -0.136191
C48   C     C_R   0.049810 0.593752 0.342703 -0.150479
C49   C     C_3   0.350357 0.872674 0.415285 -0.376852
C50   C     C_3   0.649940 0.127305 0.584861 -0.378762
C51   C     C_3   0.359695 0.633463 0.748931 -0.279313
C52   C     C_3   0.640244 0.366254 0.249055 -0.310528
C53   C     C_3   0.252549 0.544046 0.107382 -0.354820
C54   C     C_3   0.747017 0.431377 0.893665 -0.305642
C55   C     C_3   0.465694 0.115914 0.243354 -0.381296
C56   C     C_R   0.786085 0.786178 0.626733 0.234743
C57   C     C_3   0.528815 0.880943 0.755838 -0.379811
C58   C     C_3   0.321057 0.221072 0.128845 -0.345515
C59   C     C_3   0.670490 0.775549 0.874395 -0.346157
C60   C     C_R   0.282782 0.165547 0.436051 0.245018
C61   C     C_R   0.717191 0.835371 0.568958 0.246314
C62   C     C_R   0.365127 0.135008 0.392363 0.038275
Cu1   Cu    Cu3+1 0.500010 0.499980 0.597420 0.949160
Cu2   Cu    Cu3+1 0.499990 0.500020 0.402580 0.942682
H1    H     H_    0.777101 0.411972 0.634182 0.170370
H2    H     H_    0.351317 0.878434 0.335463 0.139759
H3    H     H_    0.346389 0.775032 0.437505 0.129634
H4    H     H_    0.712317 0.083372 0.556788 0.170989
H5    H     H_    0.653795 0.225010 0.562784 0.129163
H6    H     H_    0.649205 0.121310 0.664679 0.136464
H7    H     H_    0.608171 0.336670 0.697152 0.359872
H8    H     H_    0.391722 0.662294 0.303120 0.361370
H9    H     H_    0.299067 0.582650 0.732068 0.226549
H10   H     H_    0.341865 0.712431 0.797201 0.108891
H11   H     H_    0.383582 0.678321 0.683790 0.162213
H12   H     H_    0.222714 0.581218 0.364048 0.167733
H13   H     H_    0.662808 0.294170 0.196552 0.130574
H14   H     H_    0.699087 0.415546 0.273595 0.192661
H15   H     H_    0.612893 0.313692 0.309043 0.166889
H16   H     H_    0.223381 0.626639 0.939662 0.324063
H17   H     H_    0.735066 0.525051 0.143427 0.347652
H18   H     H_    0.257526 0.489690 0.174725 0.202601
H19   H     H_    0.227604 0.639215 0.123872 0.145824
H20   H     H_    0.202618 0.495681 0.064282 0.160195
H21   H     H_    0.752719 0.501955 0.836221 0.184763
H22   H     H_    0.805333 0.442232 0.940420 0.188176
H23   H     H_    0.913873 0.358519 0.714879 0.122050
H24   H     H_    0.753129 0.337234 0.862285 0.160559
H25   H     H_    0.125140 0.351295 0.267001 0.335505
H26   H     H_    0.893825 0.769467 0.765924 0.336631
H27   H     H_    0.083363 0.222195 0.373561 0.344173
H28   H     H_    0.900981 0.698608 0.623623 0.341216
H29   H     H_    0.210216 0.157969 0.553854 0.383638
H30   H     H_    0.792326 0.842666 0.453049 0.384050
H31   H     H_    0.517086 0.081454 0.293726 0.146366
H32   H     H_    0.454728 0.041552 0.190126 0.130889
H33   H     H_    0.493581 0.196511 0.205839 0.136176
H34   H     H_    0.086233 0.631424 0.282298 0.119819
H35   H     H_    0.478622 0.915415 0.704098 0.147550
H36   H     H_    0.500378 0.799988 0.792146 0.132013
H37   H     H_    0.538120 0.954951 0.809820 0.130911
H38   H     H_    0.261730 0.261738 0.093146 0.199679
H39   H     H_    0.377014 0.282598 0.114267 0.122317
H40   H     H_    0.335606 0.130097 0.094448 0.123489
H41   H     H_    0.728017 0.731466 0.911218 0.198858
H42   H     H_    0.656129 0.865950 0.909790 0.123553
H43   H     H_    0.613402 0.715176 0.886164 0.116588
H44   H     H_    0.075055 0.353280 0.718469 0.182587
H45   H     H_    0.925069 0.638341 0.279338 0.178895
H46   H     H_    0.719539 0.661118 0.368978 0.372190
H47   H     H_    0.281894 0.339296 0.633190 0.371889
H48   H     H_    0.287910 0.916744 0.443064 0.171199
N1    N     N_R   0.499960 0.499900 0.743810 -0.239367
N2    N     N_R   0.500040 0.500100 0.256190 -0.234288
O1    O     O_R   0.500000 0.319630 0.582270 -0.514531
O2    O     O_3   0.226610 0.380916 0.656832 -0.701771
O3    O     O_3   0.637204 0.385406 0.746603 -0.742338
O4    O     O_3   0.362988 0.616584 0.251733 -0.739559
O5    O     O_3   0.262865 0.568066 0.903304 -0.713364
O6    O     O_3   0.739674 0.459437 0.093605 -0.719475
O7    O     O_3   0.161687 0.294990 0.225453 -0.733119
O8    O     O_3   0.838468 0.730159 0.787185 -0.731844
O9    O     O_3   0.129706 0.230112 0.422929 -0.731798
O10   O     O_3   0.867319 0.758476 0.583575 -0.727723
O11   O     O_3   0.271951 0.138442 0.532798 -0.714524
O12   O     O_R   0.500000 0.680370 0.417730 -0.515992
O13   O     O_3   0.729758 0.860069 0.472048 -0.715160
O14   O     O_R   0.499990 0.319660 0.417730 -0.519647
O15   O     O_R   0.500010 0.680340 0.582270 -0.521440
O16   O     O_R   0.370260 0.499960 0.582280 -0.515800
O17   O     O_R   0.629740 0.500040 0.417720 -0.512625
O18   O     O_R   0.370250 0.499990 0.417740 -0.488755
O19   O     O_R   0.629750 0.500010 0.582260 -0.482554
O20   O     O_3   0.773828 0.618198 0.343975 -0.728025

loop_
_geom_bond_atom_site_label_1
_geom_bond_atom_site_label_2
_ccdc_geom_bond_type
C40   C47   A    
C54   H24   S    
C58   H40   S    
C45   C60   A    
C22   C29   A    
C17   O17   A    
H26   O8    S    
C1    O14   A    
C8    C56   A    
C39   C41   A    
H30   O13   S    
C45   O9    S    
C29   O5    S    
H17   O6    S    
C59   H41   S    
H25   O7    S    
C5    C58   S    
C53   H20   S    
C7    C45   A    
C60   O11   S    
C35   C37   A    
C50   H5    S    
C51   H11   S    
C20   C51   S    
H28   O10   S    
C20   N1    A    
C11   C14   A    
C12   O12   A    
C57   H35   S    
C33   C36   A    
C60   C62   A    
Cu1   O16   S    
C3    C55   S    
C33   O20   S    
Cu1   O19   S    
Cu2   O18   S    
C19   O4    S    
Cu2   O14   S    
C22   C25   A    
C4    C57   S    
C51   H10   S    
H47   O2    S    
C58   H38   S    
C17   C36   S    
C30   C32   A    
C52   H15   S    
C16   O16   A    
C2    C61   A    
C16   C37   S    
Cu1   O1    S    
C40   C42   A    
H16   O5    S    
C23   C46   A    
H27   O9    S    
C41   C43   A    
C42   C44   A    
C7    O7    S    
C52   H14   S    
C18   N1    A    
C32   C54   S    
H29   O11   S    
C59   H42   S    
C23   C47   A    
C49   H2    S    
H7    O3    S    
C9    C49   S    
C4    C6    A    
C12   O15   A    
C5    C7    A    
C55   H32   S    
C6    C8    A    
C19   N2    A    
C25   C26   A    
C57   H36   S    
C59   H43   S    
C53   H18   S    
C47   H23   S    
C2    C4    A    
C38   H1    S    
Cu2   O17   S    
C55   H33   S    
C34   C44   A    
C35   O2    S    
C61   O13   S    
C39   H12   S    
C31   C53   S    
C19   C28   A    
C9    C11   A    
C18   O3    S    
C49   H48   S    
C15   C62   S    
C55   H31   S    
C20   C22   A    
Cu2   O12   S    
C13   C15   A    
C17   O19   A    
H46   O20   S    
C1    C13   S    
C42   C43   A    
C52   H13   S    
C10   C50   S    
C56   O10   S    
C48   H34   S    
C54   H22   S    
C3    C62   A    
C2    C14   S    
C49   H3    S    
C27   C32   A    
C33   C44   A    
C6    C59   S    
C28   C31   A    
C18   C27   A    
C51   H9    S    
C24   C26   A    
C21   N2    A    
C3    C5    A    
C10   C13   A    
C54   H21   S    
C11   C12   S    
C25   C27   A    
C57   H37   S    
C26   C28   A    
C53   H19   S    
C36   C38   A    
C9    C15   A    
C37   C39   A    
C38   C40   A    
C8    O8    S    
C30   O6    S    
C23   H44   S    
C41   C48   A    
Cu1   O15   S    
C50   H6    S    
C16   O18   A    
C43   C46   A    
C24   C30   A    
Cu1   Cu2   S    
Cu1   N1    S    
C34   C48   A    
Cu2   N2    S    
C29   C31   A    
C21   C24   A    
H8    O4    S    
C34   H45   S    
C56   C61   A    
C58   H39   S    
C1    O1    A    
C35   C46   A    
C50   H4    S    
C21   C52   S    
C10   C14   A    
