data_mof_unit_20003.cif
_audit_creation_date              2012-12-11T14:03:31-0500
_audit_creation_method            fapswitch 2.2
_symmetry_space_group_name_H-M    P1
_symmetry_Int_Tables_number       1
_space_group_crystal_system       triclinic
_cell_length_a                    7.005342
_cell_length_b                    11.318215
_cell_length_c                    19.005559
_cell_angle_alpha                 89.996149
_cell_angle_beta                  92.412984
_cell_angle_gamma                 90.001701
_cell_volume                      1505.57597244

loop_
_atom_site_label
_atom_site_type_symbol
_atom_type_description
_atom_site_fract_x
_atom_site_fract_y
_atom_site_fract_z
_atom_type_partial_charge
O1    O     O_R   0.330540 0.606360 0.598870 -0.548490
O2    O     O_R   0.669460 0.106360 0.401130 -0.548459
O3    O     O_R   0.026770 0.620470 0.750430 -0.539718
O4    O     O_R   0.973230 0.120470 0.249570 -0.539695
O5    O     O_R   0.856460 0.393640 0.750930 -0.539699
O6    O     O_R   0.143540 0.893640 0.249070 -0.539668
C1    C     C_R   0.197820 0.648366 0.773426 0.853556
C2    C     C_R   0.802182 0.148343 0.226553 0.853192
O7    O     O_R   0.000920 0.620350 0.599420 -0.555997
O8    O     O_R   0.999080 0.120350 0.400580 -0.555979
O9    O     O_R   0.830430 0.393520 0.598850 -0.545133
O10   O     O_R   0.169570 0.893520 0.401150 -0.545115
C3    C     C_R   0.167065 0.647701 0.574713 0.728261
C4    C     C_R   0.832936 0.147701 0.425288 0.728349
O11   O     O_R   0.356570 0.606480 0.750960 -0.512305
O12   O     O_R   0.643430 0.106480 0.249040 -0.512253
O13   O     O_3   0.176990 0.425580 0.674890 -0.374079
O14   O     O_3   0.823010 0.925580 0.325110 -0.374175
V1    V     V_3+5 0.902170 0.513810 0.674910 1.481580
V2    V     V_3+5 0.097830 0.013810 0.325090 1.481547
O15   O     O_R   0.500800 0.379530 0.599380 -0.553127
O16   O     O_R   0.499200 0.879530 0.400620 -0.553126
C5    C     C_R   0.666957 0.352186 0.574680 0.739741
C6    C     C_R   0.333042 0.852186 0.425319 0.739787
O17   O     O_R   0.526650 0.379650 0.750390 -0.507588
O18   O     O_R   0.473350 0.879650 0.249610 -0.507783
C7    C     C_R   0.697812 0.352659 0.774020 0.826483
C8    C     C_R   0.302190 0.852678 0.225975 0.826669
V3    V     V_3+5 0.402160 0.486190 0.674900 1.527266
V4    V     V_3+5 0.597840 0.986190 0.325100 1.526941
O19   O     O_3   0.677210 0.574420 0.674910 -0.380814
O20   O     O_3   0.322790 0.074420 0.325090 -0.380753
C9    C     C_R   0.695117 0.091194 0.888067 -0.060748
C10   C     C_R   0.305060 0.591214 0.111971 -0.060245
H1    H     H_    0.708176 0.121841 0.778361 0.144636
H2    H     H_    0.292932 0.621865 0.221699 0.144592
H3    H     H_    0.659829 0.965541 0.994948 0.138627
H4    H     H_    0.339123 0.465507 0.005102 0.138714
H5    H     H_    0.687740 0.996488 0.879323 0.132097
H6    H     H_    0.312664 0.496519 0.120739 0.132222
C11   C     C_R   0.710274 0.282278 0.838449 -0.119216
C12   C     C_R   0.289719 0.782282 0.161560 -0.119187
C13   C     C_R   0.799243 0.349850 0.192547 -0.309736
C14   C     C_R   0.201368 0.849841 0.807387 -0.310049
C15   C     C_R   0.767763 0.440859 0.146652 0.344465
C16   C     C_R   0.232770 0.940830 0.853286 0.344670
C17   C     C_R   0.744112 0.420767 0.073163 0.414297
C18   C     C_R   0.255930 0.920747 0.926788 0.414424
C19   C     C_R   0.734500 0.300275 0.045009 -0.120735
C20   C     C_R   0.265065 0.800260 0.954980 -0.120874
C21   C     C_R   0.749850 0.206279 0.097670 -0.073708
C22   C     C_R   0.249574 0.706257 0.902331 -0.073525
C23   C     C_R   0.712709 0.264000 0.969956 -0.023642
C24   C     C_R   0.286706 0.763994 0.030042 -0.023799
C25   C     C_R   0.695416 0.139381 0.956020 0.003520
C26   C     C_R   0.304100 0.639378 0.043994 0.003355
C27   C     C_R   0.686997 0.056966 0.009011 -0.149457
C28   C     C_R   0.312026 0.556925 0.991016 -0.149895
C29   C     C_R   0.727471 0.085227 0.078475 0.514888
C30   C     C_R   0.271380 0.585177 0.921553 0.514768
C31   C     C_R   0.710640 0.335957 0.906140 0.327572
C32   C     C_R   0.288664 0.835957 0.093850 0.327688
C33   C     C_R   0.708365 0.161662 0.830259 -0.149246
C34   C     C_R   0.292214 0.661676 0.169784 -0.149031
C35   C     C_R   0.786752 0.234910 0.169952 -0.125294
C36   C     C_R   0.213230 0.734914 0.830021 -0.125313
H7    H     H_    0.820356 0.369163 0.248327 0.159363
H8    H     H_    0.180654 0.869148 0.751592 0.159324
C37   C     C_2   0.831074 0.233409 0.484519 -0.327152
C38   C     C_2   0.168925 0.733411 0.515481 -0.327138
H9    H     H_    0.967424 0.269732 0.503327 0.150294
H10   H     H_    0.032578 0.769736 0.496673 0.150298
C39   C     C_2   0.668835 0.266476 0.515450 -0.329078
C40   C     C_2   0.331166 0.766474 0.484550 -0.329122
H11   H     H_    0.532486 0.230153 0.496641 0.148938
H12   H     H_    0.467512 0.730149 0.503359 0.148934
Cl1   Cl    Cl    0.701544 0.490646 0.898135 -0.658323
Cl2   Cl    Cl    0.296340 0.990677 0.101829 -0.658726
O21   O     O_3   0.692772 0.518589 0.034137 -0.516558
C41   C     C_3   0.849683 0.596203 0.028528 -0.085182
H13   H     H_    0.958687 0.552722 0.997901 0.128207
H14   H     H_    0.915923 0.626584 0.078909 0.139623
H15   H     H_    0.800933 0.676188 0.999156 0.163172
O22   O     O_3   0.306713 0.018631 0.965853 -0.516549
C42   C     C_3   0.149395 0.095961 0.971307 -0.085418
H16   H     H_    0.039712 0.051819 0.001263 0.127451
H17   H     H_    0.084600 0.127132 0.920880 0.139921
H18   H     H_    0.197063 0.175542 0.001263 0.163697
Cl3   Cl    Cl    0.737814 0.579943 0.187117 -0.730805
Cl4   Cl    Cl    0.262932 0.079912 0.812837 -0.730563
O23   O     O_3   0.727835 0.996802 0.129943 -0.537748
C43   C     C_3   0.800631 0.886682 0.108434 -0.153658
H19   H     H_    0.917470 0.895547 0.071230 0.094719
H20   H     H_    0.684080 0.831442 0.084828 0.163004
H21   H     H_    0.858686 0.839240 0.155611 0.203438
O24   O     O_3   0.270308 0.496728 0.870086 -0.537761
C44   C     C_3   0.198199 0.386524 0.891747 -0.153520
H22   H     H_    0.081375 0.395310 0.928960 0.094257
H23   H     H_    0.315081 0.331573 0.915382 0.163257
H24   H     H_    0.140318 0.338816 0.844639 0.203152

loop_
_geom_bond_atom_site_label_1
_geom_bond_atom_site_label_2
_ccdc_geom_bond_type
C9    C25   A    
C10   C26   A    
O13   V3    S    
C14   C36   A    
C17   O21   S    
O4    C2    A    
V1    O19   S    
C44   H22   S    
C17   C19   A    
C42   H16   S    
O9    V1    S    
C9    H5    S    
C40   H12   S    
C10   H6    S    
O3    C1    A    
C27   C29   A    
C3    C38   S    
O12   V4    S    
C21   C35   A    
C15   C17   A    
C8    C12   S    
C37   H9    S    
O7    C3    A    
C22   C30   A    
O5    C7    A    
C23   C31   A    
O7    V1    S    
O6    C8    A    
O8    V2    S    
C19   C21   A    
C38   C40   D    
C20   C22   A    
O3    V1    S    
O14   V4    S    
C11   C31   A    
C15   Cl3   S    
C12   C32   A    
C9    C33   A    
C18   C20   A    
C2    C35   S    
C2    O12   A    
H4    C28   S    
C39   H11   S    
C5    C39   S    
C41   H15   S    
O1    V3    S    
C44   H23   S    
C14   C16   A    
O11   V3    S    
C16   C18   A    
C23   C25   A    
O17   V3    S    
C24   C26   A    
C42   H17   S    
O22   C42   S    
C41   H14   S    
O8    C4    A    
C31   Cl1   S    
O23   C43   S    
C29   O23   S    
C1    O11   A    
C24   C32   A    
O15   V3    S    
C43   H21   S    
C18   O22   S    
C7    C11   S    
C13   C35   A    
O24   C44   S    
O10   V2    S    
C10   C34   A    
C20   C24   A    
C37   C39   D    
C13   C15   A    
C16   Cl4   S    
C30   O24   S    
O18   V4    S    
C25   C27   A    
C4    C37   S    
O16   C6    A    
C14   H8    S    
O1    C3    A    
C11   C33   A    
C12   C34   A    
C44   H24   S    
C22   C36   A    
V2    O20   S    
C42   H18   S    
O16   V4    S    
C32   Cl2   S    
C41   H13   S    
C38   H10   S    
O5    V1    S    
O17   C7    A    
O6    V2    S    
O10   C6    A    
O18   C8    A    
O2    V4    S    
O15   C5    A    
V3    O19   S    
C1    C36   S    
V4    O20   S    
C6    C40   S    
C43   H20   S    
C19   C23   A    
O9    C5    A    
C43   H19   S    
O13   V1    S    
C26   C28   A    
O14   V2    S    
O2    C4    A    
O21   C41   S    
O4    V2    S    
C21   C29   A    
C13   H7    S    
H1    C33   S    
H2    C34   S    
C28   C30   A    
H3    C27   S    
