data_mof_unit_52245.cif
_audit_creation_date              2012-12-10T16:38:30-0500
_audit_creation_method            fapswitch 2.2
_symmetry_space_group_name_H-M    P1
_symmetry_Int_Tables_number       1
_space_group_crystal_system       triclinic
_cell_length_a                    10.849832
_cell_length_b                    10.830344
_cell_length_c                    17.89945
_cell_angle_alpha                 98.365458
_cell_angle_beta                  73.067233
_cell_angle_gamma                 98.669056
_cell_volume                      1977.63615845

loop_
_atom_site_label
_atom_site_type_symbol
_atom_type_description
_atom_site_fract_x
_atom_site_fract_y
_atom_site_fract_z
_atom_type_partial_charge
C1    C     C_R   0.157439 0.479843 0.517354 0.492598
C2    C     C_R   0.556767 0.350255 0.922957 -0.023929
C3    C     C_R   0.620951 0.298237 0.965793 -0.129918
C4    C     C_R   0.843114 0.520649 0.482369 0.505140
C5    C     C_R   0.607655 0.337677 0.044869 0.023348
C6    C     C_R   0.526268 0.431466 0.084716 0.017216
C7    C     C_R   0.671757 0.279228 0.085025 -0.138387
C8    C     C_R   0.656155 0.312107 0.164600 -0.141365
C9    C     C_R   0.525744 0.476707 0.163891 -0.030609
C10   C     C_2   0.981157 0.528327 0.475022 -0.121773
C11   C     C_2   0.021287 0.472714 0.524155 -0.105751
C12   C     C_R   0.289260 0.638418 0.841319 -0.133554
C13   C     C_2   0.541992 0.966310 0.475941 -0.129025
C14   C     C_2   0.453756 0.036034 0.523715 -0.125523
C15   C     C_R   0.467438 0.168324 0.517742 0.491541
C16   C     C_R   0.530312 0.832933 0.482608 0.508670
C17   C     C_R   0.564179 0.435632 0.288276 0.501834
C18   C     C_R   0.436172 0.563145 0.712288 0.501513
C19   C     C_R   0.398048 0.578274 0.798634 0.015680
C20   C     C_R   0.584946 0.410541 0.203823 0.039983
C21   C     C_R   0.247506 0.641622 0.922792 -0.137122
C22   C     C_R   0.485420 0.602150 0.201127 0.021548
C23   C     C_R   0.465034 0.522784 0.838480 -0.125371
C24   C     C_R   0.550349 0.710918 0.166569 -0.079152
C25   C     C_R   0.516834 0.829493 0.202248 -0.107153
C26   C     C_R   0.418466 0.840520 0.272669 -0.095668
C27   C     C_R   0.352610 0.732935 0.307223 -0.110529
C28   C     C_R   0.385404 0.614177 0.271631 -0.099322
C29   C     C_R   0.557085 0.281002 0.844997 0.016865
C30   C     C_R   0.440424 0.223254 0.829985 -0.087062
C31   C     C_R   0.442285 0.148340 0.759188 -0.100698
C32   C     C_R   0.560320 0.130054 0.703290 -0.063251
C33   C     C_R   0.676489 0.188841 0.717120 -0.093578
C34   C     C_R   0.417753 0.514591 0.919736 0.019885
C35   C     C_R   0.675187 0.263656 0.787780 -0.111013
C36   C     C_R   0.311258 0.580974 0.962279 0.046871
C37   C     C_R   0.476742 0.447398 0.960510 0.015011
C38   C     C_R   0.449231 0.474888 0.043683 0.016288
C39   C     C_R   0.337620 0.534476 0.083822 -0.126900
C40   C     C_R   0.269146 0.585565 0.043734 -0.133498
H1    H     H_    0.954004 0.421842 0.570365 0.119041
H2    H     H_    0.567585 0.912932 0.175480 0.106922
H3    H     H_    0.393119 0.932421 0.300383 0.123217
H4    H     H_    0.276036 0.741520 0.361588 0.106516
H5    H     H_    0.332169 0.531729 0.298604 0.118069
H6    H     H_    0.701346 0.261694 0.195641 0.105644
H7    H     H_    0.678726 0.222034 0.937582 0.109860
H8    H     H_    0.555584 0.488435 0.805288 0.145503
H9    H     H_    0.297226 0.536510 0.146460 0.127511
H10   H     H_    0.348608 0.234153 0.873695 0.112200
H11   H     H_    0.352415 0.102910 0.748133 0.100643
H12   H     H_    0.164483 0.690430 0.954911 0.107145
H13   H     H_    0.562069 0.069710 0.649414 0.123733
H14   H     H_    0.767704 0.175041 0.673523 0.105828
H15   H     H_    0.766120 0.306979 0.798384 0.101969
H16   H     H_    0.235914 0.682172 0.811785 0.135361
H17   H     H_    0.184512 0.631350 0.076864 0.112045
H18   H     H_    0.730915 0.204902 0.055282 0.106892
H19   H     H_    0.050421 0.579323 0.429487 0.094129
H20   H     H_    0.623345 0.008186 0.431941 0.106709
H21   H     H_    0.371368 0.996541 0.567968 0.115937
H22   H     H_    0.627635 0.703801 0.112405 0.109433
O1    O     O_3   0.500000 0.500000 0.500000 -0.437019
O2    O     O_R   0.470800 0.371790 0.332500 -0.550317
O3    O     O_R   0.380610 0.619380 0.674980 -0.550264
O4    O     O_R   0.632640 0.524780 0.317540 -0.531473
O5    O     O_R   0.515950 0.484050 0.674980 -0.538396
O6    O     O_R   0.535460 0.243030 0.556410 -0.537985
O7    O     O_R   0.437420 0.784080 0.535340 -0.546335
O8    O     O_R   0.223560 0.397520 0.472140 -0.536743
O9    O     O_R   0.803560 0.575360 0.436110 -0.539445
O10   O     O_R   0.209690 0.568800 0.556400 -0.537446
O11   O     O_R   0.763190 0.458310 0.535350 -0.542115
O12   O     O_R   0.414000 0.207090 0.472140 -0.535807
O13   O     O_R   0.613120 0.765800 0.436110 -0.529521
Zn1   Zn    Zn3+2 0.577310 0.422690 0.565550 0.932513
Zn2   Zn    Zn3+2 0.403760 0.371330 0.445150 0.929392
Zn3   Zn    Zn3+2 0.634990 0.589920 0.423760 0.945790
Zn4   Zn    Zn3+2 0.383940 0.616050 0.565540 0.927024

loop_
_geom_bond_atom_site_label_1
_geom_bond_atom_site_label_2
_ccdc_geom_bond_type
O3    Zn4   S    
C34   C37   A    
O2    Zn2   S    
C1    C11   S    
C6    C9    A    
C7    C8    A    
C21   C36   A    
O1    Zn4   S    
C18   O3    A    
C17   O4    A    
C29   C30   A    
C2    C29   S    
O10   Zn4   S    
C2    C3    A    
C17   O2    A    
C5    C6    A    
C9    C22   S    
O1    Zn1   S    
C16   O13   A    
C17   C20   S    
C18   C19   S    
C27   H4    S    
C13   H20   S    
O12   Zn2   S    
C6    C38   A    
C40   H17   S    
C7    H18   S    
O9    Zn3   S    
C30   H10   S    
C22   C28   A    
C13   C14   D    
O8    Zn2   S    
C26   H3    S    
O4    Zn3   S    
C28   H5    S    
C1    O10   A    
C35   H15   S    
C36   C40   A    
C24   C25   A    
C39   C40   A    
C5    C7    A    
C18   O5    A    
C14   H21   S    
C12   C21   A    
C19   C23   A    
C37   C38   A    
C9    C20   A    
C31   C32   A    
C30   C31   A    
C23   C34   A    
C26   C27   A    
C8    C20   A    
C4    O11   A    
C12   H16   S    
C39   H9    S    
O11   Zn1   S    
C22   C24   A    
O7    Zn4   S    
C4    C10   S    
C32   H13   S    
O1    Zn2   S    
C33   H14   S    
C24   H22   S    
C23   H8    S    
C16   O7    A    
C31   H11   S    
C3    C5    A    
C25   H2    S    
O6    Zn1   S    
C29   C35   A    
C1    O8    A    
C32   C33   A    
C10   H19   S    
C25   C26   A    
C2    C37   A    
C38   C39   A    
C15   O6    A    
C12   C19   A    
C3    H7    S    
C33   C35   A    
C11   H1    S    
C34   C36   A    
C4    O9    A    
O13   Zn3   S    
C8    H6    S    
C10   C11   D    
C15   O12   A    
C13   C16   S    
C27   C28   A    
C14   C15   S    
O5    Zn1   S    
C21   H12   S    
O1    Zn3   S    
