data_mof_unit_16520.cif
_audit_creation_date              2013-03-05T15:50:14-0500
_audit_creation_method            fapswitch 2.2
_symmetry_space_group_name_H-M    P1
_symmetry_Int_Tables_number       1
_space_group_crystal_system       triclinic
_cell_length_a                    18.500666
_cell_length_b                    26.047602
_cell_length_c                    18.136172
_cell_angle_alpha                 90.899663
_cell_angle_beta                  90.260366
_cell_angle_gamma                 89.700866
_cell_volume                      8738.50121694

loop_
_atom_site_label
_atom_site_type_symbol
_atom_site_description
_atom_site_fract_x
_atom_site_fract_y
_atom_site_fract_z
_atom_type_partial_charge
Zn1   Zn    Zn3+2 0.249990 0.293780 0.913250 0.978033
Zn2   Zn    Zn3+2 0.249990 0.706220 0.086750 1.021551
Zn3   Zn    Zn3+2 0.249990 0.706220 0.913250 0.969946
Zn4   Zn    Zn3+2 0.249990 0.293780 0.086750 1.003127
Zn5   Zn    Zn3+2 0.749990 0.793780 0.413250 1.054942
Zn6   Zn    Zn3+2 0.749990 0.206220 0.586750 1.062209
Zn7   Zn    Zn3+2 0.749990 0.206220 0.413250 1.014926
Zn8   Zn    Zn3+2 0.749990 0.793780 0.586750 1.057517
Zn9   Zn    Zn3+2 0.336760 0.206240 0.000000 1.013116
Zn10  Zn    Zn3+2 0.336760 0.793760 0.000000 0.992137
Zn11  Zn    Zn3+2 0.836760 0.706240 0.500000 1.018706
Zn12  Zn    Zn3+2 0.836760 0.293760 0.500000 0.982094
Zn13  Zn    Zn3+2 0.163250 0.206230 0.000000 1.004667
Zn14  Zn    Zn3+2 0.163250 0.793770 0.000000 1.038562
Zn15  Zn    Zn3+2 0.663250 0.706230 0.500000 1.007838
Zn16  Zn    Zn3+2 0.663250 0.293770 0.500000 1.016439
O1    O     O_3   0.249990 0.250010 0.000000 -0.496892
O2    O     O_3   0.249990 0.749990 0.000000 -0.509126
O3    O     O_3   0.749990 0.750010 0.500000 -0.532079
O4    O     O_3   0.749990 0.249990 0.500000 -0.515390
O5    O     O_R   0.335430 0.280650 0.146160 -0.672237
O6    O     O_R   0.335430 0.719350 0.853840 -0.676401
O7    O     O_R   0.335430 0.719350 0.146160 -0.630836
O8    O     O_R   0.335430 0.280650 0.853840 -0.684143
O9    O     O_R   0.835430 0.780650 0.646160 -0.642153
O10   O     O_R   0.835430 0.219350 0.353840 -0.643769
O11   O     O_R   0.835430 0.219350 0.646160 -0.628585
O12   O     O_R   0.835430 0.780650 0.353840 -0.607912
O13   O     O_R   0.164550 0.280640 0.853840 -0.637078
O14   O     O_R   0.164550 0.719360 0.146160 -0.636650
O15   O     O_R   0.164550 0.719360 0.853840 -0.624636
O16   O     O_R   0.164550 0.280640 0.146160 -0.649507
O17   O     O_R   0.664550 0.780640 0.353840 -0.585631
O18   O     O_R   0.664550 0.219360 0.646160 -0.600128
O19   O     O_R   0.664550 0.219360 0.353840 -0.662189
O20   O     O_R   0.664550 0.780640 0.646160 -0.620877
O21   O     O_R   0.396160 0.219380 0.914560 -0.624640
O22   O     O_R   0.396160 0.780620 0.085440 -0.648825
O23   O     O_R   0.396160 0.780620 0.914560 -0.615890
O24   O     O_R   0.396160 0.219380 0.085440 -0.617355
O25   O     O_R   0.896160 0.719380 0.414560 -0.640383
O26   O     O_R   0.896160 0.280620 0.585440 -0.653477
O27   O     O_R   0.896160 0.280620 0.414560 -0.642505
O28   O     O_R   0.896160 0.719380 0.585440 -0.611965
O29   O     O_R   0.103840 0.219370 0.085450 -0.616793
O30   O     O_R   0.103840 0.780630 0.914550 -0.636957
O31   O     O_R   0.103840 0.780630 0.085450 -0.612031
O32   O     O_R   0.103840 0.219370 0.914550 -0.662015
O33   O     O_R   0.603840 0.719370 0.585450 -0.617243
O34   O     O_R   0.603840 0.280630 0.414550 -0.626079
O35   O     O_R   0.603840 0.280630 0.585450 -0.634547
O36   O     O_R   0.603840 0.719370 0.414550 -0.645888
O37   O     O_R   0.310730 0.133160 0.000000 -0.633512
O38   O     O_R   0.310730 0.866840 0.000000 -0.646906
O39   O     O_R   0.810730 0.633160 0.500000 -0.620221
O40   O     O_R   0.810730 0.366840 0.500000 -0.658675
O41   O     O_R   0.249970 0.366860 0.060720 -0.660922
O42   O     O_R   0.249970 0.633140 0.939280 -0.716799
O43   O     O_R   0.249970 0.633140 0.060720 -0.608985
O44   O     O_R   0.249970 0.366860 0.939280 -0.680212
O45   O     O_R   0.749970 0.866860 0.560720 -0.591039
O46   O     O_R   0.749970 0.133140 0.439280 -0.631640
O47   O     O_R   0.749970 0.133140 0.560720 -0.577634
O48   O     O_R   0.749970 0.866860 0.439280 -0.641272
O49   O     O_R   0.189290 0.133150 0.000000 -0.636670
O50   O     O_R   0.189290 0.866850 0.000000 -0.618418
O51   O     O_R   0.689290 0.633150 0.500000 -0.640567
O52   O     O_R   0.689290 0.366850 0.500000 -0.614918
C1    C     C_R   0.391437 0.252570 0.139643 0.790100
C2    C     C_R   0.387242 0.751040 0.857267 0.795308
C3    C     C_R   0.388915 0.750317 0.140420 0.737715
C4    C     C_R   0.389101 0.250453 0.858817 0.783996
C5    C     C_R   0.888966 0.749645 0.640675 0.739392
C6    C     C_R   0.891431 0.247858 0.360295 0.806997
C7    C     C_R   0.889974 0.249566 0.639333 0.741437
C8    C     C_R   0.888502 0.749076 0.358983 0.750725
C9    C     C_R   0.110198 0.248796 0.859781 0.799626
C10   C     C_R   0.111204 0.750429 0.140990 0.810065
C11   C     C_R   0.110419 0.749715 0.859802 0.798957
C12   C     C_R   0.108427 0.253787 0.138237 0.823663
C13   C     C_R   0.610917 0.749439 0.359691 0.785364
C14   C     C_R   0.609803 0.249085 0.639269 0.779720
C15   C     C_R   0.608245 0.246351 0.361910 0.797879
C16   C     C_R   0.611439 0.749856 0.641193 0.776221
C17   C     C_R   0.251091 0.109221 0.994247 0.817527
C18   C     C_R   0.249112 0.890891 0.998246 0.860155
C19   C     C_R   0.751019 0.609138 0.495223 0.863162
C20   C     C_R   0.749417 0.390757 0.498734 0.834493
C21   C     C_R   0.250048 0.391417 0.000524 0.849341
C22   C     C_R   0.247746 0.608803 0.999286 0.834632
C23   C     C_R   0.753226 0.891155 0.500026 0.965890
C24   C     C_R   0.751998 0.108660 0.499437 0.918864
C25   C     C_3   0.226550 0.472621 0.079592 0.433989
C26   C     C_3   0.182745 0.528612 0.950927 0.477687
C27   C     C_3   0.238759 0.532191 0.081332 0.487638
C28   C     C_3   0.194017 0.468862 0.941049 0.476659
C29   C     C_3   0.783280 0.970725 0.576972 0.448227
C30   C     C_3   0.675514 0.029606 0.493965 0.404120
C31   C     C_3   0.792050 0.030964 0.572948 0.455443
C32   C     C_3   0.676682 0.969264 0.485774 0.486531
H1    H     H_    0.146594 0.904764 0.894596 0.202504
H2    H     H_    0.155612 0.093815 0.885551 0.197187
H3    H     H_    0.655287 0.403816 0.390473 0.206290
H4    H     H_    0.653412 0.592887 0.389110 0.196947
C33   C     C_3   0.332544 0.469336 0.981295 -0.327610
C34   C     C_3   0.327086 0.530747 0.966038 -0.317477
C35   C     C_3   0.811131 0.968082 0.434247 -0.388448
C36   C     C_3   0.803045 0.029736 0.428189 -0.329034
C37   C     C_3   0.252313 0.449280 0.000597 -0.422476
C38   C     C_3   0.250275 0.551337 0.998152 -0.455425
C39   C     C_3   0.756942 0.948693 0.498220 -0.456009
C40   C     C_3   0.756436 0.050834 0.497655 -0.381216
C41   C     C_R   0.147757 0.236181 0.704812 -0.228970
C42   C     C_R   0.143900 0.758437 0.298519 -0.153675
C43   C     C_R   0.102846 0.828331 0.751703 -0.118069
C44   C     C_R   0.113397 0.322801 0.278712 -0.163230
C45   C     C_R   0.603256 0.670512 0.248085 -0.128774
C46   C     C_R   0.525620 0.156558 0.665826 -0.173620
C47   C     C_R   0.613697 0.179189 0.221440 -0.167938
C48   C     C_R   0.641629 0.723400 0.793099 -0.210334
C49   C     C_R   0.166059 0.228301 0.630638 -0.100118
C50   C     C_R   0.159775 0.769108 0.372943 -0.103365
C51   C     C_R   0.101922 0.866203 0.697620 -0.044129
C52   C     C_R   0.123775 0.341172 0.351301 -0.114809
C53   C     C_R   0.604720 0.634078 0.190443 -0.059117
C54   C     C_R   0.484783 0.112281 0.678620 -0.174935
C55   C     C_R   0.627145 0.163328 0.148397 -0.063026
C56   C     C_R   0.656262 0.708286 0.865628 -0.126819
C57   C     C_R   0.552109 0.636483 0.135157 0.709270
C58   C     C_R   0.435676 0.111935 0.736701 0.634057
C59   C     C_R   0.595376 0.190616 0.090866 0.691388
C60   C     C_R   0.599068 0.703283 0.914876 0.637736
C61   C     C_R   0.111008 0.226016 0.577870 0.648046
C62   C     C_R   0.103139 0.779595 0.421362 0.609508
C63   C     C_R   0.046093 0.866273 0.645537 0.687597
C64   C     C_R   0.092181 0.314760 0.409158 0.628002
C65   C     C_R   0.499131 0.674696 0.137406 -0.199367
C66   C     C_R   0.423052 0.156423 0.778008 -0.156890
C67   C     C_R   0.541126 0.226363 0.106391 -0.194424
C68   C     C_R   0.528854 0.715206 0.893028 -0.206633
C69   C     C_R   0.039098 0.233100 0.598582 -0.193754
C70   C     C_R   0.032019 0.775089 0.397208 -0.181478
C71   C     C_R   0.993321 0.828357 0.646399 -0.189060
C72   C     C_R   0.040414 0.277485 0.393782 -0.132576
C73   C     C_R   0.497593 0.712305 0.194851 -0.018417
C74   C     C_R   0.460325 0.202280 0.763112 0.010967
C75   C     C_R   0.517341 0.234774 0.179625 0.001848
C76   C     C_R   0.513603 0.733329 0.821288 0.001471
C77   C     C_R   0.019717 0.242732 0.673000 0.011381
C78   C     C_R   0.015163 0.759337 0.323763 -0.003921
C79   C     C_R   0.994859 0.788748 0.699267 -0.008286
C80   C     C_R   0.017569 0.267508 0.320633 -0.023203
C81   C     C_R   0.074778 0.242624 0.726988 0.041301
C82   C     C_R   0.071591 0.754906 0.272357 0.018179
C83   C     C_R   0.050401 0.788818 0.752393 0.043160
C84   C     C_R   0.063026 0.283181 0.263285 0.033398
C85   C     C_R   0.551536 0.710820 0.249688 0.045802
C86   C     C_R   0.514606 0.201906 0.708357 0.048175
C87   C     C_R   0.561949 0.218037 0.237305 0.039998
C88   C     C_R   0.570539 0.736147 0.770066 0.040280
C89   C     C_R   0.443120 0.750803 0.198364 -0.005288
C90   C     C_R   0.438534 0.249564 0.795192 -0.037924
C91   C     C_R   0.449448 0.257480 0.196340 -0.096464
C92   C     C_R   0.442448 0.747244 0.799736 -0.050071
C93   C     C_R   0.946389 0.249160 0.695269 -0.054235
C94   C     C_R   0.943376 0.747971 0.301577 -0.022353
C95   C     C_R   0.943183 0.748713 0.698399 -0.006292
C96   C     C_R   0.949305 0.245284 0.303314 -0.092878
C97   C     C_R   0.440842 0.788068 0.257217 -0.047247
C98   C     C_R   0.463722 0.296141 0.763756 -0.093808
C99   C     C_R   0.433106 0.271787 0.271660 -0.082221
C100  C     C_R   0.426774 0.761548 0.725311 -0.095191
C101  C     C_R   0.926872 0.246020 0.770690 -0.113090
C102  C     C_R   0.926438 0.733629 0.226730 -0.074045
C103  C     C_R   0.947047 0.707055 0.748913 -0.039290
C104  C     C_R   0.931739 0.235029 0.227455 -0.108750
C105  C     C_R   0.981482 0.232112 0.820785 0.016204
C106  C     C_R   0.982993 0.735251 0.173968 -0.000661
C107  C     C_R   0.004380 0.707530 0.801390 -0.010107
C108  C     C_R   0.979201 0.251295 0.172252 0.004873
C109  C     C_R   0.498567 0.787641 0.309265 -0.042017
C110  C     C_R   0.530384 0.294541 0.727283 -0.008328
C111  C     C_R   0.479775 0.254626 0.327762 0.005717
C112  C     C_R   0.485762 0.769424 0.677449 -0.003571
C113  C     C_R   0.054953 0.242362 0.801987 -0.053396
C114  C     C_R   0.054370 0.747323 0.196656 -0.028793
C115  C     C_R   0.054150 0.748642 0.803496 -0.008297
C116  C     C_R   0.049686 0.263908 0.191231 -0.072764
C117  C     C_R   0.553391 0.749759 0.304490 -0.000693
C118  C     C_R   0.553305 0.247796 0.695044 0.002761
C119  C     C_R   0.548710 0.237091 0.309422 -0.072927
C120  C     C_R   0.555492 0.752472 0.697602 -0.021411
C121  C     C_R   0.383002 0.824803 0.268934 -0.252618
C122  C     C_R   0.424717 0.343588 0.761690 -0.290883
C123  C     C_R   0.373286 0.302652 0.295151 -0.257290
C124  C     C_R   0.355438 0.770600 0.696482 -0.272373
C125  C     C_R   0.854006 0.250370 0.797213 -0.274929
C126  C     C_R   0.855913 0.717787 0.201190 -0.237536
C127  C     C_R   0.897444 0.664300 0.749259 -0.204416
C128  C     C_R   0.868577 0.209877 0.202415 -0.291044
C129  C     C_R   0.387681 0.860812 0.327575 0.556640
C130  C     C_R   0.463488 0.389510 0.751916 0.641167
C131  C     C_R   0.349138 0.300092 0.368776 0.595897
C132  C     C_R   0.346469 0.798774 0.631619 0.606143
C133  C     C_R   0.834900 0.223975 0.861207 0.717394
C134  C     C_R   0.843444 0.707403 0.125876 0.607503
C135  C     C_R   0.908066 0.624145 0.799253 0.641209
C136  C     C_R   0.838943 0.223527 0.133713 0.644407
C137  C     C_R   0.887564 0.198660 0.901425 0.625535
C138  C     C_R   0.899186 0.709586 0.075680 0.606891
C139  C     C_R   0.964056 0.625745 0.850029 0.702053
C140  C     C_R   0.880099 0.251647 0.084802 0.651700
C141  C     C_R   0.446910 0.861677 0.374093 0.742803
C142  C     C_R   0.536852 0.387641 0.735351 0.632313
C143  C     C_R   0.389529 0.274063 0.420925 0.595627
C144  C     C_R   0.405798 0.811569 0.589743 0.608995
C145  C     C_R   0.960052 0.205098 0.884506 -0.335285
C146  C     C_R   0.968081 0.722181 0.099241 -0.317837
C147  C     C_R   0.011157 0.666830 0.851758 -0.346092
C148  C     C_R   0.952630 0.260456 0.100726 -0.347087
C149  C     C_R   0.500118 0.824575 0.367078 -0.331269
C150  C     C_R   0.569350 0.340576 0.719167 -0.283361
C151  C     C_R   0.456152 0.253726 0.401574 -0.313420
C152  C     C_R   0.474322 0.795185 0.610260 -0.320611
H5    H     H_    0.190846 0.233488 0.744900 0.195973
H6    H     H_    0.189027 0.752126 0.262333 0.230996
H7    H     H_    0.146118 0.829286 0.792022 0.177534
H8    H     H_    0.139060 0.343172 0.234606 0.227915
H9    H     H_    0.643449 0.667356 0.291289 0.166658
H10   H     H_    0.563622 0.155756 0.620631 0.190093
H11   H     H_    0.639087 0.157843 0.265188 0.223104
H12   H     H_    0.686448 0.725808 0.755430 0.182005
H13   H     H_    0.459651 0.674415 0.093200 0.140758
H14   H     H_    0.379640 0.155237 0.817553 0.185858
H15   H     H_    0.515904 0.245695 0.060500 0.179846
H16   H     H_    0.486715 0.709743 0.933260 0.159348
H17   H     H_    0.998816 0.228127 0.555976 0.157932
H18   H     H_    0.990585 0.783620 0.437499 0.179935
H19   H     H_    0.952155 0.830051 0.603958 0.149674
H20   H     H_    0.015570 0.258733 0.439627 0.189952
H21   H     H_    0.996658 0.184010 0.918891 0.242443
H22   H     H_    0.009640 0.720272 0.057653 0.195263
H23   H     H_    0.053245 0.666066 0.893330 0.181270
H24   H     H_    0.986023 0.278465 0.059666 0.191312
H25   H     H_    0.542398 0.824905 0.408328 0.213779
H26   H     H_    0.624170 0.340481 0.698544 0.227922
H27   H     H_    0.488390 0.235847 0.444181 0.192237
H28   H     H_    0.518584 0.804246 0.573925 0.195300
C153  C     C_R   0.383124 0.042714 0.028784 -0.035270
C154  C     C_R   0.325152 0.959870 0.105322 -0.129624
C155  C     C_R   0.883000 0.544169 0.530538 0.000022
C156  C     C_R   0.835654 0.456219 0.602705 -0.059218
C157  C     C_R   0.422104 0.022082 0.089000 -0.063769
C158  C     C_R   0.391182 0.981808 0.129760 -0.109938
C159  C     C_R   0.923012 0.525939 0.591417 -0.055657
C160  C     C_R   0.897257 0.482922 0.630062 -0.113227
C161  C     C_R   0.294880 0.976042 0.037809 0.042536
C162  C     C_R   0.312010 0.024828 0.014362 0.028835
C163  C     C_R   0.797700 0.475284 0.540067 0.023608
C164  C     C_R   0.812232 0.525095 0.517905 0.050988
C165  C     C_R   0.245726 0.947082 0.994868 -0.020202
C166  C     C_R   0.255790 0.053410 0.980505 -0.038779
C167  C     C_R   0.747359 0.446729 0.496977 -0.035584
C168  C     C_R   0.755412 0.553133 0.483771 -0.034278
C169  C     C_R   0.198772 0.972551 0.944331 -0.008829
C170  C     C_R   0.201162 0.026901 0.940875 0.001362
C171  C     C_R   0.700982 0.472054 0.445820 -0.009079
C172  C     C_R   0.701586 0.526312 0.443509 -0.006701
C173  C     C_R   0.148822 0.946038 0.898209 -0.302180
C174  C     C_R   0.152834 0.052846 0.893418 -0.329709
C175  C     C_R   0.654454 0.445046 0.396443 -0.344992
C176  C     C_R   0.652712 0.551810 0.395913 -0.296107
C177  C     C_R   0.099731 0.972680 0.854251 0.598939
C178  C     C_R   0.101791 0.025924 0.851802 0.631498
C179  C     C_R   0.605775 0.471014 0.351379 0.626852
C180  C     C_R   0.604088 0.524294 0.352014 0.614700
C181  C     C_2   0.250934 0.446270 0.150355 0.441593
H29   H     H_    0.212995 0.421147 0.177311 0.196042
O53   O     O_2   0.310560 0.451347 0.178156 -0.543069
C182  C     C_2   0.158953 0.553980 0.879064 0.464583
H30   H     H_    0.182786 0.587916 0.856888 0.060880
O54   O     O_2   0.106826 0.536897 0.845290 -0.428509
C183  C     C_2   0.294007 0.551858 0.138551 0.392624
H31   H     H_    0.276101 0.578833 0.181065 0.161638
O55   O     O_2   0.357249 0.538801 0.139616 -0.519672
C184  C     C_2   0.207844 0.450708 0.861483 0.365160
H32   H     H_    0.186006 0.414111 0.842864 0.181122
O56   O     O_2   0.240871 0.475883 0.816798 -0.564425
C185  C     C_2   0.847548 0.942961 0.611374 0.539475
H33   H     H_    0.875520 0.911999 0.582981 0.035916
O57   O     O_2   0.866272 0.953401 0.674525 -0.409531
C186  C     C_2   0.625585 0.055611 0.438142 0.320210
H34   H     H_    0.643341 0.086750 0.404102 0.061805
O58   O     O_2   0.562509 0.042524 0.432134 -0.408207
C187  C     C_2   0.867618 0.053242 0.585626 0.443005
H35   H     H_    0.872474 0.094111 0.596930 0.137293
O59   O     O_2   0.923087 0.027800 0.584520 -0.560714
C188  C     C_2   0.641399 0.948294 0.415460 0.447174
H36   H     H_    0.640270 0.969025 0.364580 0.010648
O60   O     O_2   0.612111 0.906482 0.415331 -0.501764
C189  C     C_2   0.316169 0.827870 0.223757 0.482206
H37   H     H_    0.317844 0.829318 0.164466 0.029364
O61   O     O_2   0.257484 0.833557 0.253216 -0.512051
C190  C     C_2   0.346204 0.343771 0.743556 0.592530
H38   H     H_    0.319907 0.308316 0.726768 0.115983
O62   O     O_2   0.310394 0.383246 0.744545 -0.489769
C191  C     C_2   0.349087 0.346863 0.251592 0.672293
H39   H     H_    0.383605 0.362011 0.208913 0.077500
O63   O     O_2   0.289915 0.366169 0.261961 -0.508381
C192  C     C_2   0.291956 0.740825 0.719314 0.569849
H40   H     H_    0.298055 0.700396 0.731540 0.088467
O64   O     O_2   0.231849 0.760213 0.721157 -0.524486
C193  C     C_2   0.799912 0.285165 0.762858 0.613605
H41   H     H_    0.816971 0.312639 0.722819 -0.016329
O65   O     O_2   0.736003 0.283968 0.779225 -0.491642
C194  C     C_2   0.793656 0.709098 0.249591 0.598750
H42   H     H_    0.798444 0.684493 0.297104 0.014983
O66   O     O_2   0.735992 0.729907 0.236219 -0.533058
C195  C     C_2   0.831251 0.660434 0.703000 0.603780
H43   H     H_    0.794721 0.692779 0.698170 0.005183
O67   O     O_2   0.815811 0.620224 0.671331 -0.520810
C196  C     C_2   0.853335 0.158389 0.230974 0.638791
H44   H     H_    0.879294 0.145482 0.281198 0.105961
O68   O     O_2   0.817327 0.127882 0.195053 -0.463599
F1    F     F_    0.765439 0.222419 0.884962 -0.507142
F2    F     F_    0.777097 0.692609 0.101242 -0.593927
F3    F     F_    0.861394 0.584072 0.801429 -0.542945
F4    F     F_    0.773035 0.206470 0.111953 -0.601527
F5    F     F_    0.334840 0.896398 0.339255 -0.577541
F6    F     F_    0.429360 0.435772 0.751005 -0.518973
F7    F     F_    0.289795 0.326279 0.391976 -0.616428
F8    F     F_    0.279503 0.810013 0.605072 -0.580200
F9    F     F_    0.055499 0.051633 0.807230 -0.586960
F10   F     F_    0.050195 0.946564 0.813305 -0.614823
F11   F     F_    0.556983 0.549510 0.307766 -0.615591
F12   F     F_    0.560785 0.444177 0.306004 -0.595950
C197  C     C_2   0.422584 0.071136 0.970665 0.518982
H45   H     H_    0.474279 0.089033 0.981650 0.118762
O69   O     O_2   0.398467 0.073188 0.908024 -0.527711
C198  C     C_2   0.278389 0.933858 0.159752 0.398267
H46   H     H_    0.297275 0.928747 0.215554 0.152669
O70   O     O_2   0.216185 0.921700 0.145437 -0.517079
C199  C     C_2   0.921669 0.570968 0.470068 0.491590
H47   H     H_    0.974498 0.587717 0.478905 0.109368
O71   O     O_2   0.895830 0.572770 0.408030 -0.550468
C200  C     C_2   0.805285 0.413978 0.646741 0.475608
H48   H     H_    0.840941 0.386485 0.672135 0.000055
O72   O     O_2   0.740224 0.410545 0.656464 -0.515985
C201  C     C_2   0.493969 0.042633 0.110180 0.444232
H49   H     H_    0.537180 0.016817 0.126518 0.117355
O73   O     O_2   0.504197 0.088839 0.112956 -0.598484
C202  C     C_2   0.427745 0.961379 0.196447 0.427703
H50   H     H_    0.424932 0.920751 0.207706 0.020836
O74   O     O_2   0.459605 0.989585 0.239919 -0.489385
C203  C     C_2   0.991999 0.550850 0.614001 0.438478
H51   H     H_    0.036353 0.527928 0.635233 0.115933
O75   O     O_2   0.998826 0.597408 0.611764 -0.554191
C204  C     C_2   0.934340 0.465764 0.698681 0.471809
H52   H     H_    0.940472 0.425287 0.710189 0.043124
O76   O     O_2   0.957324 0.496883 0.743935 -0.437800
F13   F     F_    0.152333 0.464959 0.083557 -0.508372
F14   F     F_    0.120646 0.536211 0.992521 -0.441430
F15   F     F_    0.175093 0.554203 0.108242 -0.543002
F16   F     F_    0.128069 0.445841 0.956040 -0.527460
F17   F     F_    0.728970 0.961263 0.627721 -0.462913
F18   F     F_    0.643448 0.041809 0.561013 -0.484766
F19   F     F_    0.753933 0.051211 0.632726 -0.505448
F20   F     F_    0.632694 0.950121 0.541003 -0.471901
C205  C     C_2   0.382839 0.452743 0.044374 0.631458
H53   H     H_    0.372594 0.416726 0.071392 0.024919
O77   O     O_2   0.440447 0.473362 0.058326 -0.391662
C206  C     C_2   0.333142 0.543460 0.883571 0.522949
H54   H     H_    0.293324 0.565914 0.855648 0.057356
O78   O     O_2   0.386726 0.532171 0.847476 -0.383644
C207  C     C_2   0.390451 0.561904 0.997964 0.681925
H55   H     H_    0.381660 0.594198 0.035222 0.013863
O79   O     O_2   0.452522 0.553825 0.977796 -0.372207
C208  C     C_2   0.366816 0.440228 0.916017 0.531920
H56   H     H_    0.335527 0.418134 0.877040 0.134617
O80   O     O_2   0.432056 0.441906 0.905575 -0.437318
C209  C     C_2   0.887977 0.949773 0.454040 0.428542
H57   H     H_    0.928382 0.975274 0.476509 0.142369
O81   O     O_2   0.905369 0.904619 0.446316 -0.545228
C210  C     C_2   0.763834 0.044128 0.356144 0.506324
H58   H     H_    0.717240 0.023542 0.336936 0.006913
O82   O     O_2   0.784388 0.078789 0.317292 -0.488071
C211  C     C_2   0.877863 0.054931 0.420595 0.520283
H59   H     H_    0.917616 0.036968 0.384500 0.115683
O83   O     O_2   0.892560 0.096740 0.447923 -0.608788
C212  C     C_2   0.799275 0.943473 0.357000 0.564727
H60   H     H_    0.749961 0.924406 0.341024 0.073480
O84   O     O_2   0.844953 0.947953 0.308981 -0.510884
F21   F     F_    0.868635 0.169567 0.959606 -0.574008
F22   F     F_    0.886994 0.697651 0.003609 -0.612324
F23   F     F_    0.971899 0.587517 0.899421 -0.510231
F24   F     F_    0.850996 0.267892 0.020570 -0.595807
F25   F     F_    0.452255 0.898500 0.427550 -0.499172
F26   F     F_    0.574086 0.431712 0.725530 -0.537798
F27   F     F_    0.367189 0.272576 0.491985 -0.621895
F28   F     F_    0.395986 0.836788 0.525847 -0.580557
C213  C     C_2   0.242178 0.219670 0.608245 0.549863
H61   H     H_    0.255488 0.213819 0.550501 0.172584
O85   O     O_2   0.290963 0.218729 0.653807 -0.604159
C214  C     C_2   0.235212 0.769106 0.400728 0.580769
H62   H     H_    0.247339 0.783593 0.455804 0.174232
O86   O     O_2   0.284569 0.751848 0.363214 -0.564716
C215  C     C_2   0.159636 0.905314 0.694503 0.611907
H63   H     H_    0.156882 0.935501 0.654011 0.139293
O87   O     O_2   0.211233 0.904197 0.736706 -0.570203
C216  C     C_2   0.163073 0.389428 0.367218 0.652176
H64   H     H_    0.180504 0.398650 0.423069 0.139245
O88   O     O_2   0.173921 0.420485 0.318866 -0.539346
C217  C     C_2   0.661502 0.593800 0.187094 0.606368
H65   H     H_    0.660823 0.564997 0.143219 0.147842
O89   O     O_2   0.709983 0.592352 0.232949 -0.595012
C218  C     C_2   0.488915 0.067408 0.628406 0.684541
H66   H     H_    0.473441 0.029659 0.647105 0.135409
O90   O     O_2   0.506061 0.072664 0.564222 -0.463021
C219  C     C_2   0.670343 0.116711 0.131768 0.669446
H67   H     H_    0.690199 0.109433 0.076349 0.145979
O91   O     O_2   0.681906 0.084844 0.179127 -0.530969
C220  C     C_2   0.731131 0.698330 0.890888 0.579233
H68   H     H_    0.740995 0.680729 0.943856 0.195813
O92   O     O_2   0.782818 0.710747 0.853764 -0.585613
F29   F     F_    0.551910 0.601780 0.078576 -0.588446
F30   F     F_    0.395086 0.069707 0.749355 -0.623667
F31   F     F_    0.611792 0.179395 0.019502 -0.606756
F32   F     F_    0.611176 0.687648 0.984936 -0.631858
F33   F     F_    0.126591 0.214750 0.506354 -0.668797
F34   F     F_    0.116371 0.792526 0.492990 -0.631064
F35   F     F_    0.042960 0.902680 0.592817 -0.624400
F36   F     F_    0.106083 0.328281 0.480408 -0.658134

loop_
_geom_bond_atom_site_label_1
_geom_bond_atom_site_label_2
_geom_bond_distance
_ccdc_geom_bond_type
C196  O68   1.218592 D    
C153  C157  1.417307 A    
C126  C134  1.406509 A    
C29   F17   1.391240 S    
C174  C178  1.391738 A    
C164  C168  1.421943 A    
C31   F19   1.391375 S    
C197  H45   1.082450 S    
C103  C127  1.446836 A    
C189  H37   1.077155 S    
C36   C210  1.542051 S    
C167  C171  1.427650 A    
O26   C7    1.284343 A    
C27   F15   1.394155 S    
C44   H8    1.079940 S    
C161  C165  1.408830 A    
C99   C111  1.408114 A    
C32   F20   1.393386 S    
C163  C167  1.419052 A    
C128  C196  1.474313 S    
O30   C11   1.274414 A    
C158  C202  1.487448 S    
C123  C131  1.412640 A    
C121  C129  1.409602 A    
C206  H54   1.068940 S    
C76   C88   1.410577 A    
C77   C81   1.409752 A    
Zn12  O26   1.929553 S    
C142  C150  1.390388 A    
C213  O85   1.221326 D    
C80   C84   1.407318 A    
C8    C94   1.457306 S    
C10   C114  1.464387 S    
C54   C218  1.472298 S    
C124  C132  1.404996 A    
C44   C52   1.406367 A    
C25   C181  1.529975 S    
C47   H11   1.080313 S    
C107  C147  1.414943 A    
C71   C79   1.419531 A    
C217  O89   1.221222 D    
C58   F30   1.358135 S    
O11   C7    1.290564 A    
O34   C15   1.299427 A    
C192  O64   1.219291 D    
C94   C102  1.435907 A    
C43   C51   1.402004 A    
C109  C149  1.412100 A    
C71   H19   1.081595 S    
C198  H46   1.079140 S    
C142  F26   1.356395 S    
C99   C123  1.427210 A    
Zn1   O44   1.954015 S    
C105  C145  1.421428 A    
Zn2   O43   1.954018 S    
C97   C121  1.445963 A    
C140  C148  1.390775 A    
Zn5   O48   1.954015 S    
C194  H42   1.084983 S    
C156  C200  1.483998 S    
Zn6   O47   1.954018 S    
C144  C152  1.386644 A    
Zn7   O46   1.968408 S    
C43   H7    1.081904 S    
C30   F18   1.387112 S    
C155  C164  1.419152 A    
O16   C12   1.261373 A    
C73   C85   1.406539 A    
C41   H5    1.079243 S    
C203  H51   1.085057 S    
Zn16  O4    1.963805 S    
Zn11  O3    1.964110 S    
C202  H50   1.082485 S    
Zn12  O4    1.973816 S    
Zn1   O13   1.937854 S    
C7    C93   1.452303 S    
C130  C142  1.391910 A    
C26   C28   1.576708 S    
C13   C117  1.457904 S    
Zn4   O16   1.951768 S    
C50   C214  1.481673 S    
C67   H15   1.082216 S    
C209  H57   1.077017 S    
C154  C198  1.488921 S    
C46   C86   1.414939 A    
C188  H36   1.076514 S    
C211  H59   1.086058 S    
C58   C66   1.389292 A    
C131  C143  1.386001 A    
O28   C5    1.272010 A    
C3    C89   1.449253 S    
C143  F27   1.356396 S    
C144  F28   1.352084 S    
C198  O70   1.220891 D    
C210  O82   1.217453 D    
C207  H55   1.082758 S    
C132  F8    1.359278 S    
C28   C37   1.609549 S    
Zn10  O22   1.929553 S    
C137  C145  1.388689 A    
C218  H66   1.085394 S    
C159  C203  1.487714 S    
C139  F23   1.356565 S    
C182  H30   1.074426 S    
C83   C115  1.409990 A    
O25   C8    1.287020 A    
C184  O56   1.218797 D    
H1    C173  1.077055 S    
Zn10  O2    1.973816 S    
C178  F9    1.356514 S    
C79   C95   1.418264 A    
C186  O58   1.221337 D    
O29   C12   1.304034 A    
C29   C185  1.524593 S    
Zn15  O33   1.929194 S    
C55   C59   1.397379 A    
C44   C84   1.417861 A    
C26   C182  1.532247 S    
C106  C114  1.416801 A    
C53   C57   1.396124 A    
C57   C65   1.393521 A    
C32   C39   1.592270 S    
C47   C87   1.416523 A    
O5    C1    1.270059 A    
C48   C88   1.417512 A    
O37   C17   1.273258 A    
C110  C118  1.406653 A    
O48   C23   1.263214 A    
C208  H56   1.073751 S    
C42   C82   1.420339 A    
C34   C206  1.541608 S    
Zn13  O29   1.929194 S    
C195  O67   1.221161 D    
C201  H49   1.085156 S    
C219  H67   1.085229 S    
Zn16  O35   1.939835 S    
C153  C162  1.419805 A    
C48   H12   1.079459 S    
C213  H61   1.085141 S    
C187  O59   1.218766 D    
C82   C114  1.419022 A    
C124  C192  1.475251 S    
Zn7   O10   1.951721 S    
C73   C89   1.418902 A    
O33   C16   1.283378 A    
C155  C199  1.496053 S    
C86   C118  1.421014 A    
C157  C158  1.417278 A    
C193  O65   1.221036 D    
C78   C94   1.417379 A    
C72   H20   1.076916 S    
C161  C162  1.385088 A    
C26   F14   1.388873 S    
C172  C176  1.417206 A    
Zn5   O17   1.937854 S    
C55   C219  1.478047 S    
C35   C36   1.617526 S    
C101  C105  1.405569 A    
C89   C97   1.432018 A    
C190  O62   1.220209 D    
C25   C27   1.568979 S    
C181  H29   1.085291 S    
C98   C110  1.402236 A    
C135  C139  1.383232 A    
C162  C166  1.419019 A    
C141  C149  1.380768 A    
C127  C135  1.407404 A    
C51   C215  1.481513 S    
Zn8   O3    1.928423 S    
C30   C40   1.599412 S    
C101  C125  1.436698 A    
C76   C92   1.418415 A    
C77   C93   1.425506 A    
C214  H62   1.085116 S    
O38   C18   1.298404 A    
C151  H27   1.083477 S    
C133  F1    1.358227 S    
C51   C63   1.396500 A    
H3    C175  1.077733 S    
O32   C9    1.270391 A    
C30   C186  1.530879 S    
C52   C216  1.479219 S    
C134  C138  1.380673 A    
C200  O72   1.221251 D    
Zn15  O51   1.961135 S    
C185  H33   1.080944 S    
C12   C116  1.474035 S    
Zn11  O28   1.922946 S    
C204  O76   1.221062 D    
C59   F31   1.357771 S    
C216  H64   1.085318 S    
C57   F29   1.356833 S    
C203  O75   1.221253 D    
C79   C83   1.405418 A    
C199  O71   1.221958 D    
C220  H68   1.085223 S    
C92   C100  1.433872 A    
C140  F24   1.354025 S    
C95   C103  1.432369 A    
C33   C205  1.537217 S    
C96   C104  1.433542 A    
C33   C37   1.617794 S    
C35   C39   1.624970 S    
C211  O83   1.220859 D    
O50   C18   1.275239 A    
C171  C172  1.414694 A    
C74   C86   1.415408 A    
C139  C147  1.383487 A    
C132  C144  1.382738 A    
Zn1   O1    1.957416 S    
Zn13  O1    1.973512 S    
Zn2   O14   1.942920 S    
C72   C80   1.411154 A    
C75   C91   1.417550 A    
C66   C74   1.412669 A    
C45   H9    1.081544 S    
C206  O78   1.222518 D    
O9    C5    1.277941 A    
C146  H22   1.079906 S    
O39   C19   1.274369 A    
O36   C13   1.283432 A    
C59   C67   1.392196 A    
C104  C108  1.406439 A    
C41   C49   1.400427 A    
Zn1   O8    1.942879 S    
C128  C136  1.408948 A    
C183  H31   1.086652 S    
C4    C90   1.475456 S    
Zn3   O6    1.951721 S    
O18   C14   1.278547 A    
O31   C10   1.294052 A    
C127  C195  1.484244 S    
C45   C53   1.401107 A    
O6    C2    1.268929 A    
C163  C164  1.392186 A    
C25   C37   1.620243 S    
C205  O77   1.219692 D    
C47   C55   1.404354 A    
C154  C158  1.417653 A    
C217  H65   1.085108 S    
C125  C133  1.405696 A    
C179  C180  1.387883 A    
C17   C166  1.473292 S    
C5    C95   1.446951 S    
C6    C96   1.491985 S    
C111  C119  1.392399 A    
Zn14  O30   1.923198 S    
Zn15  O3    1.973512 S    
C74   C90   1.411527 A    
O8    C4    1.267300 A    
O41   C21   1.273962 A    
C65   C73   1.419092 A    
C219  O91   1.221216 D    
Zn16  O34   1.923198 S    
C31   C187  1.531506 S    
C29   C39   1.605481 S    
C49   C213  1.482467 S    
C107  C115  1.415879 A    
C54   C58   1.394317 A    
C122  C130  1.411909 A    
C105  C113  1.430386 A    
C194  O66   1.219206 D    
Zn8   O20   1.951768 S    
C169  C173  1.418477 A    
O10   C6    1.281696 A    
C160  C204  1.491868 S    
C108  C116  1.386991 A    
C80   C96   1.423759 A    
C109  C117  1.413376 A    
C152  H28   1.082734 S    
C202  O74   1.221039 D    
C33   C208  1.533669 S    
C28   C184  1.533637 S    
C112  C120  1.409833 A    
C91   C99   1.443219 A    
C102  C106  1.422317 A    
C154  C161  1.413448 A    
C84   C116  1.413650 A    
C196  H44   1.085047 S    
Zn8   O9    1.940867 S    
C188  O60   1.218934 D    
C104  C128  1.412358 A    
C197  O69   1.220493 D    
C189  O61   1.219535 D    
C209  O81   1.223839 D    
C110  C150  1.412366 A    
C135  F3    1.359280 S    
C52   C64   1.395843 A    
C191  H39   1.085980 S    
C87   C119  1.413581 A    
C88   C120  1.413681 A    
C171  C175  1.420336 A    
C187  H35   1.085060 S    
C98   C122  1.428785 A    
O19   C15   1.261463 A    
C24   C40   1.507866 S    
C60   F32   1.357641 S    
C61   F33   1.357240 S    
C26   C38   1.620773 S    
Zn9   O24   1.922946 S    
Zn6   O18   1.942920 S    
C143  C151  1.383576 A    
Zn10  O23   1.928944 S    
C218  O90   1.217871 D    
H4    C176  1.079107 S    
C165  C169  1.428495 A    
O7    C3    1.285488 A    
C62   C70   1.389841 A    
C155  C159  1.413467 A    
C90   C98   1.429753 A    
C176  C180  1.392516 A    
Zn15  O36   1.929805 S    
Zn9   O1    1.964110 S    
O49   C17   1.303166 A    
O42   C22   1.268944 A    
C129  C141  1.379944 A    
C11   C115  1.454991 S    
Zn4   O1    1.928423 S    
O17   C13   1.291664 A    
C30   C32   1.576503 S    
C66   H14   1.080087 S    
Zn9   O37   1.965968 S    
C23   C39   1.501549 S    
C32   C188  1.524775 S    
O12   C8    1.281516 A    
Zn11  O39   1.965968 S    
C70   H18   1.081285 S    
C192  H40   1.084769 S    
C36   C211  1.542609 S    
C131  F7    1.354625 S    
H2    C174  1.080367 S    
O51   C19   1.301786 A    
C106  C146  1.418405 A    
C182  O54   1.222204 D    
C27   C38   1.611690 S    
C212  O84   1.223566 D    
C48   C56   1.403720 A    
C212  H60   1.077411 S    
Zn5   O3    1.957416 S    
C157  C201  1.482621 S    
C60   C68   1.391361 A    
Zn6   O4    1.957415 S    
C33   C34   1.630161 S    
C61   C69   1.394577 A    
C173  C177  1.395082 A    
C70   C78   1.421345 A    
C28   F16   1.392071 S    
C64   C72   1.391578 A    
C137  F21   1.357057 S    
C150  H26   1.082531 S    
C193  H41   1.076948 S    
C177  F10   1.355934 S    
C179  F12   1.356629 S    
C145  H21   1.073440 S    
O40   C20   1.291584 A    
C25   F13   1.390877 S    
C195  H43   1.081698 S    
Zn3   O42   1.968408 S    
C36   C40   1.617408 S    
Zn7   O4    1.928424 S    
O21   C4    1.310557 A    
C68   H16   1.081662 S    
C156  C163  1.427239 A    
C199  H47   1.082647 S    
C125  C193  1.487869 S    
Zn2   O2    1.957415 S    
C9    C113  1.468959 S    
Zn14  O2    1.963805 S    
C75   C87   1.402909 A    
C210  H58   1.071527 S    
C68   C76   1.417688 A    
C69   C77   1.416289 A    
Zn13  O49   1.961135 S    
O44   C21   1.273018 A    
C175  C179  1.393148 A    
C148  H24   1.083697 S    
C67   C75   1.414524 A    
C81   C113  1.410524 A    
C186  H34   1.080403 S    
C214  O86   1.220872 D    
Zn12  O27   1.928944 S    
C184  H32   1.085653 S    
C34   C207  1.535315 S    
C42   H6    1.074655 S    
C93   C101  1.419987 A    
C136  F4    1.354890 S    
C21   C37   1.507979 S    
Zn3   O2    1.928424 S    
C141  F25   1.356685 S    
C62   F34   1.358376 S    
C121  C189  1.482686 S    
C50   C62   1.393358 A    
O46   C24   1.272607 A    
O47   C24   1.273259 A    
C215  H63   1.085131 S    
Zn11  O25   1.939584 S    
Zn16  O52   1.966011 S    
C153  C197  1.493057 S    
C169  C170  1.418988 A    
C18   C165  1.466883 S    
C216  O88   1.220348 D    
C136  C140  1.391227 A    
Zn8   O45   1.968403 S    
C156  C160  1.421681 A    
C56   C220  1.479840 S    
O27   C6    1.295397 A    
C215  O87   1.221326 D    
C201  O73   1.219548 D    
C14   C118  1.458752 S    
C220  O92   1.219925 D    
C56   C60   1.395725 A    
C29   C31   1.581151 S    
C207  O79   1.222983 D    
C102  C126  1.442696 A    
O24   C1    1.301798 A    
C45   C85   1.416886 A    
C129  F5    1.358685 S    
C170  C174  1.414874 A    
C103  C107  1.421836 A    
C134  F2    1.359900 S    
C191  O63   1.216481 D    
O43   C22   1.273824 A    
O14   C10   1.277086 A    
Zn4   O41   1.968403 S    
Zn3   O15   1.940912 S    
C64   F36   1.357798 S    
Zn5   O12   1.942879 S    
C100  C112  1.415299 A    
Zn6   O11   1.937811 S    
C133  C137  1.384934 A    
C168  C172  1.413345 A    
C97   C109  1.422219 A    
Zn9   O21   1.939584 S    
C177  C178  1.389014 A    
Zn14  O50   1.966011 S    
O13   C9    1.312726 A    
C138  F22   1.356948 S    
O35   C14   1.289690 A    
Zn12  O40   1.961093 S    
C111  C151  1.410667 A    
C190  H38   1.084815 S    
C35   C212  1.546655 S    
C181  O53   1.217785 D    
O52   C20   1.278133 A    
C53   C217  1.481554 S    
C108  C148  1.408567 A    
C22   C38   1.497157 S    
C65   H13   1.082069 S    
C159  C160  1.416695 A    
Zn2   O7    1.937811 S    
C205  H53   1.083202 S    
C34   C38   1.623583 S    
C112  C152  1.414843 A    
O22   C3    1.289302 A    
C69   H17   1.077916 S    
C180  F11   1.356115 S    
C43   C83   1.418386 A    
Zn7   O19   1.940912 S    
C15   C119  1.470910 S    
C1    C91   1.487568 S    
C41   C81   1.418892 A    
C2    C92   1.465243 S    
C166  C170  1.414176 A    
Zn13  O32   1.929805 S    
O15   C11   1.276643 A    
Zn14  O31   1.939835 S    
C130  F6    1.357772 S    
C27   C183  1.537258 S    
C138  C146  1.381977 A    
C126  C194  1.471920 S    
O20   C16   1.273466 A    
C123  C191  1.473302 S    
Zn4   O5    1.940867 S    
C122  C190  1.487848 S    
C200  H48   1.078311 S    
C149  H25   1.079897 S    
C46   H10   1.082182 S    
C31   C40   1.605337 S    
C63   C71   1.392667 A    
C185  O57   1.222023 D    
O23   C2    1.294290 A    
C147  H23   1.081716 S    
C16   C120  1.459219 S    
C204  H52   1.083277 S    
Zn10  O38   1.961093 S    
C85   C117  1.409310 A    
C100  C124  1.437030 A    
C42   C50   1.403878 A    
C35   C209  1.539869 S    
C78   C82   1.405899 A    
C46   C54   1.404930 A    
C49   C61   1.395237 A    
C208  O80   1.223710 D    
C19   C168  1.472152 S    
O45   C23   1.280094 A    
C20   C167  1.459079 S    
C63   F35   1.358049 S    
C183  O55   1.216889 D    
