data_mof_unit_55983.cif
_audit_creation_date              2012-12-10T17:04:32-0500
_audit_creation_method            fapswitch 2.2
_symmetry_space_group_name_H-M    P1
_symmetry_Int_Tables_number       1
_space_group_crystal_system       triclinic
_cell_length_a                    14.975175
_cell_length_b                    10.695639
_cell_length_c                    10.021655
_cell_angle_alpha                 89.28776
_cell_angle_beta                  90.193493
_cell_angle_gamma                 90.102194
_cell_volume                      1605.02351207

loop_
_atom_site_label
_atom_site_type_symbol
_atom_type_description
_atom_site_fract_x
_atom_site_fract_y
_atom_site_fract_z
_atom_type_partial_charge
C1    C     C_R   0.505644 0.262724 0.500835 0.808640
C2    C     C_R   0.907234 0.568128 0.592214 0.151660
C3    C     C_R   0.948640 0.339323 0.322335 -0.284897
C4    C     C_R   0.041133 0.334163 0.322207 0.633865
C5    C     C_R   0.091505 0.410169 0.409798 -0.060679
C6    C     C_R   0.045904 0.489358 0.499684 -0.105369
C7    C     C_R   0.093042 0.566687 0.589119 0.027518
C8    C     C_R   0.047216 0.642618 0.679097 -0.133920
C9    C     C_R   0.954695 0.642756 0.681094 -0.236308
C10   C     C_R   0.185528 0.409889 0.411477 -0.147849
C11   C     C_R   0.230891 0.491044 0.498843 -0.262387
C12   C     C_R   0.326873 0.497113 0.499694 0.951338
C13   C     C_R   0.185280 0.567877 0.586874 0.555335
C14   C     C_2   0.532089 0.933133 0.394771 -0.143315
C15   C     C_2   0.494808 0.869810 0.495741 -0.237108
C16   C     C_2   0.527283 0.067721 0.391174 -0.318070
C17   C     C_2   0.526090 0.132641 0.504220 0.472512
C18   C     C_2   0.553106 0.569478 0.924295 -0.098256
C19   C     C_2   0.556418 0.564176 0.074465 -0.121581
C20   C     C_R   0.498893 0.737519 0.499041 0.915126
C21   C     C_R   0.672952 0.500013 0.500216 0.881763
C22   C     C_R   0.814777 0.569207 0.592676 -0.250611
C23   C     C_R   0.768143 0.497392 0.500705 -0.057811
C24   C     C_R   0.812013 0.422088 0.409594 -0.210589
C25   C     C_R   0.904353 0.417326 0.410296 0.018950
C26   C     C_R   0.952622 0.491470 0.500757 0.102780
H1    H     H_    0.778982 0.627504 0.662350 0.151648
H2    H     H_    0.459466 0.914493 0.576512 0.204402
H3    H     H_    0.519429 0.112629 0.294023 0.155715
H4    H     H_    0.598585 0.633343 0.873989 0.160567
H5    H     H_    0.461124 0.436018 0.898496 0.163257
H6    H     H_    0.607950 0.618295 0.123662 0.161581
H7    H     H_    0.449183 0.455530 0.102434 0.163330
H8    H     H_    0.774044 0.365703 0.340107 0.156278
H9    H     H_    0.911459 0.281466 0.253494 0.182421
H10   H     H_    0.082715 0.701930 0.748344 0.204287
H11   H     H_    0.920282 0.701780 0.751382 0.157160
H12   H     H_    0.562298 0.885926 0.310792 0.170627
N1    N     N_2   0.500970 0.501330 0.852150 -0.181976
N2    N     N_2   0.500990 0.501360 0.147810 -0.190374
O1    O     O_R   0.499990 0.319060 0.613040 -0.574925
O2    O     O_R   0.500010 0.319100 0.386900 -0.649286
O3    O     O_R   0.367830 0.499950 0.613080 -0.562924
O4    O     O_R   0.367860 0.499990 0.386940 -0.631239
O5    O     O_R   0.499990 0.680900 0.613100 -0.592587
O6    O     O_R   0.500010 0.680940 0.386960 -0.618060
O7    O     O_R   0.632140 0.500010 0.613060 -0.614906
O8    O     O_R   0.632170 0.500050 0.386920 -0.622940
Zn1   Zn    Zn3+2 0.499980 0.499970 0.650990 1.008095
Zn2   Zn    Zn3+2 0.500020 0.500030 0.349010 0.946262
F1    F     F_    0.549917 0.080840 0.624138 -0.659559
F2    F     F_    0.079544 0.254937 0.234782 -0.665595
C27   C     C_R   0.237004 0.320797 0.329450 0.235036
C28   C     C_R   0.258840 0.350714 0.196611 -0.008156
C29   C     C_R   0.306535 0.265600 0.119748 -0.141685
C30   C     C_R   0.332379 0.150462 0.174854 -0.088085
C31   C     C_R   0.310651 0.120261 0.306951 -0.132646
C32   C     C_R   0.263537 0.205381 0.384457 -0.131424
H13   H     H_    0.238850 0.439571 0.153085 0.124966
H14   H     H_    0.323381 0.288836 0.017453 0.124811
H15   H     H_    0.369250 0.084639 0.115250 0.140264
H16   H     H_    0.330469 0.030961 0.349391 0.146000
H17   H     H_    0.247204 0.181266 0.486792 0.129556
F3    F     F_    0.231202 0.646136 0.668598 -0.670635

loop_
_geom_bond_atom_site_label_1
_geom_bond_atom_site_label_2
_ccdc_geom_bond_type
C2    C26   A    
C2    C22   A    
C7    C13   A    
C23   C24   A    
C6    C7    A    
C18   H4    S    
C27   C32   A    
C3    H9    S    
C14   H12   S    
O6    Zn2   S    
C1    C17   S    
C20   O5    A    
C14   C15   D    
O5    Zn1   S    
C18   N1    D    
C21   O8    A    
C17   F1    S    
C29   C30   A    
C9    H11   S    
C15   H2    S    
C31   H16   S    
C12   O4    A    
C27   C28   A    
C30   C31   A    
O8    Zn2   S    
C11   C13   A    
C28   C29   A    
C31   C32   A    
C6    C26   A    
C13   F3    S    
O2    Zn2   S    
N2    Zn2   S    
C19   H6    S    
O1    Zn1   S    
N1    Zn1   S    
C4    F2    S    
C12   O3    A    
C28   H13   S    
C21   C23   S    
C8    H10   S    
C5    C6    A    
C14   C16   S    
H7    N2    S    
C10   C11   A    
O3    Zn1   S    
C3    C4    A    
C1    O2    A    
C7    C8    A    
C3    C25   A    
C24   C25   A    
C16   H3    S    
C8    C9    A    
O7    Zn1   S    
C18   C19   S    
C19   N2    D    
C1    O1    A    
C32   H17   S    
C22   H1    S    
C10   C27   S    
C30   H15   S    
C16   C17   D    
O4    Zn2   S    
C5    C10   A    
C25   C26   A    
C29   H14   S    
C2    C9    A    
C15   C20   S    
C22   C23   A    
C20   O6    A    
C11   C12   S    
H5    N1    S    
C4    C5    A    
C21   O7    A    
C24   H8    S    
