data_mof_unit_38908.cif
_audit_creation_date              2012-12-10T18:22:31-0500
_audit_creation_method            fapswitch 2.2
_symmetry_space_group_name_H-M    P1
_symmetry_Int_Tables_number       1
_space_group_crystal_system       triclinic
_cell_length_a                    23.512644
_cell_length_b                    10.73825
_cell_length_c                    9.472576
_cell_angle_alpha                 91.555049
_cell_angle_beta                  89.976317
_cell_angle_gamma                 89.128994
_cell_volume                      2390.52214053

loop_
_atom_site_label
_atom_site_type_symbol
_atom_type_description
_atom_site_fract_x
_atom_site_fract_y
_atom_site_fract_z
_atom_type_partial_charge
C1    C     C_R   0.501831 0.259161 0.497212 0.819563
C2    C     C_R   0.498142 0.739732 0.502335 0.875101
C3    C     C_R   0.236932 0.546618 0.390269 -0.211250
C4    C     C_R   0.763363 0.428643 0.439474 -0.173132
C5    C     C_R   0.296482 0.547318 0.384682 0.392532
C6    C     C_R   0.704311 0.417320 0.440282 0.433600
C7    C     C_R   0.328334 0.510695 0.503407 -0.130671
C8    C     C_R   0.670425 0.512180 0.503341 -0.150232
C9    C     C_R   0.299621 0.484484 0.629240 -0.314012
C10   C     C_R   0.696095 0.610793 0.577850 -0.297072
C11   C     C_R   0.240486 0.489358 0.635441 -0.116271
C12   C     C_R   0.755247 0.617677 0.584349 -0.120087
C13   C     C_R   0.208782 0.518781 0.515563 0.303597
C14   C     C_R   0.789359 0.527214 0.514016 0.279986
C15   C     C_3   0.538382 0.041530 0.592791 -0.390505
C16   C     C_3   0.461354 0.951774 0.406231 -0.399073
C17   C     C_3   0.550844 0.947063 0.469287 0.403991
C18   C     C_3   0.448908 0.047378 0.527779 0.374667
C19   C     C_3   0.497958 0.875376 0.507527 -0.179205
C20   C     C_3   0.501926 0.121328 0.489346 -0.301025
C21   C     C_3   0.484569 0.968080 0.629120 0.492650
C22   C     C_3   0.515125 0.024648 0.366620 0.369042
C23   C     C_R   0.391069 0.503613 0.500444 0.802909
C24   C     C_R   0.608484 0.504124 0.500509 0.846159
C25   C     C_3   0.514051 0.606471 0.051005 0.255265
C26   C     C_3   0.485911 0.393382 0.948600 0.268845
C27   C     C_3   0.464372 0.582472 0.951041 -0.057541
C28   C     C_3   0.535858 0.418293 0.048893 -0.106647
C29   C     C_3   0.549815 0.525271 0.949668 -0.056828
C30   C     C_3   0.450042 0.475245 0.050132 -0.077363
C31   C     C_R   0.878624 0.635305 0.483646 0.545889
C32   C     C_R   0.119519 0.414662 0.552807 0.541071
C33   C     C_R   0.879504 0.428933 0.570783 0.543965
C34   C     C_R   0.118934 0.629512 0.494452 0.543536
C35   C     C_R   0.938968 0.424704 0.568758 -0.043458
C36   C     C_R   0.059380 0.633430 0.495001 -0.046554
C37   C     C_R   0.969031 0.530444 0.529368 -0.056280
C38   C     C_R   0.029254 0.526015 0.528764 -0.055407
C39   C     C_R   0.938902 0.640109 0.490692 -0.021917
C40   C     C_R   0.059277 0.414420 0.561215 -0.021894
C41   C     C_R   0.968422 0.315859 0.604715 -0.157248
C42   C     C_R   0.029825 0.743279 0.462994 -0.157418
C43   C     C_R   0.027825 0.308008 0.599883 0.145250
C44   C     C_R   0.970307 0.748636 0.459650 0.149841
Cu1   Cu    Cu3+1 0.500010 0.499990 0.643150 0.948632
Cu2   Cu    Cu3+1 0.499990 0.500010 0.356850 0.948414
H1    H     H_    0.944815 0.234742 0.634590 0.186254
H2    H     H_    0.053388 0.826040 0.438870 0.186457
H3    H     H_    0.434729 0.652351 0.907571 0.131849
H4    H     H_    0.570872 0.363177 0.094865 0.127958
H5    H     H_    0.591802 0.547759 0.903978 0.132447
H6    H     H_    0.408014 0.452895 0.095584 0.171011
H7    H     H_    0.212529 0.570127 0.297501 0.159256
H8    H     H_    0.789169 0.356739 0.387333 0.172223
H9    H     H_    0.322836 0.458777 0.723074 0.186161
H10   H     H_    0.670298 0.682164 0.631086 0.196707
H11   H     H_    0.219198 0.469110 0.733394 0.161094
H12   H     H_    0.774525 0.692955 0.644715 0.166827
H13   H     H_    0.570039 0.078070 0.669717 0.167150
H14   H     H_    0.430068 0.911223 0.331090 0.165722
N1    N     N_R   0.850514 0.531177 0.524021 -0.447947
N2    N     N_R   0.147630 0.521150 0.521281 -0.450936
N3    N     N_3   0.500040 0.499970 0.858290 -0.168475
N4    N     N_3   0.499960 0.500030 0.141710 -0.174681
O1    O     O_R   0.500030 0.316850 0.620870 -0.564310
O2    O     O_R   0.499970 0.683150 0.379130 -0.586261
O3    O     O_R   0.500000 0.316860 0.379090 -0.612070
O4    O     O_R   0.500000 0.683140 0.620910 -0.556817
O5    O     O_R   0.417890 0.499960 0.620920 -0.596437
O6    O     O_R   0.582110 0.500040 0.379080 -0.562907
O7    O     O_R   0.417870 0.499970 0.379140 -0.544719
O8    O     O_R   0.582130 0.500030 0.620860 -0.596357
O9    O     O_2   0.848113 0.731805 0.433843 -0.560473
O10   O     O_2   0.150209 0.309760 0.573603 -0.554385
O11   O     O_2   0.850696 0.331101 0.619473 -0.571057
O12   O     O_2   0.148125 0.733636 0.467826 -0.560366
C45   C     C_3   0.534692 0.731926 0.103462 -0.754650
H15   H     H_    0.551606 0.784427 0.013641 0.227410
H16   H     H_    0.499218 0.787056 0.151658 0.260423
H17   H     H_    0.569267 0.715492 0.180219 0.241302
C46   C     C_3   0.464656 0.267634 0.894879 -0.807377
H18   H     H_    0.447464 0.215117 0.984236 0.195121
H19   H     H_    0.429783 0.281158 0.817627 0.258807
H20   H     H_    0.500096 0.212240 0.846769 0.251326
C47   C     C_3   0.055112 0.184963 0.637865 -0.746163
H21   H     H_    0.023203 0.115120 0.667853 0.198920
H22   H     H_    0.078830 0.144476 0.545792 0.260732
H23   H     H_    0.083823 0.198273 0.729877 0.257391
C48   C     C_3   0.942763 0.872436 0.425884 -0.753498
H24   H     H_    0.974515 0.947089 0.414381 0.199821
H25   H     H_    0.919385 0.864648 0.324340 0.263341
H26   H     H_    0.913635 0.903175 0.512744 0.252660
O13   O     O_3   0.323263 0.584654 0.263381 -0.580949
C49   C     C_3   0.320833 0.716193 0.261228 0.100030
H27   H     H_    0.339260 0.758477 0.359610 0.128028
H28   H     H_    0.276177 0.750169 0.248776 0.162131
C50   C     C_3   0.355127 0.760379 0.136892 -0.834880
H29   H     H_    0.338758 0.718425 0.036735 0.250389
H30   H     H_    0.351960 0.863448 0.131924 0.193637
H31   H     H_    0.400363 0.732907 0.150364 0.251755
O14   O     O_3   0.680327 0.308386 0.389680 -0.604159
C51   C     C_3   0.669335 0.230956 0.505364 0.032997
H32   H     H_    0.630450 0.178085 0.481365 0.146707
H33   H     H_    0.659834 0.282301 0.606948 0.135595
C52   C     C_3   0.718797 0.140021 0.527583 -0.774920
H34   H     H_    0.755247 0.189587 0.576095 0.273147
H35   H     H_    0.705489 0.065735 0.599360 0.220730
H36   H     H_    0.732649 0.096861 0.425221 0.257804
O15   O     O_3   0.603553 0.881545 0.459125 -0.590946
C53   C     C_3   0.633974 0.913037 0.337746 0.041769
H37   H     H_    0.644003 0.013044 0.339275 0.165131
H38   H     H_    0.609904 0.889782 0.241096 0.196527
C54   C     C_3   0.689542 0.838945 0.331006 -0.762238
H39   H     H_    0.680660 0.738045 0.317959 0.252470
H40   H     H_    0.715077 0.868252 0.239377 0.211779
H41   H     H_    0.714453 0.855361 0.429135 0.269990
O16   O     O_3   0.394904 0.099332 0.562116 -0.604137
C55   C     C_3   0.369294 0.152418 0.442722 0.044051
H42   H     H_    0.372560 0.091023 0.346538 0.142668
H43   H     H_    0.388974 0.243141 0.421053 0.161856
C56   C     C_3   0.306370 0.174522 0.472836 -0.722997
H44   H     H_    0.300761 0.228767 0.573319 0.265817
H45   H     H_    0.286498 0.226894 0.385687 0.211188
H46   H     H_    0.284745 0.083858 0.482114 0.247678
O17   O     O_3   0.474881 0.925918 0.767307 -0.592979
C57   C     C_3   0.417152 0.936689 0.807718 0.105057
H47   H     H_    0.401121 0.034159 0.802904 0.189099
H48   H     H_    0.414898 0.913063 0.920873 0.160935
C58   C     C_3   0.378685 0.845775 0.726026 -0.830485
H49   H     H_    0.397411 0.750667 0.723090 0.249806
H50   H     H_    0.336486 0.843179 0.778393 0.217168
H51   H     H_    0.372000 0.874410 0.615794 0.252101
O18   O     O_3   0.525469 0.024090 0.220128 -0.604031
C59   C     C_3   0.553328 0.130730 0.178218 0.063063
H52   H     H_    0.583330 0.168483 0.258722 0.154509
H53   H     H_    0.520067 0.200711 0.155762 0.197409
C60   C     C_3   0.586140 0.098946 0.042424 -0.818921
H54   H     H_    0.557441 0.055290 0.962919 0.277003
H55   H     H_    0.604545 0.183523 0.997357 0.205787
H56   H     H_    0.621607 0.032895 0.063565 0.233933

loop_
_geom_bond_atom_site_label_1
_geom_bond_atom_site_label_2
_ccdc_geom_bond_type
C29   N3    S    
O13   C49   S    
C8    C24   S    
C30   N4    S    
C18   C21   S    
C11   C13   A    
C23   O5    A    
C36   C42   A    
C33   N1    A    
C50   H31   S    
C59   C60   S    
C46   H18   S    
C24   O6    A    
Cu1   Cu2   S    
C58   H50   S    
C52   H35   S    
C57   H47   S    
C25   C45   S    
C28   C29   S    
C35   C37   A    
Cu2   O2    S    
C2    O4    A    
C32   O10   S    
C31   O9    S    
C34   N2    A    
C51   C52   S    
C15   C17   S    
C16   H14   S    
C6    O14   S    
C31   N1    A    
C55   H42   S    
C56   H46   S    
C50   H30   S    
C53   H37   S    
C28   H4    S    
C33   O11   S    
C40   C43   A    
C13   N2    S    
C1    O1    A    
C9    H9    S    
C48   H25   S    
C10   H10   S    
C18   C20   S    
C3    C13   A    
C54   H41   S    
C12   H12   S    
C45   H16   S    
C60   H54   S    
C27   C30   S    
C41   C43   A    
C49   H27   S    
C42   C44   A    
C46   H19   S    
C50   H29   S    
C53   H38   S    
C47   H22   S    
C25   C29   S    
C15   C20   S    
C52   H36   S    
C56   H44   S    
C22   O18   S    
Cu1   O5    S    
C43   C47   S    
O14   C51   S    
C23   O7    A    
C4    C6    A    
C5    C7    A    
C17   C19   S    
C59   H53   S    
C49   C50   S    
C3    C5    A    
C45   H15   S    
C14   N1    S    
Cu1   N3    S    
Cu2   N4    S    
C55   C56   S    
C51   H33   S    
C26   N3    S    
Cu2   O6    S    
C37   C38   A    
C60   H55   S    
C5    O13   S    
C53   C54   S    
Cu1   O4    S    
O16   C55   S    
C41   H1    S    
C42   H2    S    
C48   H26   S    
C49   H28   S    
C9    C11   A    
C18   O16   S    
C47   H21   S    
C59   H52   S    
C10   C12   A    
C28   N4    S    
C8    C10   A    
C12   C14   A    
C26   C30   S    
C26   C46   S    
Cu1   O1    S    
O17   C57   S    
Cu2   O7    S    
C21   O17   S    
C46   H20   S    
C57   H48   S    
C24   O8    A    
C54   H39   S    
C29   H5    S    
C47   H23   S    
C7    C9    A    
C30   H6    S    
C1    C20   S    
C16   C22   S    
C4    H8    S    
C2    C19   S    
C15   H13   S    
C20   C22   S    
C2    O2    A    
C17   O15   S    
C6    C8    A    
C39   C44   A    
C1    O3    A    
C25   C27   S    
C52   H34   S    
C26   C28   S    
C17   C22   S    
C57   C58   S    
C58   H51   S    
C36   C38   A    
C58   H49   S    
C32   N2    A    
Cu2   O3    S    
C37   C39   A    
O15   C53   S    
C38   C40   A    
C3    H7    S    
O18   C59   S    
C45   H17   S    
C16   C19   S    
C7    C23   S    
C60   H56   S    
C33   C35   A    
C31   C39   A    
C34   C36   A    
C32   C40   A    
C4    C14   A    
C51   H32   S    
C35   C41   A    
C55   H43   S    
C56   H45   S    
C15   C21   S    
C16   C18   S    
Cu1   O8    S    
C27   N3    S    
C54   H40   S    
C48   H24   S    
C11   H11   S    
C25   N4    S    
C44   C48   S    
C27   H3    S    
C34   O12   S    
C19   C21   S    
