data_mof_unit_53473.cif
_audit_creation_date              2013-03-05T16:46:36-0500
_audit_creation_method            fapswitch 2.2
_symmetry_space_group_name_H-M    P1
_symmetry_Int_Tables_number       1
_space_group_crystal_system       triclinic
_cell_length_a                    12.870281
_cell_length_b                    8.933641
_cell_length_c                    8.10858
_cell_angle_alpha                 89.999923
_cell_angle_beta                  96.894518
_cell_angle_gamma                 89.999085
_cell_volume                      925.570416706

loop_
_atom_site_label
_atom_site_type_symbol
_atom_site_description
_atom_site_fract_x
_atom_site_fract_y
_atom_site_fract_z
_atom_type_partial_charge
O1    O     O_R   0.499990 0.285340 0.636850 -0.604786
O2    O     O_R   0.500010 0.714660 0.363150 -0.624773
O3    O     O_R   0.500010 0.285340 0.363150 -0.604778
O4    O     O_R   0.499990 0.714660 0.636850 -0.624782
N1    N     N_1   0.500020 0.500000 0.073640 -0.006614
N2    N     N_1   0.499980 0.500000 0.926360 -0.006594
C1    C     C_R   0.500000 0.217999 0.500000 0.953542
C2    C     C_R   0.499999 0.782003 0.500000 0.904950
O5    O     O_R   0.346350 0.500000 0.614250 -0.628767
O6    O     O_R   0.653650 0.500000 0.385750 -0.628840
O7    O     O_R   0.346360 0.500000 0.340500 -0.564483
O8    O     O_R   0.653640 0.500000 0.659500 -0.564451
C3    C     C_R   0.297308 0.509431 0.468133 0.929059
C4    C     C_R   0.702691 0.509455 0.531861 0.929066
Zn1   Zn    Zn3+2 0.499990 0.500000 0.682780 1.033242
Zn2   Zn    Zn3+2 0.500010 0.500000 0.317220 1.033218
C5    C     C_R   0.814313 0.541912 0.550946 -0.171497
C6    C     C_R   0.185684 0.541865 0.449016 -0.171368
C7    C     C_R   0.018783 0.559375 0.278868 -0.216978
C8    C     C_R   0.981215 0.559507 0.721071 -0.216949
C9    C     C_R   0.124092 0.523842 0.293739 0.348529
C10   C     C_R   0.875908 0.523967 0.706241 0.348555
C11   C     C_R   0.138306 0.592471 0.588019 0.082728
C12   C     C_R   0.861690 0.592456 0.411886 0.082739
C13   C     C_R   0.029891 0.584461 0.578439 0.061006
C14   C     C_R   0.970105 0.584427 0.421469 0.060994
H1    H     H_    0.973313 0.547711 0.158513 0.225513
H2    H     H_    0.026691 0.547938 0.841439 0.225429
C15   C     C_1   0.500000 0.065181 0.500000 -0.166398
C16   C     C_1   0.499999 0.934797 0.500000 -0.168565
C17   C     C_3   0.799978 0.660439 0.258551 -0.752266
H3    H     H_    0.850113 0.730986 0.187516 0.234081
H4    H     H_    0.764270 0.571284 0.175181 0.295158
H5    H     H_    0.738373 0.736370 0.295342 0.231309
C18   C     C_3   0.200009 0.660525 0.741282 -0.752681
H6    H     H_    0.149878 0.731302 0.812039 0.234059
H7    H     H_    0.235587 0.571426 0.824829 0.295158
H8    H     H_    0.261707 0.736253 0.704503 0.231401
Cl1   Cl    Cl    0.828900 0.447994 0.883855 -0.632166
Cl2   Cl    Cl    0.171111 0.447784 0.116196 -0.632001

loop_
_geom_bond_atom_site_label_1
_geom_bond_atom_site_label_2
_geom_bond_distance
_ccdc_geom_bond_type
C17   H4    1.108153 S    
C15   C16   1.164808 T    
C1    C15   1.365222 S    
C6    C9    1.414203 A    
O2    Zn2   1.953525 S    
O7    Zn2   2.008939 S    
O3    C1    1.262257 A    
C5    C10   1.414256 A    
O8    Zn1   2.008939 S    
O4    C2    1.262268 A    
C2    C16   1.365006 S    
O4    Zn1   1.953524 S    
O5    Zn1   1.988730 S    
C17   H5    1.111103 S    
C13   C14   1.406039 A    
O6    Zn2   1.988730 S    
O7    C3    1.278119 A    
C4    C5    1.455504 S    
C9    Cl2   1.763387 S    
C3    C6    1.455471 S    
O1    Zn1   1.953526 S    
C10   Cl1   1.763537 S    
C18   H7    1.108014 S    
O8    C4    1.278172 A    
C11   C18   1.519138 S    
C11   C13   1.389999 A    
N1    N2    1.194170 T    
C12   C14   1.390003 A    
C12   C17   1.519358 S    
C5    C12   1.418520 A    
C8    C13   1.397755 A    
C6    C11   1.418306 A    
C18   H8    1.110885 S    
C7    H1    1.081023 S    
O6    C4    1.276567 A    
C7    C14   1.397688 A    
O5    C3    1.276600 A    
N1    Zn2   1.975102 S    
C8    H2    1.081063 S    
C7    C9    1.383130 A    
N2    Zn1   1.975104 S    
O1    C1    1.262258 A    
O2    C2    1.262268 A    
O3    Zn2   1.953525 S    
C17   H3    1.111103 S    
C8    C10   1.383133 A    
C18   H6    1.110912 S    
