data_mof_unit_24999.cif
_audit_creation_date              2012-12-10T17:14:44-0500
_audit_creation_method            fapswitch 2.2
_symmetry_space_group_name_H-M    P1
_symmetry_Int_Tables_number       1
_space_group_crystal_system       triclinic
_cell_length_a                    10.58868
_cell_length_b                    12.997512
_cell_length_c                    11.848308
_cell_angle_alpha                 99.576058
_cell_angle_beta                  91.601345
_cell_angle_gamma                 93.048097
_cell_volume                      1604.52318639

loop_
_atom_site_label
_atom_site_type_symbol
_atom_type_description
_atom_site_fract_x
_atom_site_fract_y
_atom_site_fract_z
_atom_type_partial_charge
C1    C     C_R   0.497697 0.299557 0.478801 0.804063
C2    C     C_R   0.501281 0.700418 0.521264 0.801609
C3    C     C_R   0.500311 0.139490 0.564591 -0.262370
C4    C     C_R   0.493333 0.860356 0.435778 -0.259864
C5    C     C_R   0.498843 0.031183 0.555447 0.113987
C6    C     C_R   0.492573 0.968542 0.444964 0.113769
C7    C     C_R   0.364702 0.412622 0.032731 -0.345951
C8    C     C_R   0.619977 0.599339 0.970092 -0.345176
C9    C     C_R   0.377875 0.422737 0.151812 0.028705
C10   C     C_R   0.610233 0.588623 0.850941 0.040612
C11   C     C_R   0.566009 0.530813 0.148910 0.309693
C12   C     C_R   0.436820 0.463180 0.847670 0.317320
C13   C     C_R   0.543708 0.535147 0.030357 0.008569
C14   C     C_R   0.446737 0.470218 0.969666 0.046434
C15   C     C_R   0.259767 0.500078 0.501380 0.776641
C16   C     C_R   0.740192 0.500062 0.498500 0.777653
C17   C     C_3   0.048155 0.582789 0.575007 -0.173678
C18   C     C_3   0.951619 0.417640 0.423944 -0.173697
C19   C     C_3   0.959453 0.493499 0.604300 -0.135261
C20   C     C_3   0.040413 0.506887 0.394676 -0.134024
C21   C     C_3   0.877172 0.500010 0.497080 0.031159
C22   C     C_3   0.122675 0.500381 0.502065 0.035325
C23   C     C_3   0.963647 0.589254 0.468052 -0.178332
C24   C     C_3   0.036135 0.411096 0.530823 -0.178974
C25   C     C_R   0.500514 0.813898 0.533646 -0.101136
C26   C     C_R   0.495535 0.185984 0.466602 -0.097767
C27   C     C_R   0.486632 0.015277 0.345722 0.159467
C28   C     C_R   0.504579 0.984393 0.654672 0.161512
C29   C     C_R   0.488504 0.124044 0.357728 -0.232571
C30   C     C_R   0.505981 0.875740 0.642572 -0.232702
Cu1   Cu    Cu3+1 0.509400 0.507730 0.615930 0.923597
Cu2   Cu    Cu3+1 0.490600 0.492270 0.384070 0.929922
H1    H     H_    0.923963 0.487948 0.690522 0.143046
H2    H     H_    0.075805 0.512524 0.308438 0.137276
H3    H     H_    0.090718 0.649942 0.637115 0.128656
H4    H     H_    0.908932 0.350544 0.361826 0.128406
H5    H     H_    0.931484 0.662154 0.442383 0.127553
H6    H     H_    0.068844 0.338038 0.555782 0.125111
H7    H     H_    0.488697 0.811716 0.352074 0.190449
H8    H     H_    0.505814 0.188241 0.648313 0.186319
H9    H     H_    0.510690 0.839582 0.718514 0.157444
H10   H     H_    0.484213 0.160174 0.281748 0.156790
H11   H     H_    0.671797 0.636582 0.806851 0.133806
H12   H     H_    0.311215 0.380607 0.197507 0.135417
H13   H     H_    0.288493 0.359487 0.992943 0.158557
H14   H     H_    0.688126 0.658467 0.014074 0.163378
N1    N     N_R   0.523540 0.519360 0.790140 -0.195488
N2    N     N_R   0.476460 0.480640 0.209860 -0.184992
O1    O     O_R   0.506670 0.354460 0.582000 -0.608810
O2    O     O_R   0.493330 0.645540 0.418000 -0.577000
O3    O     O_R   0.490800 0.341410 0.386200 -0.586449
O4    O     O_R   0.509200 0.658590 0.613800 -0.587238
O5    O     O_R   0.324790 0.506500 0.597880 -0.590503
O6    O     O_R   0.675210 0.493500 0.402120 -0.591224
O7    O     O_R   0.308910 0.493440 0.402080 -0.592240
O8    O     O_R   0.691090 0.506560 0.597920 -0.586692
N3    N     N_3   0.479409 0.952365 0.233409 -0.614281
H15   H     H_    0.488518 0.999338 0.170166 0.214031
H16   H     H_    0.388737 0.915428 0.221428 0.210406
N4    N     N_3   0.509379 0.047171 0.767036 -0.609655
H17   H     H_    0.525149 0.001202 0.830017 0.214736
H18   H     H_    0.420104 0.076651 0.780832 0.203333
C31   C     C_3   0.327850 0.393480 0.785158 -0.360383
C32   C     C_3   0.200489 0.443713 0.804406 -0.856639
H19   H     H_    0.200481 0.518694 0.771540 0.273103
H20   H     H_    0.123598 0.389660 0.759636 0.232609
H21   H     H_    0.178231 0.460775 0.896104 0.240301
H22   H     H_    0.338929 0.371438 0.693672 0.249493
H23   H     H_    0.324390 0.316055 0.813086 0.150438
C33   C     C_3   0.701737 0.561155 0.194254 -0.339122
C34   C     C_3   0.720284 0.671570 0.263532 -0.786126
H24   H     H_    0.656001 0.725257 0.230230 0.244112
H25   H     H_    0.705285 0.672340 0.355390 0.263513
H26   H     H_    0.819230 0.702197 0.256668 0.210318
H27   H     H_    0.744361 0.499398 0.232572 0.209748
H28   H     H_    0.767256 0.557921 0.122536 0.149960

loop_
_geom_bond_atom_site_label_1
_geom_bond_atom_site_label_2
_ccdc_geom_bond_type
C16   C21   S    
C29   H10   S    
C27   C29   A    
C18   C21   S    
Cu1   O4    S    
C4    C25   A    
C11   C33   S    
C8    C13   A    
C18   C24   S    
C7    H13   S    
C19   C21   S    
C5    C6    A    
N3    H16   S    
N4    H18   S    
C2    O2    A    
C15   C22   S    
Cu1   Cu2   S    
C24   H6    S    
C20   C23   S    
C30   H9    S    
C33   C34   S    
Cu1   O8    S    
C7    C14   A    
Cu2   O7    S    
C20   H2    S    
Cu1   N1    S    
C13   C14   A    
Cu2   N2    S    
C11   N2    A    
Cu1   O1    S    
C12   N1    A    
Cu2   O6    S    
C8    H14   S    
C28   N4    S    
C32   H21   S    
C31   H23   S    
C4    C6    A    
C27   N3    S    
C34   H25   S    
C12   C31   S    
C23   H5    S    
N4    H17   S    
C15   O7    A    
C16   O8    A    
Cu2   O3    S    
C5    C28   A    
C6    C27   A    
C4    H7    S    
C17   C23   S    
Cu1   O5    S    
C1    O3    A    
Cu2   O2    S    
C2    O4    A    
C26   C29   A    
C12   C14   A    
C3    H8    S    
C21   C23   S    
C33   H28   S    
C1    C26   S    
C22   C24   S    
C20   C22   S    
C15   O5    A    
C10   N1    A    
C25   C30   A    
C7    C9    A    
C31   H22   S    
C9    H12   S    
C10   H11   S    
C3    C26   A    
C19   H1    S    
C3    C5    A    
C34   H26   S    
C17   C22   S    
C32   H19   S    
C28   C30   A    
C19   C24   S    
C34   H24   S    
C11   C13   A    
N3    H15   S    
C1    O1    A    
C17   C19   S    
C2    C25   S    
C18   C20   S    
C16   O6    A    
C31   C32   S    
C9    N2    A    
C8    C10   A    
C33   H27   S    
C17   H3    S    
C18   H4    S    
C32   H20   S    
