data_mof_unit_21248.cif
_audit_creation_date              2012-12-10T18:58:47-0500
_audit_creation_method            fapswitch 2.2
_symmetry_space_group_name_H-M    P1
_symmetry_Int_Tables_number       1
_space_group_crystal_system       triclinic
_cell_length_a                    12.98137
_cell_length_b                    10.840841
_cell_length_c                    9.555662
_cell_angle_alpha                 89.75271
_cell_angle_beta                  95.854268
_cell_angle_gamma                 90.462592
_cell_volume                      1337.69308275

loop_
_atom_site_label
_atom_site_type_symbol
_atom_type_description
_atom_site_fract_x
_atom_site_fract_y
_atom_site_fract_z
_atom_type_partial_charge
C1    C     C_R   0.500761 0.262490 0.500307 0.847799
C2    C     C_R   0.027794 0.509447 0.566445 0.179019
C3    C     C_R   0.972661 0.470847 0.438762 0.155891
C4    C     C_R   0.865175 0.463080 0.428522 -0.255862
C5    C     C_R   0.867288 0.533470 0.669749 -0.195945
C6    C     C_R   0.974784 0.538953 0.681960 -0.214779
C7    C     C_R   0.498235 0.062507 0.624838 0.112994
C8    C     C_R   0.506976 0.129412 0.501351 -0.041836
C9    C     C_R   0.526275 0.065320 0.379233 -0.222040
C10   C     C_R   0.525548 0.936712 0.378804 -0.217440
C11   C     C_R   0.507395 0.870827 0.501007 -0.073457
C12   C     C_R   0.300616 0.498237 0.474061 0.832697
C13   C     C_R   0.500691 0.935768 0.625424 0.088899
C14   C     C_3   0.424672 0.925165 0.732460 -0.518250
C15   C     C_3   0.421891 0.065723 0.733079 -0.202661
C16   C     C_R   0.528043 0.603596 0.076084 0.175911
C17   C     C_R   0.461103 0.402872 0.069467 -0.074705
C18   C     C_R   0.461118 0.402915 0.920740 -0.066038
C19   C     C_R   0.526528 0.603937 0.928987 0.175619
C20   C     C_3   0.625069 0.674745 0.931642 -0.541450
C21   C     C_3   0.628281 0.674619 0.091498 0.309055
C22   C     C_R   0.500547 0.737598 0.499888 0.793335
C23   C     C_R   0.699393 0.498803 0.526218 0.798955
C24   C     C_R   0.812137 0.497663 0.542265 -0.049610
C25   C     C_R   0.187982 0.491495 0.459940 -0.033636
C26   C     C_R   0.025766 0.442848 0.322715 -0.226795
C27   C     C_R   0.133092 0.453970 0.332968 -0.170661
C28   C     C_R   0.135055 0.518805 0.576345 -0.260132
Cu1   Cu    Cu3+1 0.499990 0.499980 0.640670 0.954926
Cu2   Cu    Cu3+1 0.500010 0.500020 0.359330 0.974502
H1    H     H_    0.822785 0.432193 0.331164 0.187507
H2    H     H_    0.459865 0.886037 0.833634 0.177614
H3    H     H_    0.456408 0.105724 0.834203 0.110367
H4    H     H_    0.430862 0.323355 0.120822 0.135214
H5    H     H_    0.430542 0.323870 0.861601 0.130492
H6    H     H_    0.687672 0.620476 0.890824 0.226136
H7    H     H_    0.614069 0.768146 0.884743 0.151658
H8    H     H_    0.619378 0.767397 0.137906 0.051940
H9    H     H_    0.827459 0.559491 0.759089 0.152297
H10   H     H_    0.984354 0.413347 0.224166 0.141192
H11   H     H_    0.016239 0.568143 0.780616 0.134035
H12   H     H_    0.173167 0.431542 0.242469 0.153729
H13   H     H_    0.177171 0.548330 0.674524 0.148062
H14   H     H_    0.537672 0.113906 0.282658 0.156251
H15   H     H_    0.535052 0.889638 0.281692 0.146367
H16   H     H_    0.351249 0.879200 0.689501 0.198037
N1    N     N_R   0.500660 0.500930 0.148010 -0.166002
N2    N     N_R   0.500660 0.500890 0.852110 -0.168524
O1    O     O_R   0.500000 0.319640 0.618810 -0.585614
O2    O     O_R   0.500010 0.319680 0.381230 -0.600005
O3    O     O_R   0.348990 0.499960 0.599490 -0.580191
O4    O     O_R   0.349000 0.500000 0.361910 -0.591899
O5    O     O_R   0.499990 0.680320 0.618770 -0.578211
O6    O     O_R   0.500000 0.680360 0.381190 -0.594886
O7    O     O_R   0.651000 0.500000 0.638090 -0.592728
O8    O     O_R   0.651010 0.500040 0.400510 -0.530141
C29   C     C_2   0.315259 0.114878 0.686256 0.390808
H17   H     H_    0.256494 0.111029 0.759179 0.059907
O9    O     O_2   0.293269 0.158148 0.568922 -0.550593
O10   O     O_3   0.711664 0.604442 0.154667 -0.530319
C30   C     C_3   0.799618 0.681912 0.178473 -0.320622
H18   H     H_    0.792532 0.742225 0.270763 0.168842
H19   H     H_    0.812882 0.738847 0.084521 0.149560
H20   H     H_    0.869204 0.624100 0.201512 0.185416

loop_
_geom_bond_atom_site_label_1
_geom_bond_atom_site_label_2
_ccdc_geom_bond_type
C30   H20   S    
C18   N2    A    
C23   C24   S    
C23   O7    A    
C16   C21   S    
C25   C27   A    
C1    C8    S    
Cu2   O6    S    
C1    O2    A    
C28   H13   S    
C19   C20   S    
C12   C25   S    
Cu2   O8    S    
C10   H15   S    
C7    C15   S    
C17   C18   A    
C26   C27   A    
C23   O8    A    
C22   O6    A    
Cu1   O1    S    
C13   C14   S    
C25   C28   A    
C20   H7    S    
C15   C29   S    
C27   H12   S    
C26   H10   S    
C29   H17   S    
Cu1   Cu2   S    
C5    C24   A    
Cu1   O5    S    
C16   C19   A    
C5    C6    A    
C16   N1    A    
C12   O4    A    
Cu1   O3    S    
C2    C3    A    
C22   O5    A    
C10   C11   A    
C5    H9    S    
Cu2   O2    S    
C30   H18   S    
C4    C24   A    
C29   O9    D    
C11   C13   A    
C7    C8    A    
C17   H4    S    
Cu1   N2    S    
C3    C4    A    
C4    H1    S    
C17   N1    A    
Cu2   N1    S    
C7    C13   A    
C12   O3    A    
C20   C21   S    
C18   H5    S    
C21   O10   S    
C14   H16   S    
C9    C10   A    
C30   H19   S    
Cu2   O4    S    
C14   C15   S    
C8    C9    A    
C9    H14   S    
C2    C28   A    
C11   C22   S    
Cu1   O7    S    
C19   N2    A    
C1    O1    A    
C15   H3    S    
C3    C26   A    
C21   H8    S    
C2    C6    A    
C14   H2    S    
O10   C30   S    
C6    H11   S    
C20   H6    S    
