data_mof_unit_52805.cif
_audit_creation_date              2013-03-05T16:02:12-0500
_audit_creation_method            fapswitch 2.2
_symmetry_space_group_name_H-M    P1
_symmetry_Int_Tables_number       1
_space_group_crystal_system       triclinic
_cell_length_a                    14.161387
_cell_length_b                    13.554458
_cell_length_c                    14.921282
_cell_angle_alpha                 88.875147
_cell_angle_beta                  92.711629
_cell_angle_gamma                 81.434586
_cell_volume                      2827.99045849

loop_
_atom_site_label
_atom_site_type_symbol
_atom_site_description
_atom_site_fract_x
_atom_site_fract_y
_atom_site_fract_z
_atom_type_partial_charge
O1    O     O_R   0.580280 0.500020 0.367860 -0.607256
O2    O     O_R   0.419720 0.499980 0.632140 -0.611690
O3    O     O_R   0.419730 0.500030 0.367840 -0.641152
O4    O     O_R   0.580270 0.499970 0.632160 -0.639429
C1    C     C_R   0.498345 0.498337 0.327363 0.874937
C2    C     C_R   0.501341 0.503301 0.672558 0.877790
O5    O     O_R   0.591830 0.359650 0.500030 -0.638126
O6    O     O_R   0.408170 0.640350 0.499970 -0.629668
O7    O     O_R   0.431280 0.359660 0.500010 -0.603954
O8    O     O_R   0.568720 0.640340 0.499990 -0.602559
C3    C     C_R   0.518206 0.313951 0.500522 0.895159
C4    C     C_R   0.481754 0.685962 0.498946 0.889155
Zn1   Zn    Zn3+2 0.607200 0.499990 0.500020 0.927703
Zn2   Zn    Zn3+2 0.392800 0.500010 0.499980 0.933117
C5    C     C_1   0.465924 0.790411 0.491868 -0.217521
C6    C     C_1   0.532735 0.209863 0.492833 -0.209979
C7    C     C_2   0.453765 0.983951 0.479239 0.101803
C8    C     C_2   0.538078 0.018721 0.472758 0.090021
C9    C     C_1   0.539647 0.122291 0.483713 -0.042070
C10   C     C_1   0.456419 0.878776 0.485221 -0.019747
C11   C     C_R   0.538059 0.420374 0.814686 -0.251622
C12   C     C_R   0.459975 0.580579 0.185129 -0.255224
C13   C     C_R   0.503968 0.508443 0.767759 -0.093189
C14   C     C_R   0.495243 0.492939 0.232192 -0.092634
C15   C     C_R   0.467797 0.596636 0.810553 0.071655
C16   C     C_R   0.533770 0.405332 0.189763 0.061531
C17   C     C_R   0.468359 0.593983 0.905117 0.056537
C18   C     C_R   0.535217 0.408311 0.095320 0.058208
C19   C     C_R   0.501969 0.502879 0.953174 0.002473
C20   C     C_R   0.501013 0.499236 0.047158 0.005023
C21   C     C_R   0.535797 0.415216 0.907245 0.006401
C22   C     C_R   0.465474 0.586476 0.092944 0.008805
C23   C     C_R   0.436138 0.679965 0.952739 -0.292896
C24   C     C_R   0.569056 0.322794 0.047844 -0.294298
C25   C     C_R   0.435076 0.677448 0.045648 0.312623
C26   C     C_R   0.567820 0.324673 0.954795 0.313561
H1    H     H_    0.564738 0.355506 0.777153 0.183344
H2    H     H_    0.430173 0.644764 0.222122 0.183047
H3    H     H_    0.413454 0.751417 0.919172 0.200507
H4    H     H_    0.594816 0.252134 0.081610 0.195483
C27   C     C_R   0.811208 0.436796 0.559374 0.178591
C28   C     C_R   0.187577 0.560520 0.439174 0.171962
N1    N     N_R   0.750030 0.500040 0.500070 -0.114412
N2    N     N_R   0.249970 0.499960 0.499930 -0.111126
C29   C     C_R   0.786360 0.566318 0.446514 -0.099718
C30   C     C_R   0.213581 0.440093 0.559849 -0.081618
C31   C     C_R   0.885555 0.570767 0.448932 0.015480
C32   C     C_R   0.114004 0.437864 0.560634 0.013619
C33   C     C_R   0.949256 0.503550 0.504705 0.070224
C34   C     C_R   0.049973 0.504829 0.505119 0.069438
C35   C     C_R   0.912639 0.434822 0.559661 0.007514
C36   C     C_R   0.086607 0.571114 0.447883 -0.003124
C37   C     C_R   0.922300 0.641860 0.397261 -0.204464
C38   C     C_R   0.077241 0.369412 0.615153 -0.200893
C39   C     C_R   0.020939 0.642995 0.397591 -0.203679
C40   C     C_R   0.978753 0.366892 0.614011 -0.212008
H5    H     H_    0.737673 0.617147 0.402873 0.150969
H6    H     H_    0.262487 0.391172 0.604873 0.154180
H7    H     H_    0.874763 0.696643 0.356186 0.148648
H8    H     H_    0.124831 0.316543 0.658037 0.148784
H9    H     H_    0.044956 0.701150 0.358027 0.160491
H10   H     H_    0.956112 0.310781 0.656905 0.165308
C41   C     C_3   0.632699 0.952734 0.459873 -0.402261
C42   C     C_3   0.681458 0.914231 0.550448 -0.336354
C43   C     C_3   0.774241 0.843988 0.537577 -0.851936
H11   H     H_    0.759193 0.778019 0.499517 0.263466
H12   H     H_    0.824710 0.883090 0.500610 0.259174
H13   H     H_    0.808336 0.817834 0.604079 0.255746
H14   H     H_    0.697632 0.978340 0.590781 0.232555
H15   H     H_    0.633133 0.873292 0.588450 0.232293
H16   H     H_    0.621835 0.889034 0.416684 0.215566
H17   H     H_    0.680628 0.996187 0.423806 0.202578
C44   C     C_3   0.360599 0.052438 0.494890 -0.410112
C45   C     C_3   0.270601 0.002794 0.479313 -0.345682
C46   C     C_3   0.179990 0.076988 0.490854 -0.858539
H18   H     H_    0.179863 0.106573 0.559770 0.261731
H19   H     H_    0.175151 0.140067 0.441356 0.266089
H20   H     H_    0.116292 0.039028 0.479859 0.250502
H21   H     H_    0.268474 0.973501 0.410272 0.235369
H22   H     H_    0.271956 0.939571 0.528211 0.224387
H23   H     H_    0.363627 0.078700 0.564960 0.210556
H24   H     H_    0.354109 0.118630 0.448505 0.216390
C47   C     C_3   0.429140 0.691880 0.755828 -0.438710
C48   C     C_3   0.503595 0.763443 0.753080 -0.365009
C49   C     C_3   0.456593 0.869671 0.727514 -0.827150
H25   H     H_    0.410871 0.870577 0.664976 0.257362
H26   H     H_    0.411589 0.901001 0.782171 0.276153
H27   H     H_    0.512471 0.917573 0.716947 0.259430
H28   H     H_    0.542690 0.764690 0.819312 0.243912
H29   H     H_    0.556861 0.737190 0.703053 0.222679
H30   H     H_    0.407830 0.676392 0.685749 0.208173
H31   H     H_    0.361271 0.728002 0.783075 0.212970
C50   C     C_3   0.571594 0.310609 0.245527 -0.420512
C51   C     C_3   0.681261 0.295021 0.255904 -0.309552
C52   C     C_3   0.719441 0.201082 0.312161 -0.862106
H32   H     H_    0.694428 0.208430 0.381407 0.269067
H33   H     H_    0.695195 0.134577 0.281448 0.265872
H34   H     H_    0.798818 0.190175 0.315828 0.250280
H35   H     H_    0.712686 0.288496 0.189119 0.227396
H36   H     H_    0.705281 0.360319 0.289099 0.243427
H37   H     H_    0.542632 0.313569 0.313241 0.196283
H38   H     H_    0.545297 0.244698 0.215905 0.203679
N3    N     N_R   0.405196 0.768830 0.090669 0.193538
O9    O     O_R   0.330864 0.829904 0.059112 -0.395409
O10   O     O_R   0.461598 0.799618 0.151963 -0.404415
N4    N     N_R   0.597166 0.233041 0.910021 0.190724
O11   O     O_R   0.672820 0.173017 0.940250 -0.396978
O12   O     O_R   0.539104 0.200675 0.851183 -0.405524
C53   C     C_3   0.772978 0.369529 0.627053 -0.387839
C54   C     C_3   0.785804 0.404266 0.724202 -0.409851
C55   C     C_3   0.786194 0.318283 0.791898 -0.795323
H39   H     H_    0.724155 0.278777 0.777904 0.281910
H40   H     H_    0.852848 0.264127 0.788103 0.257519
H41   H     H_    0.782667 0.347467 0.860875 0.260556
H42   H     H_    0.853306 0.435667 0.735388 0.233112
H43   H     H_    0.726860 0.464768 0.738054 0.250048
H44   H     H_    0.697741 0.364839 0.614829 0.258767
H45   H     H_    0.808368 0.291517 0.619451 0.175879
C56   C     C_3   0.220508 0.597786 0.350407 -0.372718
C57   C     C_3   0.258286 0.698464 0.355164 -0.335777
C58   C     C_3   0.224721 0.766451 0.273372 -0.842677
H46   H     H_    0.245777 0.727941 0.210730 0.285728
H47   H     H_    0.145916 0.788126 0.271020 0.250494
H48   H     H_    0.258373 0.835301 0.277357 0.274155
H49   H     H_    0.235573 0.738382 0.416763 0.224307
H50   H     H_    0.337163 0.685068 0.355666 0.248797
H51   H     H_    0.269322 0.539343 0.319584 0.216323
H52   H     H_    0.161329 0.603439 0.298181 0.179456

loop_
_geom_bond_atom_site_label_1
_geom_bond_atom_site_label_2
_geom_bond_distance
_ccdc_geom_bond_type
C50   C51   1.535821 S    
C17   C19   1.422497 A    
C44   C45   1.537765 S    
C52   H32   1.109568 S    
C48   H29   1.112015 S    
C46   H18   1.111029 S    
C37   H7    1.083689 S    
C52   H34   1.110309 S    
C53   H44   1.083869 S    
C31   C33   1.410962 A    
C38   H8    1.083748 S    
C49   H25   1.109139 S    
C17   C23   1.405771 A    
O5    C3    1.289848 A    
C47   H31   1.110576 S    
C11   C21   1.383620 A    
C29   H5    1.082812 S    
C23   H3    1.079395 S    
C12   C22   1.382806 A    
O1    C1    1.286105 A    
C14   C16   1.406330 A    
C35   C40   1.422707 A    
C25   N3    1.438046 S    
C57   H50   1.104302 S    
C28   C56   1.526220 S    
N4    O11   1.301318 A    
C12   H2    1.082235 S    
C7    C10   1.421414 S    
C8    C9    1.419826 S    
C29   C31   1.413780 A    
O4    Zn1   2.025882 S    
C54   C55   1.526427 S    
C58   H48   1.110638 S    
C55   H39   1.108765 S    
C43   H12   1.111134 S    
C34   C36   1.398716 A    
C42   H15   1.111437 S    
C24   C26   1.387378 A    
C36   C39   1.418653 A    
C31   C37   1.397129 A    
C56   H52   1.110040 S    
C16   C50   1.529285 S    
C32   C34   1.409438 A    
C18   C24   1.404972 A    
C27   C53   1.518831 S    
C30   H6    1.082766 S    
C7    C44   1.526364 S    
C27   N1    1.394613 A    
O2    C2    1.285452 A    
C28   N2    1.398320 A    
O2    Zn2   1.990700 S    
C44   H23   1.112035 S    
N2    C30   1.364943 A    
C53   H45   1.111029 S    
C30   C32   1.415551 A    
C37   C39   1.399015 A    
C5    C10   1.186841 T    
C38   C40   1.399535 A    
C45   C46   1.526716 S    
C49   H26   1.110770 S    
C26   N4    1.437623 S    
C22   C25   1.408121 A    
C48   C49   1.526661 S    
N3    O10   1.301434 A    
C50   H37   1.107519 S    
C57   H49   1.112058 S    
C33   C35   1.401163 A    
C32   C38   1.395710 A    
O7    Zn2   1.899237 S    
C19   C20   1.403033 A    
C46   H19   1.110929 S    
C3    C6    1.402903 S    
C47   C48   1.536721 S    
C4    C5    1.401118 S    
C51   H36   1.111468 S    
O6    C4    1.288947 A    
C43   H13   1.110559 S    
C7    C8    1.354196 D    
C55   H40   1.110542 S    
C42   H14   1.111991 S    
O7    C3    1.292672 A    
C58   H46   1.110950 S    
O3    Zn2   2.025882 S    
O8    C4    1.292404 A    
O4    C2    1.290162 A    
C41   H16   1.111975 S    
C33   C34   1.428692 A    
C45   H21   1.111979 S    
C11   C13   1.382701 A    
C12   C14   1.382410 A    
O1    Zn1   1.990702 S    
C48   H28   1.111373 S    
C54   H43   1.109544 S    
C44   H24   1.112419 S    
Zn1   N1    2.022736 S    
C57   C58   1.528103 S    
Zn2   N2    2.022738 S    
C49   H27   1.110593 S    
O6    Zn2   1.946584 S    
O3    C1    1.288907 A    
O8    Zn1   1.899237 S    
C50   H38   1.109597 S    
C56   C57   1.539857 S    
C52   H33   1.110867 S    
C15   C17   1.410379 A    
C47   H30   1.107345 S    
C16   C18   1.410208 A    
C42   C43   1.525844 S    
C18   C20   1.422818 A    
N1    C29   1.363345 A    
C53   C54   1.543813 S    
C20   C22   1.416097 A    
C1    C14   1.422336 S    
N4    O12   1.301376 A    
C51   H35   1.110234 S    
C6    C9    1.187448 T    
C2    C13   1.422602 S    
C39   H9    1.079876 S    
C23   C25   1.386912 A    
C55   H41   1.110513 S    
C40   H10   1.078823 S    
C13   C15   1.406284 A    
C51   C52   1.525866 S    
C8    C41   1.518739 S    
C46   H20   1.110381 S    
C58   H47   1.109593 S    
C41   C42   1.533735 S    
O5    Zn1   1.946585 S    
C11   H1    1.081613 S    
C41   H17   1.112853 S    
C19   C21   1.415812 A    
C43   H11   1.110288 S    
N3    O9    1.301273 A    
C15   C47   1.529348 S    
C21   C26   1.408839 A    
C24   H4    1.078801 S    
C45   H22   1.111906 S    
C54   H42   1.109818 S    
C27   C35   1.432468 A    
C28   C36   1.427999 A    
C56   H51   1.094612 S    
