data_mof_unit_64382.cif
_audit_creation_date              2012-12-10T17:39:07-0500
_audit_creation_method            fapswitch 2.2
_symmetry_space_group_name_H-M    P1
_symmetry_Int_Tables_number       1
_space_group_crystal_system       triclinic
_cell_length_a                    25.531911
_cell_length_b                    34.42187
_cell_length_c                    21.387453
_cell_angle_alpha                 89.999945
_cell_angle_beta                  126.442492
_cell_angle_gamma                 89.999776
_cell_volume                      15120.9050299

loop_
_atom_site_label
_atom_site_type_symbol
_atom_type_description
_atom_site_fract_x
_atom_site_fract_y
_atom_site_fract_z
_atom_type_partial_charge
Br1   Br    Br    0.526751 0.761175 0.280140 -0.380148
Br2   Br    Br    0.447040 0.284896 0.574973 -0.353398
Br3   Br    Br    0.447120 0.715303 0.574968 -0.353418
Br4   Br    Br    0.553072 0.285176 0.425010 -0.353326
Br5   Br    Br    0.052952 0.215122 0.425030 -0.353675
Br6   Br    Br    0.946950 0.785131 0.574993 -0.353582
Br7   Br    Br    0.946940 0.214844 0.574988 -0.353605
Br8   Br    Br    0.052848 0.784635 0.425045 -0.353697
Br9   Br    Br    0.473233 0.238698 0.719893 -0.380150
Br10  Br    Br    0.473215 0.761405 0.719917 -0.380141
Br11  Br    Br    0.526750 0.238841 0.280145 -0.380160
Br12  Br    Br    0.026763 0.261307 0.280102 -0.380124
Br13  Br    Br    0.973249 0.738809 0.719861 -0.380129
Br14  Br    Br    0.973255 0.261164 0.719863 -0.380132
Br15  Br    Br    0.026766 0.738588 0.280057 -0.380112
Br16  Br    Br    0.553064 0.714857 0.425018 -0.353309
C1    C     C_R   0.858505 0.750009 0.000125 0.843400
C2    C     C_3   0.777528 0.285128 0.020666 0.201943
C3    C     C_R   0.637225 0.263984 0.464493 0.315505
C4    C     C_R   0.137177 0.236189 0.464496 0.315472
C5    C     C_R   0.862787 0.763954 0.535507 0.315483
C6    C     C_R   0.862781 0.236027 0.535507 0.315474
C7    C     C_R   0.137135 0.763675 0.464498 0.315473
C8    C     C_R   0.680001 0.737234 0.545231 -0.213166
C9    C     C_R   0.320033 0.262630 0.454769 -0.213208
C10   C     C_R   0.320056 0.737479 0.454770 -0.213222
C11   C     C_R   0.680005 0.262791 0.545229 -0.213180
C12   C     C_R   0.179963 0.237381 0.545232 -0.213212
C13   C     C_3   0.777530 0.714873 0.020670 0.201961
C14   C     C_R   0.820006 0.762759 0.454771 -0.213179
C15   C     C_R   0.819999 0.237218 0.454771 -0.213185
C16   C     C_R   0.179927 0.762487 0.545234 -0.213229
C17   C     C_R   0.979096 0.081466 0.037947 -0.178007
C18   C     C_R   0.020902 0.918534 0.962051 -0.178001
C19   C     C_R   0.020902 0.081466 0.962051 -0.178000
C20   C     C_R   0.979095 0.918534 0.037945 -0.178014
C21   C     C_R   0.480549 0.581458 0.039487 -0.178127
C22   C     C_R   0.519453 0.418542 0.960515 -0.178132
C23   C     C_R   0.519453 0.581458 0.960516 -0.178138
C24   C     C_3   0.222481 0.285131 0.979352 0.201929
C25   C     C_R   0.480549 0.418542 0.039487 -0.178125
C26   C     C_R   0.999999 0.101664 1.000000 -0.066009
C27   C     C_R   0.999999 0.898336 0.999999 -0.066006
C28   C     C_R   0.500001 0.601659 0.000001 -0.066384
C29   C     C_R   0.500000 0.398341 0.000000 -0.066387
C30   C     C_R   0.021576 0.040820 0.961496 0.028692
C31   C     C_R   0.978419 0.959180 0.038499 0.028704
C32   C     C_R   0.978420 0.040820 0.038500 0.028696
C33   C     C_R   0.021576 0.959180 0.961495 0.028693
C34   C     C_R   0.520066 0.540816 0.959890 0.028569
C35   C     C_3   0.722472 0.214870 0.979333 0.201974
C36   C     C_R   0.479937 0.459184 0.040114 0.028558
C37   C     C_R   0.479938 0.540816 0.040114 0.028559
C38   C     C_R   0.520066 0.459184 0.959889 0.028562
C39   C     C_R   0.999998 0.020370 0.999998 0.007715
C40   C     C_R   0.999998 0.979630 0.999997 0.007715
C41   C     C_R   0.500002 0.520368 0.000002 0.007902
C42   C     C_R   0.500002 0.479632 0.000002 0.007902
C43   C     C_R   0.043387 0.020451 0.923459 0.118244
C44   C     C_R   0.956607 0.979549 0.076534 0.118253
C45   C     C_R   0.956607 0.020452 0.076535 0.118260
C46   C     C_3   0.277525 0.785131 0.020661 0.201956
C47   C     C_R   0.043387 0.979549 0.923459 0.118243
C48   C     C_R   0.540332 0.520451 0.920198 0.118062
C49   C     C_R   0.459673 0.479549 0.079808 0.118053
C50   C     C_R   0.459673 0.520451 0.079808 0.118051
C51   C     C_R   0.540332 0.479549 0.920197 0.118068
C52   C     C_R   1.000000 0.855830 1.000000 0.805427
C53   C     C_R   1.000000 0.144170 0.000000 0.805428
C54   C     C_R   0.500000 0.355832 1.000000 0.805760
C55   C     C_R   0.500000 0.644168 0.000000 0.805759
C56   C     C_R   0.000000 0.644304 0.000000 0.903376
C57   C     C_3   0.277519 0.214867 0.020649 0.201960
C58   C     C_R   1.000000 0.355696 0.000000 0.903374
C59   C     C_R   0.500000 0.144304 0.000000 0.903342
C60   C     C_R   0.500000 0.855696 1.000000 0.903345
C61   C     C_R   0.011800 0.417966 0.064555 0.068021
C62   C     C_R   0.988200 0.582034 0.935446 0.068020
C63   C     C_R   0.988199 0.417966 0.935445 0.068021
C64   C     C_R   0.011800 0.582034 0.064555 0.068020
C65   C     C_R   0.511788 0.917966 0.064548 0.068058
C66   C     C_R   0.488212 0.082034 0.935451 0.068059
C67   C     C_R   0.488212 0.917966 0.935451 0.068058
C68   C     C_3   0.722470 0.785130 0.979330 0.201989
C69   C     C_R   0.511788 0.082034 0.064548 0.068058
C70   C     C_R   1.000000 0.397962 0.000000 -0.129247
C71   C     C_R   0.000000 0.602038 0.000000 -0.129259
C72   C     C_R   0.500000 0.897962 1.000000 -0.129216
C73   C     C_R   0.500000 0.102038 0.000000 -0.129205
C74   C     C_R   0.987979 0.458871 0.935212 0.066828
C75   C     C_R   0.012020 0.541129 0.064789 0.066808
C76   C     C_R   0.012020 0.458871 0.064788 0.066816
C77   C     C_R   0.987979 0.541129 0.935212 0.066826
C78   C     C_R   0.487992 0.958871 0.935218 0.066852
C79   C     C_3   0.732023 0.241224 0.928407 -0.222543
C80   C     C_R   0.512008 0.041129 0.064782 0.066873
C81   C     C_R   0.512008 0.958871 0.064782 0.066872
C82   C     C_R   0.487992 0.041129 0.935218 0.066860
C83   C     C_R   1.000000 0.479393 0.000000 0.031691
C84   C     C_R   1.000000 0.520608 0.000000 0.031692
C85   C     C_R   0.500000 0.979392 1.000000 0.031739
C86   C     C_R   0.500000 0.020607 1.000000 0.031738
C87   C     C_R   0.976108 0.479843 0.871726 -0.148545
C88   C     C_R   0.023891 0.520157 0.128275 -0.148546
C89   C     C_R   0.023891 0.479843 0.128275 -0.148543
C90   C     C_3   0.267976 0.758780 0.071592 -0.222563
C91   C     C_R   0.976108 0.520157 0.871726 -0.148547
C92   C     C_R   0.476134 0.979843 0.871738 -0.148456
C93   C     C_R   0.523866 0.020157 0.128261 -0.148456
C94   C     C_R   0.523866 0.979843 0.128261 -0.148457
C95   C     C_R   0.476134 0.020157 0.871738 -0.148453
C96   C     C_3   0.267974 0.241214 0.071589 -0.222574
C97   C     C_R   0.141495 0.249991 0.999874 0.843347
C98   C     C_3   0.732023 0.758775 0.928406 -0.222533
C99   C     C_3   0.232024 0.741223 0.928409 -0.222511
C100  C     C_3   0.767977 0.258774 0.071593 -0.222491
C101  C     C_3   0.767977 0.741227 0.071594 -0.222478
C102  C     C_3   0.232026 0.258783 0.928412 -0.222522
C103  C     C_3   0.801381 0.249900 0.000398 -0.060633
C104  C     C_3   0.198619 0.750100 0.999602 -0.060620
C105  C     C_3   0.198619 0.249900 0.999601 -0.060620
C106  C     C_3   0.801381 0.750100 0.000398 -0.060640
C107  C     C_3   0.301381 0.749902 0.000399 -0.060671
C108  C     C_R   0.141495 0.750009 0.999875 0.843345
C109  C     C_3   0.698619 0.250098 0.999601 -0.060685
C110  C     C_3   0.698619 0.749902 0.999601 -0.060693
C111  C     C_3   0.301381 0.250098 0.000399 -0.060671
C112  C     C_3   0.792571 0.223296 0.051240 -0.165418
C113  C     C_3   0.207427 0.776702 0.948755 -0.165377
C114  C     C_3   0.207422 0.223303 0.948746 -0.165370
C115  C     C_3   0.792569 0.776705 0.051237 -0.165443
C116  C     C_3   0.292573 0.723301 0.051246 -0.165420
C117  C     C_3   0.707429 0.276702 0.948759 -0.165462
C118  C     C_3   0.707431 0.723297 0.948762 -0.165489
C119  C     C_R   0.858505 0.249991 0.000125 0.843385
C120  C     C_3   0.292577 0.276695 0.051255 -0.165414
C121  C     C_R   0.712745 0.754918 0.335955 -0.249207
C122  C     C_R   0.287245 0.245149 0.664047 -0.249251
C123  C     C_R   0.287231 0.754790 0.664050 -0.249279
C124  C     C_R   0.712742 0.245069 0.335955 -0.249208
C125  C     C_R   0.212753 0.254856 0.335954 -0.249243
C126  C     C_R   0.787259 0.745081 0.664045 -0.249205
C127  C     C_R   0.787261 0.254934 0.664044 -0.249201
C128  C     C_R   0.212760 0.745194 0.335954 -0.249266
C129  C     C_R   0.645804 0.751155 0.296384 -0.110177
C130  C     C_R   0.358506 0.250009 0.000126 0.843330
C131  C     C_R   0.354193 0.248847 0.703618 -0.110100
C132  C     C_R   0.354187 0.751150 0.703619 -0.110038
C133  C     C_R   0.645803 0.248844 0.296384 -0.110187
C134  C     C_R   0.145805 0.251156 0.296382 -0.110116
C135  C     C_R   0.854199 0.748843 0.703617 -0.110182
C136  C     C_R   0.854199 0.251158 0.703616 -0.110200
C137  C     C_R   0.145805 0.748842 0.296381 -0.110055
C138  C     C_R   0.618408 0.748630 0.337302 0.264124
C139  C     C_R   0.381598 0.251308 0.662703 0.264082
C140  C     C_R   0.381597 0.748741 0.662707 0.264042
C141  C     C_R   0.641495 0.749991 0.999874 0.843382
C142  C     C_R   0.618409 0.251380 0.337302 0.264131
C143  C     C_R   0.118399 0.248697 0.337296 0.264066
C144  C     C_R   0.881596 0.751364 0.662699 0.264110
C145  C     C_R   0.881596 0.248626 0.662699 0.264116
C146  C     C_R   0.118389 0.751244 0.337289 0.264026
C147  C     C_R   0.660055 0.744785 0.419500 -0.035796
C148  C     C_R   0.339962 0.255147 0.580502 -0.035770
C149  C     C_R   0.339970 0.744905 0.580503 -0.035757
C150  C     C_R   0.660057 0.255226 0.419500 -0.035794
C151  C     C_R   0.160034 0.244861 0.419498 -0.035765
C152  C     C_R   0.641495 0.250009 0.999874 0.843370
C153  C     C_R   0.839951 0.755209 0.580500 -0.035790
C154  C     C_R   0.839949 0.244782 0.580500 -0.035792
C155  C     C_R   0.160014 0.755070 0.419496 -0.035755
C156  C     C_R   0.728401 0.750077 0.458989 0.004121
C157  C     C_R   0.271601 0.249924 0.541012 0.004108
C158  C     C_R   0.271596 0.750069 0.541013 0.004100
C159  C     C_R   0.728400 0.249924 0.458989 0.004123
C160  C     C_R   0.228395 0.250084 0.458988 0.004104
C161  C     C_R   0.771605 0.749919 0.541011 0.004118
C162  C     C_R   0.771604 0.250083 0.541011 0.004120
C163  C     C_R   0.358505 0.749991 0.000126 0.843328
C164  C     C_R   0.228388 0.749907 0.458988 0.004095
C165  C     C_R   0.753831 0.755655 0.416563 0.080598
C166  C     C_R   0.246157 0.244414 0.583438 0.080644
C167  C     C_R   0.246140 0.755520 0.583439 0.080677
C168  C     C_R   0.753827 0.244333 0.416563 0.080594
C169  C     C_R   0.253839 0.255594 0.416562 0.080640
C170  C     C_R   0.746175 0.744341 0.583437 0.080590
C171  C     C_R   0.746177 0.255673 0.583436 0.080591
C172  C     C_R   0.253846 0.744456 0.416563 0.080672
C173  C     C_R   0.104959 0.749480 0.211550 0.865199
C174  C     C_3   0.222475 0.714871 0.979340 0.201924
C175  C     C_R   0.895046 0.250523 0.788449 0.865186
C176  C     C_R   0.895047 0.749477 0.788449 0.865188
C177  C     C_R   0.104957 0.250521 0.211551 0.865189
C178  C     C_R   0.604954 0.249477 0.211551 0.865182
C179  C     C_R   0.395040 0.750519 0.788450 0.865197
C180  C     C_R   0.395043 0.249479 0.788449 0.865186
C181  C     C_R   0.604955 0.750522 0.211551 0.865180
C182  C     C_R   0.637222 0.736039 0.464496 0.315512
C183  C     C_R   0.362819 0.263822 0.535504 0.315502
C184  C     C_R   0.362846 0.736289 0.535505 0.315505
H1    H     H_    0.962992 0.098097 0.066341 0.196185
H2    H     H_    0.033529 0.534418 0.179092 0.190151
H3    H     H_    0.033529 0.465581 0.179092 0.190152
H4    H     H_    0.966471 0.534419 0.820908 0.190154
H5    H     H_    0.466507 0.965582 0.820926 0.190134
H6    H     H_    0.533493 0.034418 0.179073 0.190136
H7    H     H_    0.533493 0.965581 0.179073 0.190136
H8    H     H_    0.466507 0.034419 0.820926 0.190135
H9    H     H_    0.718323 0.233894 0.869885 0.180970
H10   H     H_    0.281674 0.766112 0.130111 0.180951
H11   H     H_    0.281671 0.233877 0.130105 0.180951
H12   H     H_    0.037006 0.901903 0.933658 0.196188
H13   H     H_    0.718322 0.766103 0.869884 0.180976
H14   H     H_    0.218326 0.733891 0.869890 0.180962
H15   H     H_    0.781677 0.266103 0.130114 0.180982
H16   H     H_    0.781678 0.733899 0.130115 0.180990
H17   H     H_    0.218329 0.266120 0.869895 0.180963
H18   H     H_    0.828144 0.201310 0.093060 0.200033
H19   H     H_    0.171852 0.798685 0.906931 0.200056
H20   H     H_    0.171844 0.201323 0.906915 0.200063
H21   H     H_    0.828141 0.798691 0.093055 0.200016
H22   H     H_    0.328148 0.701317 0.093070 0.200017
H23   H     H_    0.037006 0.098097 0.933658 0.196190
H24   H     H_    0.671857 0.298687 0.906939 0.199993
H25   H     H_    0.671860 0.701311 0.906944 0.199977
H26   H     H_    0.328156 0.298675 0.093086 0.200023
H27   H     H_    0.732833 0.757890 0.303499 0.172932
H28   H     H_    0.267150 0.242228 0.696503 0.172840
H29   H     H_    0.267132 0.757669 0.696508 0.172765
H30   H     H_    0.732830 0.242088 0.303501 0.172945
H31   H     H_    0.232849 0.257777 0.303498 0.172842
H32   H     H_    0.767170 0.742111 0.696499 0.172929
H33   H     H_    0.767172 0.257913 0.696497 0.172944
H34   H     H_    0.962991 0.901903 0.066339 0.196180
H35   H     H_    0.232862 0.742317 0.303498 0.172769
H36   H     H_    0.661670 0.730979 0.578717 0.191928
H37   H     H_    0.338383 0.268830 0.421283 0.191910
H38   H     H_    0.338421 0.731325 0.421285 0.191910
H39   H     H_    0.661675 0.269056 0.578713 0.191921
H40   H     H_    0.161612 0.231183 0.578717 0.191909
H41   H     H_    0.838340 0.769014 0.421287 0.191930
H42   H     H_    0.838330 0.230955 0.421287 0.191920
H43   H     H_    0.161562 0.768633 0.578720 0.191911
H44   H     H_    0.465566 0.598078 0.069086 0.196636
H45   H     H_    0.534436 0.401922 0.930915 0.196632
H46   H     H_    0.534436 0.598078 0.930917 0.196628
H47   H     H_    0.465565 0.401922 0.069085 0.196637
H48   H     H_    0.966471 0.465582 0.820908 0.190153
I1    I     I_    0.026693 0.385169 0.159626 -0.252539
I2    I     I_    0.923071 0.948801 0.134339 -0.211957
I3    I     I_    0.923074 0.051199 0.134343 -0.211890
I4    I     I_    0.076918 0.948801 0.865648 -0.211802
I5    I     I_    0.571476 0.551196 0.859822 -0.211371
I6    I     I_    0.428533 0.448804 0.140187 -0.211206
I7    I     I_    0.428534 0.551196 0.140189 -0.211221
I8    I     I_    0.571474 0.448804 0.859820 -0.211311
I9    I     I_    0.177815 0.658841 0.945978 -0.236215
I10   I     I_    0.822194 0.341157 0.054039 -0.236151
I11   I     I_    0.822200 0.658844 0.054049 -0.236096
I12   I     I_    0.973307 0.614831 0.840374 -0.252659
I13   I     I_    0.177831 0.341165 0.946008 -0.236225
I14   I     I_    0.677820 0.158837 0.945971 -0.235445
I15   I     I_    0.322172 0.841166 0.054013 -0.235512
I16   I     I_    0.322155 0.158829 0.053982 -0.235519
I17   I     I_    0.677814 0.841162 0.945961 -0.235398
I18   I     I_    0.973308 0.385169 0.840374 -0.252684
I19   I     I_    0.026693 0.614831 0.159627 -0.252439
I20   I     I_    0.526665 0.885168 0.159611 -0.252650
I21   I     I_    0.473335 0.114832 0.840389 -0.252520
I22   I     I_    0.473335 0.885169 0.840388 -0.252420
I23   I     I_    0.526665 0.114831 0.159611 -0.252667
I24   I     I_    0.076918 0.051199 0.865649 -0.211786
O1    O     O_3   0.000000 0.749960 0.000000 -0.519124
O2    O     O_R   0.640190 0.772970 0.045820 -0.630216
O3    O     O_R   0.640190 0.227030 0.045820 -0.630215
O4    O     O_R   0.359810 0.772970 0.954180 -0.630212
O5    O     O_R   0.056680 0.772880 0.174890 -0.605440
O6    O     O_R   0.943320 0.227120 0.825110 -0.605364
O7    O     O_R   0.943320 0.772880 0.825110 -0.605375
O8    O     O_R   0.056680 0.227120 0.174890 -0.605410
O9    O     O_R   0.556680 0.272880 0.174890 -0.605379
O10   O     O_R   0.443320 0.727120 0.825110 -0.605456
O11   O     O_R   0.443320 0.272880 0.825110 -0.605425
O12   O     O_3   0.000000 0.250040 0.000000 -0.519126
O13   O     O_R   0.556680 0.727120 0.174890 -0.605382
O14   O     O_R   0.992160 0.837390 0.045890 -0.643003
O15   O     O_R   0.007840 0.162610 0.954110 -0.642969
O16   O     O_R   0.007840 0.837390 0.954110 -0.642971
O17   O     O_R   0.992160 0.162610 0.045890 -0.642990
O18   O     O_R   0.492160 0.337390 0.045890 -0.643177
O19   O     O_R   0.507840 0.662610 0.954110 -0.643210
O20   O     O_R   0.507840 0.337390 0.954110 -0.643198
O21   O     O_R   0.492160 0.662610 0.045890 -0.643178
O22   O     O_R   0.946340 0.662530 0.954150 -0.611019
O23   O     O_3   0.500000 0.249960 0.000000 -0.519104
O24   O     O_R   0.053660 0.337470 0.045850 -0.611005
O25   O     O_R   0.053660 0.662530 0.045850 -0.611004
O26   O     O_R   0.946340 0.337470 0.954150 -0.611019
O27   O     O_R   0.446340 0.162530 0.954150 -0.611004
O28   O     O_R   0.553660 0.837470 0.045850 -0.611019
O29   O     O_R   0.553660 0.162530 0.045850 -0.611019
O30   O     O_R   0.446340 0.837470 0.954150 -0.611003
O31   O     O_R   0.118180 0.727030 0.174870 -0.636350
O32   O     O_R   0.881820 0.272970 0.825130 -0.636448
O33   O     O_R   0.881820 0.727030 0.825130 -0.636440
O34   O     O_3   0.500000 0.750040 0.000000 -0.519103
O35   O     O_R   0.118180 0.272970 0.174870 -0.636387
O36   O     O_R   0.618180 0.227030 0.174870 -0.636455
O37   O     O_R   0.381820 0.772970 0.825130 -0.636355
O38   O     O_R   0.381820 0.227030 0.825130 -0.636394
O39   O     O_R   0.618180 0.772970 0.174870 -0.636448
O40   O     O_R   0.905650 0.772880 0.045890 -0.625104
O41   O     O_R   0.094350 0.227120 0.954110 -0.625085
O42   O     O_R   0.094350 0.772880 0.954110 -0.625089
O43   O     O_R   0.905650 0.227120 0.045890 -0.625095
O44   O     O_R   0.405650 0.272880 0.045890 -0.625045
O45   O     O_R   0.859810 0.727030 0.954180 -0.630208
O46   O     O_R   0.594350 0.727120 0.954110 -0.625064
O47   O     O_R   0.594350 0.272880 0.954110 -0.625054
O48   O     O_R   0.405650 0.727120 0.045890 -0.625046
O49   O     O_R   0.140190 0.272970 0.045820 -0.630201
O50   O     O_R   0.140190 0.727030 0.045820 -0.630204
O51   O     O_R   0.859810 0.272970 0.954180 -0.630207
O52   O     O_R   0.359810 0.227030 0.954180 -0.630208
Zn1   Zn    Zn3+2 0.076680 0.717210 0.065490 1.037538
Zn2   Zn    Zn3+2 0.011180 0.217290 0.934470 1.025037
Zn3   Zn    Zn3+2 0.011180 0.782710 0.934470 1.025027
Zn4   Zn    Zn3+2 0.988820 0.217290 0.065530 1.025007
Zn5   Zn    Zn3+2 0.488820 0.282710 0.065530 1.025025
Zn6   Zn    Zn3+2 0.511180 0.717290 0.934470 1.024971
Zn7   Zn    Zn3+2 0.511180 0.282710 0.934470 1.024996
Zn8   Zn    Zn3+2 0.488820 0.717290 0.065530 1.025018
Zn9   Zn    Zn3+2 0.923320 0.282790 0.934510 1.037486
Zn10  Zn    Zn3+2 0.923320 0.717210 0.934510 1.037497
Zn11  Zn    Zn3+2 0.076680 0.282790 0.065490 1.037514
Zn12  Zn    Zn3+2 0.576680 0.217210 0.065490 1.037499
Zn13  Zn    Zn3+2 0.423320 0.782790 0.934510 1.037551
Zn14  Zn    Zn3+2 0.423320 0.217210 0.934510 1.037528
Zn15  Zn    Zn3+2 0.576680 0.782790 0.065490 1.037509
Zn16  Zn    Zn3+2 0.988820 0.782710 0.065530 1.024981

loop_
_geom_bond_atom_site_label_1
_geom_bond_atom_site_label_2
_ccdc_geom_bond_type
C156  C161  A    
O19   Zn6   S    
C80   C86   A    
C64   I19   S    
C46   C113  S    
C60   O30   A    
C90   C116  S    
C154  C162  A    
C69   C80   A    
O42   Zn3   S    
O50   Zn1   S    
C90   H10   S    
O44   Zn5   S    
C79   C117  S    
Br8   C7    S    
C2    C117  S    
O37   Zn13  S    
O12   Zn11  S    
C63   C74   A    
C152  O3    A    
C146  C155  A    
C147  C182  A    
C27   C52   S    
C14   H41   S    
C30   C39   A    
C178  O9    A    
C75   C84   A    
C131  C139  A    
C101  C110  S    
Br13  C144  S    
C57   I16   S    
O43   Zn4   S    
C103  C112  S    
C47   I4    S    
C8    C182  A    
C21   H44   S    
O4    Zn13  S    
C176  O33   A    
C66   C82   A    
O12   Zn4   S    
C88   C89   A    
C68   C110  S    
C35   I14   S    
C99   C107  S    
C134  C143  A    
C160  C169  A    
C109  C152  S    
C111  C120  S    
C141  O2    A    
C4    C12   A    
C79   C103  S    
C82   C86   A    
Br6   C5    S    
C161  C170  A    
C104  C113  S    
C54   O20   A    
C126  C135  A    
C118  H25   S    
C9    C183  A    
O30   Zn13  S    
C126  H32   S    
C9    H37   S    
C13   C106  S    
C102  H17   S    
O2    Zn15  S    
O48   Zn8   S    
C148  C157  A    
C11   C171  A    
C114  H20   S    
C147  C156  A    
C77   C84   A    
C6    C154  A    
C36   C42   A    
C119  O43   A    
C181  O39   A    
C157  C166  A    
C179  O10   A    
C125  H31   S    
C112  H18   S    
Br16  C182  S    
C57   C114  S    
C68   C98   S    
C128  H35   S    
C34   C41   A    
C46   I15   S    
C46   C90   S    
Br7   C6    S    
C80   C93   A    
C43   C47   A    
C92   C95   A    
C97   O41   A    
Br14  C145  S    
C173  O5    A    
C21   C28   A    
C143  C151  A    
C163  O4    A    
Br12  C143  S    
O14   Zn16  S    
Br1   C138  S    
C122  C166  A    
C65   C72   A    
C1    C106  S    
C7    C155  A    
C110  C118  S    
C25   C29   A    
C87   C91   A    
O36   Zn12  S    
C36   C49   A    
C35   C79   S    
C62   C71   A    
C107  C116  S    
C15   H42   S    
C105  C114  S    
C56   O25   A    
Br5   C4    S    
C137  C173  S    
C51   I8    S    
C180  O38   A    
C13   I11   S    
C66   C73   A    
C20   C31   A    
C17   C26   A    
C54   O18   A    
C121  C165  A    
C20   H34   S    
C117  H24   S    
O33   Zn10  S    
C55   O21   A    
C19   C26   A    
C12   C166  A    
O17   Zn4   S    
C10   C172  A    
C156  C165  A    
O15   Zn2   S    
C22   C29   A    
C94   H7    S    
C59   O29   A    
C10   C184  A    
C133  C142  A    
C136  C145  A    
C148  C183  A    
C21   C37   A    
C96   C120  S    
C153  C161  A    
C125  C134  A    
O16   Zn3   S    
C123  C132  A    
C130  O52   A    
Br2   C183  S    
C96   H11   S    
C107  C163  S    
C149  C184  A    
O22   Zn10  S    
C149  C158  A    
C67   I22   S    
C175  O6    A    
C8    H36   S    
C65   I20   S    
C23   H46   S    
C24   I13   S    
C132  C179  S    
O45   Zn10  S    
C38   C42   A    
Br3   C184  S    
C98   C118  S    
C131  C180  S    
C123  H29   S    
C129  C138  A    
C135  C176  S    
C100  C109  S    
C58   O26   A    
C102  C111  S    
O39   Zn15  S    
C158  C164  A    
C74   C83   A    
C56   C71   S    
C57   C96   S    
O25   Zn1   S    
C48   I5    S    
C110  C141  S    
C4    C151  A    
C18   C33   A    
C1    O45   A    
C18   C27   A    
C23   C28   A    
O23   Zn12  S    
C96   C105  S    
C121  H27   S    
C37   C50   A    
C41   C42   A    
C5    C153  A    
O10   Zn6   S    
C43   I24   S    
C67   C72   A    
C59   O27   A    
C101  C115  S    
C163  O48   A    
C176  O7    A    
C97   C105  S    
Br11  C142  S    
O27   Zn14  S    
C62   I12   S    
C177  O35   A    
C178  O36   A    
C124  C133  A    
C76   C83   A    
C31   C40   A    
C32   C39   A    
C24   C102  S    
C39   C40   A    
C124  H30   S    
C85   C86   A    
O49   Zn11  S    
C15   C168  A    
C106  C115  S    
C16   C167  A    
C11   H39   S    
C175  O32   A    
C24   C120  S    
C150  C159  A    
C124  C168  A    
C66   I21   S    
C116  H22   S    
C121  C129  A    
C99   C113  S    
C9    C169  A    
C89   H3    S    
C119  O51   A    
C63   I18   S    
C8    C170  A    
O31   Zn1   S    
C164  C172  A    
C144  C153  A    
O23   Zn7   S    
C180  O11   A    
C13   C118  S    
C152  O47   A    
C100  H15   S    
O11   Zn7   S    
O34   Zn15  S    
C159  C162  A    
C79   H9    S    
C2    C100  S    
C69   C73   A    
C57   C111  S    
C67   C78   A    
C103  C119  S    
C44   C45   A    
O32   Zn9   S    
C134  C177  S    
C102  C114  S    
O34   Zn8   S    
C10   H38   S    
C173  O31   A    
C45   I3    S    
C49   I6    S    
O24   Zn11  S    
C115  H21   S    
C108  O42   A    
C52   O14   A    
C162  C171  A    
C127  C136  A    
C53   O15   A    
C14   C165  A    
C61   I1    S    
C35   C112  S    
C142  C150  A    
C111  C130  S    
C108  O50   A    
C37   C41   A    
C29   C54   S    
O23   Zn14  S    
C92   H5    S    
C158  C167  A    
C64   C71   A    
C5    C14   A    
C87   H48   S    
C137  C146  A    
C7    C16   A    
C69   I23   S    
C64   C75   A    
C113  H19   S    
C93   C94   A    
C12   H40   S    
C22   H45   S    
O47   Zn7   S    
C140  C149  A    
O1    Zn10  S    
O29   Zn12  S    
O23   Zn5   S    
O3    Zn12  S    
C74   C87   A    
C2    I10   S    
O18   Zn5   S    
C76   C89   A    
C17   C32   A    
C141  O46   A    
C20   C27   A    
C132  C140  A    
C19   C30   A    
O6    Zn2   S    
C63   C70   A    
O34   Zn13  S    
C159  C168  A    
C61   C76   A    
O1    Zn1   S    
C33   C47   A    
C30   C43   A    
C34   C48   A    
Br15  C146  S    
O51   Zn9   S    
C75   C88   A    
O28   Zn15  S    
O13   Zn8   S    
C24   C105  S    
C1    O40   A    
C78   C92   A    
C65   C81   A    
C136  C175  S    
C104  C174  S    
O34   Zn6   S    
C62   C77   A    
C28   C55   S    
C130  O44   A    
C128  C137  A    
C179  O37   A    
C31   C44   A    
C52   O16   A    
C99   C174  S    
C78   C85   A    
C22   C38   A    
C3    C150  A    
O41   Zn2   S    
C3    C11   A    
C60   C72   S    
C25   C36   A    
C177  O8    A    
C25   H47   S    
C44   I2    S    
Br4   C3    S    
C98   H13   S    
C55   O19   A    
C46   C107  S    
O40   Zn16  S    
C126  C170  A    
C6    C15   A    
C35   C109  S    
C48   C51   A    
O7    Zn3   S    
C138  C147  A    
Br10  C140  S    
C60   O28   A    
C59   C73   S    
C38   C51   A    
C13   C101  S    
C26   C53   S    
C99   H14   S    
C88   H2    S    
C101  H16   S    
C129  C181  S    
O20   Zn7   S    
C19   H23   S    
C133  C178  S    
C83   C84   A    
O5    Zn16  S    
C122  C131  A    
C174  I9    S    
C58   C70   S    
C122  H28   S    
O12   Zn9   S    
Br9   C139  S    
C18   H12   S    
C145  C154  A    
O21   Zn8   S    
C61   C70   A    
O1    Zn3   S    
C16   H43   S    
C155  C164  A    
C125  C169  A    
O38   Zn14  S    
C123  C167  A    
O8    Zn4   S    
C128  C172  A    
C157  C160  A    
C109  C117  S    
C120  H26   S    
C82   C95   A    
C90   C104  S    
C127  C171  A    
O12   Zn2   S    
C116  C174  S    
C181  O13   A    
C139  C148  A    
C33   C40   A    
C68   C115  S    
O1    Zn16  S    
O52   Zn14  S    
C135  C144  A    
C127  H33   S    
C58   O24   A    
C91   H4    S    
C77   C91   A    
C81   C94   A    
C32   C45   A    
C97   O49   A    
C2    C103  S    
C17   H1    S    
C53   O17   A    
C68   I17   S    
O9    Zn5   S    
C93   H6    S    
O35   Zn11  S    
C98   C106  S    
C23   C34   A    
C50   I7    S    
O26   Zn9   S    
C49   C50   A    
C100  C112  S    
O46   Zn6   S    
C56   O22   A    
C95   H8    S    
C81   C85   A    
C104  C108  S    
C151  C160  A    
