data_mof_unit_57082.cif
_audit_creation_date              2012-12-11T15:08:56-0500
_audit_creation_method            fapswitch 2.2
_symmetry_space_group_name_H-M    P1
_symmetry_Int_Tables_number       1
_space_group_crystal_system       triclinic
_cell_length_a                    19.425427
_cell_length_b                    11.311513
_cell_length_c                    18.695692
_cell_angle_alpha                 89.868533
_cell_angle_beta                  90.295589
_cell_angle_gamma                 90.121344
_cell_volume                      4107.94794649

loop_
_atom_site_label
_atom_site_type_symbol
_atom_type_description
_atom_site_fract_x
_atom_site_fract_y
_atom_site_fract_z
_atom_type_partial_charge
C1    C     C_R   0.271797 0.043774 0.853569 0.522127
C2    C     C_R   0.727224 0.041910 0.144987 0.525356
C3    C     C_R   0.771797 0.543774 0.853569 0.522127
C4    C     C_R   0.227223 0.541910 0.144987 0.525359
C5    C     C_3   0.509406 0.718642 0.971351 -0.071878
C6    C     C_3   0.474084 0.746887 0.042026 -0.119693
C7    C     C_3   0.009406 0.218642 0.971351 -0.071877
C8    C     C_3   0.974084 0.246887 0.042026 -0.119692
C9    C     C_3   0.306629 0.504137 0.039028 -0.014652
C10   C     C_3   0.682900 0.529661 0.953982 -0.012512
C11   C     C_3   0.806628 0.004137 0.039028 -0.014651
C12   C     C_3   0.182900 0.029661 0.953982 -0.012512
C13   C     C_3   0.310834 0.515051 0.956244 -0.194244
C14   C     C_3   0.674409 0.553311 0.035619 -0.179691
C15   C     C_3   0.810834 0.015050 0.956244 -0.194242
C16   C     C_3   0.174409 0.053311 0.035619 -0.179691
C17   C     C_3   0.176136 0.534317 0.025829 -0.237786
C18   C     C_3   0.812667 0.511638 0.973640 -0.236631
C19   C     C_3   0.676136 0.034317 0.025829 -0.237786
C20   C     C_3   0.312667 0.011638 0.973639 -0.236632
C21   C     C_3   0.252853 0.701739 0.054829 -0.231481
C22   C     C_3   0.761736 0.704078 0.944088 -0.248185
C23   C     C_3   0.752853 0.201739 0.054829 -0.231482
C24   C     C_3   0.261736 0.204078 0.944088 -0.248184
C25   C     C_3   0.241990 0.570691 0.068627 0.087021
C26   C     C_3   0.755662 0.572810 0.928919 0.082311
C27   C     C_3   0.741990 0.070691 0.068627 0.087019
C28   C     C_3   0.255662 0.072810 0.928919 0.082311
C29   C     C_3   0.255643 0.603251 0.930033 0.046643
C30   C     C_3   0.742099 0.606387 0.067571 0.036098
C31   C     C_3   0.755643 0.103251 0.930033 0.046642
C32   C     C_3   0.242099 0.106387 0.067571 0.036098
C33   C     C_3   0.184448 0.551315 0.945237 -0.261185
C34   C     C_3   0.799491 0.517846 0.054871 -0.272319
C35   C     C_3   0.684448 0.051315 0.945237 -0.261185
C36   C     C_3   0.299491 0.017846 0.054871 -0.272319
C37   C     C_3   0.266847 0.716939 0.974183 -0.216472
C38   C     C_3   0.760497 0.719536 0.025559 -0.227545
C39   C     C_3   0.766847 0.216938 0.974183 -0.216472
C40   C     C_3   0.260497 0.219536 0.025559 -0.227546
C41   C     C_3   0.503735 0.701430 0.460468 -0.228302
C42   C     C_3   0.496160 0.701578 0.539802 -0.227447
C43   C     C_3   0.003735 0.201430 0.460468 -0.228302
C44   C     C_3   0.996161 0.201578 0.539802 -0.227447
C45   C     C_R   0.444881 0.817635 0.862692 0.539382
C46   C     C_R   0.558261 0.818112 0.137861 0.535738
C47   C     C_R   0.944881 0.317634 0.862692 0.539382
C48   C     C_R   0.058262 0.318112 0.137861 0.535737
C49   C     C_3   0.564622 0.904826 0.473640 -0.216124
C50   C     C_3   0.435492 0.905000 0.526015 -0.216637
C51   C     C_3   0.064622 0.404826 0.473640 -0.216124
C52   C     C_3   0.935492 0.405001 0.526015 -0.216637
C53   C     C_3   0.441010 0.887180 0.444052 -0.263356
C54   C     C_3   0.559037 0.887448 0.555682 -0.263593
C55   C     C_3   0.941010 0.387180 0.444052 -0.263356
C56   C     C_3   0.059037 0.387448 0.555682 -0.263593
C57   C     C_3   0.510629 0.829154 0.430836 0.062653
C58   C     C_3   0.489332 0.829442 0.569074 0.063019
C59   C     C_3   0.010629 0.329154 0.430836 0.062654
C60   C     C_3   0.989332 0.329442 0.569074 0.063019
C61   C     C_3   0.179835 0.646563 0.459100 -0.227909
C62   C     C_3   0.820375 0.646776 0.540761 -0.228371
C63   C     C_3   0.679835 0.146563 0.459100 -0.227909
C64   C     C_3   0.320375 0.146776 0.540761 -0.228371
C65   C     C_3   0.184642 0.659591 0.538342 -0.227913
C66   C     C_3   0.815458 0.659825 0.461510 -0.227790
C67   C     C_3   0.684642 0.159591 0.538342 -0.227913
C68   C     C_3   0.315458 0.159825 0.461510 -0.227790
C69   C     C_3   0.252501 0.454837 0.473322 -0.215115
C70   C     C_3   0.747451 0.454934 0.527188 -0.214573
C71   C     C_3   0.752501 0.954837 0.473322 -0.215115
C72   C     C_3   0.247451 0.954934 0.527188 -0.214573
C73   C     C_3   0.304700 0.647696 0.442488 -0.264440
C74   C     C_3   0.695390 0.647712 0.557306 -0.264943
C75   C     C_3   0.804699 0.147696 0.442488 -0.264440
C76   C     C_3   0.195390 0.147712 0.557306 -0.264943
C77   C     C_3   0.240667 0.572298 0.430010 0.066054
C78   C     C_3   0.759376 0.572567 0.570046 0.066763
C79   C     C_3   0.740667 0.072298 0.430010 0.066054
C80   C     C_3   0.259376 0.072567 0.570046 0.066763
C81   C     C_3   0.252763 0.606123 0.567648 0.065116
C82   C     C_3   0.747230 0.605946 0.432377 0.064976
C83   C     C_3   0.752763 0.106123 0.567648 0.065116
C84   C     C_3   0.247230 0.105946 0.432377 0.064976
C85   C     C_3   0.247206 0.473199 0.555073 -0.264465
C86   C     C_3   0.752720 0.473097 0.445384 -0.265097
C87   C     C_3   0.747206 0.973199 0.555073 -0.264465
C88   C     C_3   0.252720 0.973097 0.445384 -0.265097
C89   C     C_R   0.261433 0.637651 0.853366 0.529494
C90   C     C_R   0.737449 0.640747 0.145029 0.532563
C91   C     C_R   0.761434 0.137651 0.853366 0.529494
C92   C     C_R   0.237449 0.140747 0.145029 0.532563
C93   C     C_3   0.317271 0.648655 0.524317 -0.216654
C94   C     C_3   0.682726 0.648255 0.475507 -0.216661
C95   C     C_3   0.817272 0.148655 0.524317 -0.216654
C96   C     C_3   0.182726 0.148255 0.475507 -0.216661
C97   C     C_R   0.273030 0.043447 0.645823 0.536923
C98   C     C_R   0.726925 0.043136 0.354242 0.538651
C99   C     C_R   0.773030 0.543447 0.645823 0.536923
C100  C     C_R   0.226925 0.543136 0.354242 0.538651
C101  C     C_R   0.468608 0.823218 0.645371 0.542523
C102  C     C_R   0.531373 0.823002 0.354591 0.543156
C103  C     C_R   0.968608 0.323218 0.645371 0.542523
C104  C     C_R   0.031373 0.323002 0.354591 0.543156
C105  C     C_R   0.260928 0.640345 0.643600 0.539478
C106  C     C_R   0.739090 0.640036 0.356372 0.541284
C107  C     C_R   0.760928 0.140345 0.643600 0.539478
C108  C     C_R   0.239090 0.140036 0.356372 0.541284
C109  C     C_3   0.495958 0.933694 0.029767 -0.113026
C110  C     C_3   0.531967 0.906626 0.957658 -0.112973
C111  C     C_3   0.995957 0.433694 0.029767 -0.113027
C112  C     C_3   0.031967 0.406626 0.957658 -0.112973
C113  C     C_3   0.436217 0.851334 0.008438 -0.162656
C114  C     C_3   0.569582 0.800433 0.992430 -0.137966
C115  C     C_3   0.936217 0.351334 0.008438 -0.162655
C116  C     C_3   0.069582 0.300433 0.992430 -0.137967
C117  C     C_3   0.472405 0.823958 0.937119 0.053536
C118  C     C_3   0.533083 0.827814 0.063182 0.030612
C119  C     C_3   0.972405 0.323958 0.937119 0.053536
C120  C     C_3   0.033083 0.327814 0.063182 0.030611
Cr1   Cr    Cr6+3 0.229620 0.836040 0.749110 0.987803
Cr2   Cr    Cr6+3 0.770380 0.836040 0.250890 0.986750
Cr3   Cr    Cr6+3 0.729620 0.336040 0.749110 0.987803
Cr4   Cr    Cr6+3 0.270380 0.336040 0.250890 0.986750
Cr5   Cr    Cr6+3 0.387630 0.990680 0.750730 0.996349
Cr6   Cr    Cr6+3 0.612370 0.990680 0.249270 0.996297
Cr7   Cr    Cr6+3 0.887630 0.490680 0.750730 0.996349
Cr8   Cr    Cr6+3 0.112370 0.490680 0.249270 0.996297
Cr9   Cr    Cr6+3 0.386020 0.676590 0.749210 0.990846
Cr10  Cr    Cr6+3 0.613980 0.676590 0.250790 0.992104
Cr11  Cr    Cr6+3 0.886020 0.176590 0.749210 0.990847
Cr12  Cr    Cr6+3 0.113980 0.176590 0.250790 0.992104
H1    H     H_    0.385088 0.853860 0.031614 0.108488
H2    H     H_    0.624002 0.782127 0.982471 0.129430
H3    H     H_    0.885088 0.353860 0.031614 0.108488
H4    H     H_    0.124002 0.282128 0.982471 0.129430
H5    H     H_    0.206573 0.753272 0.070454 0.109200
H6    H     H_    0.811481 0.737741 0.922966 0.122093
H7    H     H_    0.706572 0.253272 0.070453 0.109201
H8    H     H_    0.311480 0.237741 0.922966 0.122093
H9    H     H_    0.297096 0.734306 0.087127 0.132288
H10   H     H_    0.720187 0.755060 0.917380 0.121832
H11   H     H_    0.797096 0.234306 0.087127 0.132286
H12   H     H_    0.220187 0.255061 0.917380 0.121832
H13   H     H_    0.321337 0.740365 0.966461 0.117953
H14   H     H_    0.723728 0.788707 0.040148 0.093728
H15   H     H_    0.821337 0.240364 0.966461 0.117954
H16   H     H_    0.223728 0.288707 0.040148 0.093728
H17   H     H_    0.233727 0.785931 0.953124 0.121363
H18   H     H_    0.814364 0.740739 0.041440 0.132669
H19   H     H_    0.733727 0.285931 0.953124 0.121363
H20   H     H_    0.314364 0.240739 0.041440 0.132669
H21   H     H_    0.631062 0.087890 0.042873 0.143168
H22   H     H_    0.363545 0.053733 0.962930 0.146481
H23   H     H_    0.131062 0.587890 0.042873 0.143168
H24   H     H_    0.863545 0.553733 0.962930 0.146481
H25   H     H_    0.143521 0.612087 0.925520 0.137782
H26   H     H_    0.847595 0.544986 0.083093 0.132893
H27   H     H_    0.643521 0.112088 0.925520 0.137783
H28   H     H_    0.347595 0.044986 0.083093 0.132893
H29   H     H_    0.546984 0.645023 0.446717 0.136014
H30   H     H_    0.452982 0.644798 0.553788 0.136397
H31   H     H_    0.046984 0.145023 0.446717 0.136014
H32   H     H_    0.952982 0.144798 0.553788 0.136397
H33   H     H_    0.458850 0.656490 0.435599 0.114844
H34   H     H_    0.541050 0.656957 0.564811 0.114845
H35   H     H_    0.958850 0.156490 0.435599 0.114844
H36   H     H_    0.041050 0.156957 0.564811 0.114845
H37   H     H_    0.616588 0.895834 0.453892 0.112850
H38   H     H_    0.383508 0.896250 0.545847 0.112577
H39   H     H_    0.116588 0.395834 0.453892 0.112850
H40   H     H_    0.883508 0.396250 0.545847 0.112577
H41   H     H_    0.601003 0.831092 0.576375 0.109169
H42   H     H_    0.398933 0.830712 0.423634 0.109518
H43   H     H_    0.101003 0.331092 0.576375 0.109169
H44   H     H_    0.898933 0.330712 0.423634 0.109518
H45   H     H_    0.490793 0.023012 0.053594 0.116206
H46   H     H_    0.553261 0.973244 0.920387 0.118129
H47   H     H_    0.990793 0.523011 0.053594 0.116206
H48   H     H_    0.053260 0.473244 0.920387 0.118129
H49   H     H_    0.437911 0.973198 0.415514 0.110356
H50   H     H_    0.562203 0.973552 0.583867 0.109790
H51   H     H_    0.937911 0.473198 0.415514 0.110356
H52   H     H_    0.062203 0.473552 0.583867 0.109790
H53   H     H_    0.449681 0.998102 0.536038 0.117791
H54   H     H_    0.550560 0.997790 0.463183 0.118533
H55   H     H_    0.949681 0.498102 0.536038 0.117791
H56   H     H_    0.050560 0.497790 0.463183 0.118533
H57   H     H_    0.129618 0.609899 0.445638 0.135528
H58   H     H_    0.870495 0.609752 0.554210 0.135746
H59   H     H_    0.629618 0.109899 0.445638 0.135528
H60   H     H_    0.370495 0.109752 0.554210 0.135746
H61   H     H_    0.179344 0.735268 0.433541 0.114783
H62   H     H_    0.821136 0.735487 0.566104 0.114493
H63   H     H_    0.679344 0.235268 0.433541 0.114783
H64   H     H_    0.321136 0.235487 0.566104 0.114493
H65   H     H_    0.178636 0.752764 0.551388 0.135073
H66   H     H_    0.821484 0.753108 0.448237 0.135517
H67   H     H_    0.678636 0.252764 0.551388 0.135073
H68   H     H_    0.321484 0.253107 0.448237 0.135517
H69   H     H_    0.139771 0.616141 0.563894 0.115558
H70   H     H_    0.860297 0.616573 0.436031 0.115700
H71   H     H_    0.639771 0.116141 0.563894 0.115558
H72   H     H_    0.360297 0.116573 0.436031 0.115700
H73   H     H_    0.721931 0.881163 0.454161 0.113053
H74   H     H_    0.278036 0.881489 0.546645 0.113567
H75   H     H_    0.221931 0.381163 0.454161 0.113053
H76   H     H_    0.778036 0.381489 0.546645 0.113567
H77   H     H_    0.697994 0.938871 0.575918 0.109010
H78   H     H_    0.301920 0.938942 0.424681 0.109409
H79   H     H_    0.197994 0.438871 0.575918 0.109010
H80   H     H_    0.801921 0.438942 0.424681 0.109409
H81   H     H_    0.349335 0.609125 0.414069 0.109788
H82   H     H_    0.650712 0.609118 0.585917 0.109439
H83   H     H_    0.849335 0.109125 0.414069 0.109788
H84   H     H_    0.150712 0.109118 0.585917 0.109439
H85   H     H_    0.296820 0.738113 0.421511 0.108413
H86   H     H_    0.703375 0.738257 0.577847 0.108203
H87   H     H_    0.796820 0.238113 0.421511 0.108413
H88   H     H_    0.203375 0.238257 0.577847 0.108203
H89   H     H_    0.507259 0.627091 0.951066 0.144616
H90   H     H_    0.453177 0.686664 0.082133 0.183458
H91   H     H_    0.007259 0.127091 0.951066 0.144617
H92   H     H_    0.953178 0.186664 0.082132 0.183457
H93   H     H_    0.338423 0.731470 0.543247 0.112934
H94   H     H_    0.661532 0.730852 0.456180 0.112855
H95   H     H_    0.838423 0.231470 0.543247 0.112934
H96   H     H_    0.161532 0.230852 0.456180 0.112855
H97   H     H_    0.357430 0.581803 0.534688 0.118619
H98   H     H_    0.642488 0.581156 0.465415 0.118351
H99   H     H_    0.857430 0.081803 0.534688 0.118619
H100  H     H_    0.142488 0.081156 0.465415 0.118351
H101  H     H_    0.306394 0.429185 0.462882 0.118668
H102  H     H_    0.693535 0.429142 0.537797 0.119176
H103  H     H_    0.806394 0.929186 0.462882 0.118668
H104  H     H_    0.193535 0.929142 0.537797 0.119176
H105  H     H_    0.289407 0.426053 0.583417 0.109332
H106  H     H_    0.710458 0.425765 0.417221 0.109383
H107  H     H_    0.789407 0.926053 0.583417 0.109332
H108  H     H_    0.210458 0.925765 0.417221 0.109383
H109  H     H_    0.301979 0.414241 0.054316 0.147087
H110  H     H_    0.678226 0.434147 0.946077 0.135522
H111  H     H_    0.801979 0.914241 0.054317 0.147087
H112  H     H_    0.178226 0.934147 0.946077 0.135522
H113  H     H_    0.363195 0.544922 0.940176 0.157677
H114  H     H_    0.630421 0.612420 0.046174 0.158722
H115  H     H_    0.863195 0.044921 0.940176 0.157679
H116  H     H_    0.130421 0.112421 0.046174 0.158722
H117  H     H_    0.302246 0.429044 0.930288 0.082736
H118  H     H_    0.662017 0.468797 0.063341 0.092658
H119  H     H_    0.802245 0.929044 0.930288 0.082736
H120  H     H_    0.162017 0.968797 0.063341 0.092658
H121  H     H_    0.662789 0.942726 0.038457 0.095905
H122  H     H_    0.316850 0.921730 0.954355 0.094065
H123  H     H_    0.162789 0.442726 0.038458 0.095904
H124  H     H_    0.816850 0.421730 0.954355 0.094065
H125  H     H_    0.678294 0.965432 0.917068 0.105671
H126  H     H_    0.284018 0.931000 0.076540 0.105254
H127  H     H_    0.178294 0.465432 0.917068 0.105671
H128  H     H_    0.784018 0.431000 0.076540 0.105254
O1    O     O_R   0.214130 0.708570 0.829890 -0.528283
O2    O     O_R   0.785870 0.708570 0.170110 -0.526138
O3    O     O_R   0.714130 0.208570 0.829890 -0.528283
O4    O     O_R   0.285870 0.208570 0.170110 -0.526138
O5    O     O_R   0.446360 0.919990 0.675230 -0.507299
O6    O     O_R   0.553640 0.919990 0.324770 -0.506934
O7    O     O_R   0.946360 0.419990 0.675230 -0.507299
O8    O     O_R   0.053640 0.419990 0.324770 -0.506934
O9    O     O_R   0.457170 0.717300 0.668380 -0.530841
O10   O     O_R   0.542830 0.717300 0.331620 -0.530579
O11   O     O_R   0.957170 0.217300 0.668380 -0.530841
O12   O     O_R   0.042830 0.217300 0.331620 -0.530579
O13   O     O_R   0.320870 0.624890 0.673130 -0.511182
O14   O     O_R   0.679130 0.624890 0.326870 -0.510233
O15   O     O_R   0.820870 0.124890 0.673130 -0.511182
O16   O     O_R   0.179130 0.124890 0.326870 -0.510233
O17   O     O_3   0.334430 0.834430 0.749680 -0.281118
O18   O     O_3   0.665570 0.834430 0.250320 -0.284679
O19   O     O_3   0.834430 0.334430 0.749680 -0.281118
O20   O     O_3   0.165570 0.334430 0.250320 -0.284679
O21   O     O_R   0.236050 0.959150 0.825270 -0.516711
O22   O     O_R   0.763950 0.959150 0.174730 -0.522965
O23   O     O_R   0.736050 0.459150 0.825270 -0.516711
O24   O     O_R   0.263950 0.459150 0.174730 -0.522965
O25   O     O_R   0.332100 0.076650 0.832310 -0.533694
O26   O     O_R   0.667900 0.076650 0.167690 -0.533553
O27   O     O_R   0.832100 0.576650 0.832310 -0.533694
O28   O     O_R   0.167900 0.576650 0.167690 -0.533554
O29   O     O_R   0.446500 0.918620 0.826240 -0.503208
O30   O     O_R   0.553500 0.918620 0.173760 -0.501293
O31   O     O_R   0.946500 0.418620 0.826240 -0.503208
O32   O     O_R   0.053500 0.418620 0.173760 -0.501293
O33   O     O_R   0.457310 0.715830 0.831280 -0.521377
O34   O     O_R   0.542690 0.715830 0.168720 -0.529705
O35   O     O_R   0.957310 0.215830 0.831280 -0.521377
O36   O     O_R   0.042690 0.215830 0.168720 -0.529706
O37   O     O_R   0.321000 0.623520 0.824130 -0.523589
O38   O     O_R   0.679000 0.623520 0.175870 -0.521260
O39   O     O_R   0.821000 0.123520 0.824130 -0.523589
O40   O     O_R   0.179000 0.123520 0.175870 -0.521260
O41   O     O_R   0.213990 0.710040 0.667000 -0.533119
O42   O     O_R   0.786010 0.710040 0.333000 -0.532351
O43   O     O_R   0.713990 0.210040 0.667000 -0.533119
O44   O     O_R   0.286010 0.210040 0.333000 -0.532351
O45   O     O_R   0.235920 0.960520 0.674260 -0.512595
O46   O     O_R   0.764080 0.960520 0.325740 -0.511769
O47   O     O_R   0.735920 0.460520 0.674260 -0.512595
O48   O     O_R   0.264080 0.460520 0.325740 -0.511769
O49   O     O_R   0.331960 0.078120 0.669410 -0.534131
O50   O     O_R   0.668040 0.078120 0.330590 -0.533063
O51   O     O_R   0.831960 0.578120 0.669410 -0.534131
O52   O     O_R   0.168040 0.578120 0.330590 -0.533063
N1    N     N_3   0.370749 0.544520 0.071557 -0.683567
H129  H     H_    0.410379 0.488382 0.055030 0.212534
H130  H     H_    0.368898 0.536601 0.127135 0.253651
N2    N     N_3   0.627022 0.584281 0.912523 -0.661785
H131  H     H_    0.589805 0.519490 0.902013 0.219516
H132  H     H_    0.643633 0.612900 0.862334 0.247619
N3    N     N_3   0.870749 0.044521 0.071557 -0.683566
H133  H     H_    0.910378 0.988378 0.055033 0.212535
H134  H     H_    0.868897 0.036609 0.127136 0.253649
N4    N     N_3   0.127022 0.084281 0.912523 -0.661786
H135  H     H_    0.089805 0.019490 0.902012 0.219516
H136  H     H_    0.143633 0.112901 0.862334 0.247619

loop_
_geom_bond_atom_site_label_1
_geom_bond_atom_site_label_2
_ccdc_geom_bond_type
N4    H136  S    
C82   C94   S    
C55   C59   S    
C35   H125  S    
C10   N2    S    
C21   H5    S    
C47   O31   A    
C42   C58   S    
C29   C89   S    
C16   H120  S    
C89   O37   A    
C48   C120  S    
C24   H8    S    
C57   C102  S    
Cr6   O18   S    
Cr7   O7    S    
C59   C104  S    
Cr1   O17   S    
C5    C6    S    
Cr10  O10   S    
Cr3   O19   S    
Cr4   O4    S    
Cr12  O16   S    
C29   C33   S    
C30   C38   S    
C77   C100  S    
C44   H36   S    
C9    C13   S    
C11   C15   S    
C49   H54   S    
C12   C16   S    
C98   O50   A    
C99   O47   A    
C52   H55   S    
C73   C93   S    
C60   C103  S    
C107  O15   A    
C83   C107  S    
C88   H78   S    
C74   H82   S    
C111  H47   S    
C23   H11   S    
C32   C36   S    
C64   H60   S    
C109  C118  S    
C16   H116  S    
Cr5   O25   S    
C50   C53   S    
C75   C95   S    
C7    C119  S    
Cr8   O28   S    
C62   H58   S    
C62   C66   S    
Cr2   O2    S    
C72   H74   S    
C20   C28   S    
C18   H124  S    
Cr12  O36   S    
N2    H131  S    
C43   C44   S    
C66   C82   S    
C7    H91   S    
C11   C27   S    
C58   C101  S    
C105  O41   A    
C92   O4    A    
C107  O43   A    
C14   H118  S    
C108  O44   A    
C19   H21   S    
C89   O1    A    
C62   H62   S    
Cr5   O49   S    
C17   H23   S    
C32   C40   S    
C91   O3    A    
Cr1   O45   S    
Cr5   O5    S    
Cr2   O42   S    
C3    C26   S    
C84   C88   S    
C95   H99   S    
Cr12  O12   S    
C22   H10   S    
C110  H46   S    
C85   H79   S    
C13   H117  S    
Cr10  O34   S    
C17   C25   S    
C19   C35   S    
C76   C96   S    
C1    O21   A    
C32   C92   S    
C75   H83   S    
C86   H106  S    
C95   H95   S    
C67   H71   S    
C21   H9    S    
C61   C65   S    
C71   H73   S    
C78   C99   S    
C45   O29   A    
C76   H88   S    
C75   C79   S    
Cr5   O29   S    
C6    H90   S    
C22   C38   S    
N3    H134  S    
C67   C83   S    
C80   C97   S    
C68   H72   S    
C11   H111  S    
C69   C77   S    
C111  C112  S    
C9    H109  S    
C52   H40   S    
C71   C79   S    
C4    C25   S    
Cr4   O20   S    
C7    C8    S    
Cr10  O38   S    
C96   H96   S    
C24   H12   S    
C100  O52   A    
N1    H130  S    
C39   H19   S    
C49   C57   S    
C40   H20   S    
Cr9   O37   S    
C69   H101  S    
C38   H14   S    
C51   H56   S    
C52   C60   S    
C19   H121  S    
C61   C77   S    
C12   H112  S    
C71   H103  S    
C47   O35   A    
C110  C114  S    
C48   O36   A    
C43   C59   S    
C112  H48   S    
C90   O38   A    
C74   H86   S    
Cr1   O21   S    
Cr2   O18   S    
C9    N1    S    
Cr4   O24   S    
Cr12  O20   S    
C81   C105  S    
C87   H107  S    
C30   C34   S    
C34   H128  S    
C10   C14   S    
C36   H126  S    
C101  O9    A    
C116  C120  S    
C103  O11   A    
C7    C116  S    
C93   H93   S    
C33   H127  S    
C114  H2    S    
Cr11  O11   S    
C66   H66   S    
C113  C117  S    
C72   H104  S    
C31   C91   S    
Cr6   O26   S    
C74   C78   S    
Cr4   O48   S    
C61   H61   S    
C112  C116  S    
C69   C85   S    
C94   H98   S    
C45   C117  S    
C21   C25   S    
C73   C77   S    
Cr12  O40   S    
C62   C78   S    
C76   C80   S    
C42   H30   S    
C15   C31   S    
C43   H35   S    
C16   C32   S    
C97   O45   A    
C105  O13   A    
C106  O42   A    
C72   C80   S    
C115  H3    S    
C64   H64   S    
C4    O24   A    
C82   C106  S    
C90   O2    A    
C55   H44   S    
Cr6   O50   S    
C66   H70   S    
Cr8   O32   S    
Cr2   O46   S    
Cr6   O6    S    
C113  H1    S    
C46   O34   A    
C61   H57   S    
Cr7   O19   S    
Cr8   O20   S    
C81   C85   S    
C83   C87   S    
C41   H29   S    
C64   C80   S    
C41   C42   S    
C74   C94   S    
Cr9   O13   S    
C18   C26   S    
C30   C90   S    
Cr11  O39   S    
C1    O25   A    
C9    C25   S    
C2    O22   A    
C3    O27   A    
C12   C28   S    
C13   C29   S    
C86   H80   S    
C67   H67   S    
C98   O46   A    
C88   H108  S    
C46   C118  S    
N2    H132  S    
Cr6   O30   S    
C106  O14   A    
C1    C28   S    
C2    C27   S    
Cr10  O14   S    
Cr11  O19   S    
C8    H92   S    
C52   C55   S    
N4    H135  S    
C87   H77   S    
C73   H81   S    
C17   C33   S    
C110  C117  S    
C38   H18   S    
C33   H25   S    
C69   H75   S    
C40   H16   S    
C68   C84   S    
C24   C28   S    
C53   C57   S    
C82   C86   S    
C56   C60   S    
C115  C119  S    
C50   C58   S    
C104  O12   A    
C48   O32   A    
Cr7   O27   S    
C76   H84   S    
C65   C81   S    
C91   O39   A    
Cr8   O8    S    
C50   H38   S    
C20   H122  S    
Cr2   O22   S    
C71   C87   S    
C15   H115  S    
C11   N3    S    
C63   H63   S    
C64   C68   S    
Cr11  O35   S    
C101  O5    A    
C102  O10   A    
C37   H17   S    
C108  O16   A    
C112  C119  S    
C116  H4    S    
C56   H52   S    
C22   H6    S    
C41   C57   S    
C109  C110  S    
C49   H37   S    
N1    H129  S    
Cr5   O17   S    
C44   C60   S    
C63   H59   S    
C84   C108  S    
C85   H105  S    
C94   H94   S    
N3    H133  S    
C20   C36   S    
C109  H45   S    
C21   C37   S    
C22   C26   S    
C29   C37   S    
C55   H51   S    
C44   H32   S    
C12   N4    S    
C42   H34   S    
C43   H31   S    
C5    H89   S    
C97   O49   A    
C5    C114  S    
C70   C78   S    
C79   C98   S    
C99   O51   A    
C10   H110  S    
C63   C79   S    
C4    O28   A    
C20   H22   S    
C92   O40   A    
C54   H41   S    
C23   H7    S    
C75   H87   S    
C84   C96   S    
C70   H76   S    
C49   C54   S    
Cr3   O47   S    
C51   C56   S    
C46   O30   A    
C8    C115  S    
Cr1   O1    S    
Cr3   O3    S    
C41   H33   S    
C54   H50   S    
Cr9   O17   S    
Cr9   O33   S    
C19   C27   S    
C109  C113  S    
C2    O26   A    
C10   C26   S    
C47   C119  S    
C14   C30   S    
C72   C88   S    
C53   H42   S    
C63   C67   S    
C56   H43   S    
Cr7   O31   S    
Cr1   O41   S    
C5    C117  S    
C111  C120  S    
Cr10  O18   S    
Cr3   O43   S    
C6    C113  S    
Cr11  O15   S    
Cr4   O44   S    
C53   H49   S    
C81   C93   S    
C83   C95   S    
C73   H85   S    
C18   C34   S    
C114  C118  S    
C65   H65   S    
C34   H26   S    
C23   C27   S    
C51   C59   S    
C70   C86   S    
C8    C120  S    
C54   C58   S    
C93   H97   S    
C17   H123  S    
C45   O33   A    
C104  O8    A    
C18   H24   S    
Cr7   O51   S    
Cr8   O52   S    
C70   H102  S    
C68   H68   S    
C51   H39   S    
Cr3   O23   S    
C15   H119  S    
C23   C39   S    
C3    O23   A    
C24   C40   S    
C31   C39   S    
C13   H113  S    
C31   C35   S    
C96   H100  S    
C35   H27   S    
Cr9   O9    S    
C36   H28   S    
C103  O7    A    
C100  O48   A    
C65   H69   S    
C102  O6    A    
C39   H15   S    
C111  C115  S    
C37   H13   S    
C50   H53   S    
C6    C118  S    
C14   H114  S    
