data_mof_unit_64225.cif
_audit_creation_date              2012-12-10T17:37:12-0500
_audit_creation_method            fapswitch 2.2
_symmetry_space_group_name_H-M    P1
_symmetry_Int_Tables_number       1
_space_group_crystal_system       triclinic
_cell_length_a                    45.218037
_cell_length_b                    32.01741
_cell_length_c                    31.992612
_cell_angle_alpha                 90.170947
_cell_angle_beta                  134.964281
_cell_angle_gamma                 89.895088
_cell_volume                      32771.8692666

loop_
_atom_site_label
_atom_site_type_symbol
_atom_type_description
_atom_site_fract_x
_atom_site_fract_y
_atom_site_fract_z
_atom_type_partial_charge
C1    C     C_R   0.580243 0.000016 0.580201 0.820961
C2    C     C_3   0.999713 0.208409 0.498838 -0.013372
C3    C     C_R   0.580292 0.500007 0.080364 0.823904
C4    C     C_3   0.996658 0.039515 0.761316 -0.285548
C5    C     C_3   0.035964 0.982199 0.799952 -0.287429
C6    C     C_3   0.498779 0.539612 0.763419 -0.285489
C7    C     C_3   0.535005 0.480306 0.799011 -0.287368
C8    C     C_3   0.465338 0.518271 0.702281 0.410906
C9    C     C_3   0.500541 0.460665 0.736829 0.410597
C10   C     C_3   0.964370 0.016450 0.701338 0.410933
C11   C     C_3   0.002564 0.960779 0.738845 0.410666
C12   C     C_1   0.499772 0.500009 0.624922 -0.138710
C13   C     C_3   0.467052 0.236041 0.446787 0.398601
C14   C     C_1   0.999755 0.000013 0.624905 -0.138836
C15   C     C_1   0.999930 0.999707 0.874893 -0.178572
C16   C     C_1   0.499908 0.499706 0.874869 -0.178578
C17   C     C_3   0.532691 0.519796 0.769287 0.368072
C18   C     C_3   0.031553 0.021517 0.768144 0.368028
C19   C     C_3   0.499439 0.499757 0.708074 0.050427
C20   C     C_3   0.999384 0.999763 0.708021 0.050258
C21   C     C_3   0.999792 0.999345 0.791306 0.005195
C22   C     C_3   0.499771 0.499338 0.791282 0.005118
C23   C     C_3   0.534545 0.236397 0.516364 0.338256
C24   C     C_3   0.476736 0.763701 0.445156 0.397986
C25   C     C_3   0.538898 0.763532 0.533664 0.338353
C26   C     C_3   0.033794 0.736398 0.514236 0.338116
C27   C     C_3   0.038897 0.263532 0.533646 0.338326
C28   C     C_3   0.966452 0.976724 0.730732 -0.327203
C29   C     C_3   0.465302 0.478496 0.729568 -0.327358
C30   C     C_1   0.499590 0.499945 0.662400 0.100571
C31   C     C_1   0.999546 0.999952 0.662358 0.100360
C32   C     C_1   0.999892 0.999468 0.837189 -0.002050
C33   C     C_1   0.499861 0.499465 0.837156 -0.002006
C34   C     C_3   0.008811 0.961145 0.244475 -0.215280
C35   C     C_3   0.966265 0.736045 0.447338 0.398623
C36   C     C_3   0.029964 0.026789 0.265921 -0.214559
C37   C     C_3   0.505774 0.460585 0.241431 -0.215169
C38   C     C_3   0.531917 0.524412 0.267873 -0.214526
C39   C     C_3   0.469566 0.476206 0.233064 0.464139
C40   C     C_3   0.495086 0.538504 0.258884 0.464767
C41   C     C_3   0.971511 0.973943 0.235010 0.464184
C42   C     C_3   0.992158 0.038014 0.255951 0.464777
C43   C     C_1   0.500160 0.499935 0.375057 -0.151649
C44   C     C_1   0.000168 0.999953 0.375065 -0.151684
C45   C     C_1   0.000027 0.000181 0.125242 -0.177717
C46   C     C_3   0.976715 0.263700 0.445152 0.398012
C47   C     C_1   0.500031 0.500184 0.125246 -0.177625
C48   C     C_3   0.537169 0.484949 0.300872 -0.263830
C49   C     C_3   0.038241 0.987855 0.301951 -0.263911
C50   C     C_3   0.500506 0.499859 0.291851 0.075906
C51   C     C_3   0.000541 0.999910 0.291887 0.075961
C52   C     C_3   0.000056 0.000229 0.208791 0.065727
C53   C     C_3   0.500058 0.500234 0.208792 0.065626
C54   C     C_1   0.500060 0.125038 0.500348 -0.144817
C55   C     C_1   0.500010 0.874973 0.499844 -0.143972
C56   C     C_1   0.000079 0.625038 0.500362 -0.144881
C57   C     C_3   0.501202 0.263817 0.460987 -0.354919
C58   C     C_1   0.000009 0.374973 0.499843 -0.143904
C59   C     C_3   0.961931 0.012430 0.198143 -0.348952
C60   C     C_3   0.462983 0.515323 0.199200 -0.349009
C61   C     C_1   0.500296 0.499892 0.337505 0.041020
C62   C     C_1   0.000317 0.999926 0.337527 0.041003
C63   C     C_1   0.000038 0.000238 0.162944 -0.027352
C64   C     C_1   0.500043 0.500244 0.162948 -0.027249
C65   C     C_1   0.499934 0.374971 0.499850 -0.168050
C66   C     C_1   0.499993 0.625042 0.499744 -0.166598
C67   C     C_1   0.999932 0.874970 0.499858 -0.167887
C68   C     C_3   0.515749 0.735803 0.478033 -0.354503
C69   C     C_1   0.999992 0.125042 0.499747 -0.166668
C70   C     C_3   0.498345 0.236885 0.537920 0.337939
C71   C     C_3   0.484293 0.763545 0.519835 0.337448
C72   C     C_3   0.999941 0.736878 0.539546 0.337968
C73   C     C_3   0.984314 0.263548 0.519868 0.337463
C74   C     C_3   0.500195 0.208454 0.500871 -0.001229
C75   C     C_3   0.500096 0.791567 0.499897 -0.000306
C76   C     C_3   0.000228 0.708454 0.500886 -0.001216
C77   C     C_3   0.000096 0.291567 0.499898 -0.000324
C78   C     C_3   0.593804 0.251027 0.537350 0.098877
C79   C     C_3   0.999586 0.763823 0.459360 -0.354796
C80   C     C_3   0.635760 0.233635 0.565235 -0.773225
C81   C     C_3   0.607942 0.748710 0.588480 0.096913
C82   C     C_3   0.652121 0.766140 0.634475 -0.764895
C83   C     C_3   0.091466 0.751036 0.531282 0.099187
C84   C     C_3   0.132830 0.733650 0.556898 -0.773886
C85   C     C_3   0.107941 0.248711 0.588434 0.096931
C86   C     C_3   0.152120 0.266152 0.634373 -0.764853
C87   C     C_3   0.749934 0.969209 0.854987 0.081476
C88   C     C_3   0.731371 0.966457 0.880102 -0.774788
C89   C     C_3   0.249987 0.466173 0.854157 0.081782
C90   C     C_3   0.015725 0.235802 0.478007 -0.354515
C91   C     C_3   0.231475 0.462253 0.879255 -0.775162
C92   C     C_3   0.403574 0.551627 0.656562 0.093836
C93   C     C_3   0.365155 0.572643 0.599808 -0.772893
C94   C     C_3   0.502610 0.390166 0.753050 0.100513
C95   C     C_3   0.502902 0.346831 0.733709 -0.785452
C96   C     C_3   0.900948 0.046484 0.654061 0.093725
C97   C     C_3   0.861390 0.065349 0.596243 -0.772842
C98   C     C_3   0.008397 0.890491 0.758819 0.100020
C99   C     C_3   0.010723 0.847218 0.741513 -0.784847
C100  C     C_3   0.413630 0.433434 0.161983 0.075132
C101  C     C_1   0.500113 0.162670 0.500642 0.116343
C102  C     C_3   0.379737 0.406021 0.147007 -0.761838
C103  C     C_3   0.485403 0.608292 0.234752 0.075096
C104  C     C_3   0.480249 0.651419 0.248989 -0.760890
C105  C     C_3   0.919044 0.926981 0.167421 0.074944
C106  C     C_3   0.887391 0.897034 0.154704 -0.761929
C107  C     C_3   0.977133 0.106839 0.226456 0.074951
C108  C     C_3   0.968715 0.149455 0.237414 -0.760288
C109  C     C_3   0.489741 0.252915 0.599072 0.100132
C110  C     C_3   0.495884 0.236602 0.649373 -0.772001
C111  C     C_3   0.451062 0.748593 0.548721 0.098706
C112  C     C_R   0.080243 0.500014 0.580203 0.820985
C113  C     C_1   0.500033 0.837345 0.499825 0.117258
C114  C     C_3   0.440349 0.765863 0.581028 -0.766739
C115  C     C_3   0.994149 0.752877 0.603807 0.100049
C116  C     C_3   0.002024 0.736528 0.655550 -0.771500
C117  C     C_3   0.951099 0.248612 0.548790 0.098734
C118  C     C_3   0.940396 0.265892 0.581108 -0.766355
C119  C     C_3   0.749355 0.028123 0.643106 0.097426
C120  C     C_3   0.768806 0.039127 0.620600 -0.785490
C121  C     C_3   0.249273 0.531159 0.643946 0.096833
C122  C     C_3   0.268678 0.543312 0.621697 -0.784115
C123  C     C_1   0.000142 0.662670 0.500659 0.116316
C124  C     C_1   0.000033 0.337345 0.499824 0.117300
C125  C     C_1   0.499798 0.337348 0.499628 0.050722
C126  C     C_1   0.499910 0.662668 0.499376 0.052148
C127  C     C_1   0.999792 0.837347 0.499639 0.050840
C128  C     C_1   0.999909 0.162669 0.499382 0.052123
C129  C     C_3   0.763404 0.962220 0.772891 0.254557
C130  C     C_3   0.763429 0.027887 0.790513 0.264261
C131  C     C_3   0.263411 0.461941 0.771863 0.254472
C132  C     C_3   0.464118 0.264313 0.483050 -0.355488
C133  C     C_3   0.263434 0.527083 0.791349 0.264308
C134  C     C_3   0.735844 0.971512 0.706787 -0.344263
C135  C     C_3   0.735900 0.039009 0.724957 -0.340616
C136  C     C_3   0.235835 0.472328 0.706037 -0.344291
C137  C     C_3   0.235889 0.539284 0.726124 -0.340614
C138  C     C_1   0.625042 0.000081 0.624830 -0.161924
C139  C     C_1   0.125040 0.500075 0.624846 -0.161999
C140  C     C_1   0.874980 0.999971 0.874960 -0.152132
C141  C     C_1   0.374980 0.499969 0.874968 -0.152128
C142  C     C_R   0.500011 0.080244 0.500083 0.816495
C143  C     C_3   0.459810 0.735827 0.463863 -0.355880
C144  C     C_R   0.499996 0.919760 0.499945 0.817436
C145  C     C_R   0.000016 0.580244 0.500088 0.816462
C146  C     C_R   0.999996 0.419760 0.499945 0.817516
C147  C     C_3   0.735899 0.990006 0.773330 0.388248
C148  C     C_3   0.235911 0.488916 0.773099 0.388285
C149  C     C_3   0.708447 0.000203 0.707670 -0.039674
C150  C     C_3   0.208445 0.500198 0.707742 -0.039652
C151  C     C_3   0.791583 0.999960 0.791319 0.026813
C152  C     C_3   0.291582 0.499950 0.791351 0.026730
C153  C     C_3   0.763784 0.010043 0.725648 0.440464
C154  C     C_3   0.964907 0.764310 0.485267 -0.355390
C155  C     C_3   0.263765 0.511108 0.725980 0.440612
C156  C     C_1   0.662685 0.000143 0.662212 0.056745
C157  C     C_1   0.162683 0.500136 0.662258 0.056630
C158  C     C_1   0.837348 0.999957 0.837234 0.114602
C159  C     C_1   0.337347 0.499951 0.837252 0.114554
C160  C     C_3   0.236025 0.034055 0.256451 -0.155217
C161  C     C_3   0.235992 0.965535 0.255433 -0.155995
C162  C     C_3   0.736028 0.535104 0.254568 -0.155087
C163  C     C_3   0.735990 0.466644 0.257289 -0.156068
C164  C     C_3   0.263981 0.034502 0.244825 -0.151036
C165  C     C_3   0.959811 0.235829 0.463891 -0.355932
C166  C     C_3   0.263948 0.965982 0.243807 -0.152612
C167  C     C_3   0.763984 0.533391 0.242970 -0.150987
C168  C     C_3   0.763946 0.464932 0.245691 -0.152586
C169  C     C_1   0.374757 0.000003 0.374870 -0.158767
C170  C     C_1   0.874756 0.500003 0.374870 -0.158705
C171  C     C_1   0.125217 0.000021 0.125310 -0.169767
C172  C     C_1   0.625217 0.500021 0.125310 -0.169748
C173  C     C_R   0.419682 0.999999 0.419722 0.827324
C174  C     C_R   0.919682 0.499999 0.419722 0.827375
C175  C     C_3   0.263881 0.999566 0.303615 -0.155979
C176  C     C_3   0.499534 0.291617 0.499311 -0.013431
C177  C     C_3   0.763881 0.501726 0.303588 -0.155957
C178  C     C_3   0.291144 0.000013 0.291296 0.182020
C179  C     C_3   0.791144 0.500013 0.291297 0.181988
C180  C     C_3   0.208830 0.000023 0.208962 0.182380
C181  C     C_3   0.708830 0.500023 0.208962 0.182319
C182  C     C_3   0.236094 0.000470 0.196644 -0.154715
C183  C     C_3   0.736094 0.498310 0.196672 -0.154722
C184  C     C_1   0.337035 0.000007 0.337180 -0.060452
C185  C     C_1   0.837035 0.500007 0.337181 -0.060369
C186  C     C_1   0.162939 0.000025 0.163051 -0.066940
C187  C     C_3   0.499714 0.708407 0.498832 -0.013371
C188  C     C_1   0.662939 0.500025 0.163051 -0.066901
C189  C     C_R   0.499926 0.500027 0.580249 0.822112
C190  C     C_R   0.999924 0.000028 0.580247 0.821997
C191  C     C_R   0.499981 0.419749 0.499995 0.820539
C192  C     C_R   0.499996 0.580256 0.500007 0.823891
C193  C     C_R   0.999980 0.919749 0.499996 0.820604
C194  C     C_R   0.999996 0.080256 0.500008 0.823799
C195  C     C_R   0.500052 0.499982 0.419820 0.817737
C196  C     C_R   0.000053 0.999985 0.419821 0.817867
C197  C     C_R   0.000023 0.000056 0.080362 0.823752
C198  C     C_3   0.999526 0.791616 0.499330 -0.013461
C199  C     C_R   0.500025 0.500057 0.080364 0.823733
C200  C     C_3   0.532977 0.264201 0.553867 0.291928
C201  C     C_3   0.523290 0.736130 0.554063 0.291913
C202  C     C_3   0.033795 0.764195 0.553344 0.291844
C203  C     C_3   0.023309 0.236134 0.554076 0.291970
C204  C     C_R   0.919762 0.999992 0.919813 0.818859
C205  C     C_R   0.419762 0.499992 0.919814 0.818867
C206  C     C_R   0.999959 0.999929 0.919756 0.823886
C207  C     C_R   0.499951 0.499929 0.919748 0.823897
C208  C     C_R   0.080291 0.000007 0.080363 0.823908
Cu1   Cu    Cu3+1 0.500020 0.000000 0.541470 0.992313
Cu2   Cu    Cu3+1 0.999990 0.041450 0.000050 0.973187
Cu3   Cu    Cu3+1 0.499990 0.458550 0.000050 0.970708
Cu4   Cu    Cu3+1 0.499990 0.541450 0.000050 0.972991
Cu5   Cu    Cu3+1 0.000020 0.500000 0.541470 0.992298
Cu6   Cu    Cu3+1 0.499960 0.000000 0.458530 0.985724
Cu7   Cu    Cu3+1 0.999960 0.500000 0.458530 0.985669
Cu8   Cu    Cu3+1 0.541430 0.500000 0.541530 0.989978
Cu9   Cu    Cu3+1 0.041430 0.000000 0.541530 0.989889
Cu10  Cu    Cu3+1 0.458550 0.500000 0.458570 0.982580
Cu11  Cu    Cu3+1 0.958550 0.000000 0.458570 0.982651
Cu12  Cu    Cu3+1 0.999990 0.958550 0.000050 0.970445
H1    H     H_    0.275952 0.062880 0.240916 0.140442
H2    H     H_    0.724207 0.496905 0.152227 0.136753
H3    H     H_    0.452100 0.652072 0.241189 0.252145
H4    H     H_    0.940137 0.908701 0.167672 0.138930
H5    H     H_    0.901685 0.950469 0.131271 0.143161
H6    H     H_    0.865436 0.914372 0.153373 0.252138
H7    H     H_    0.869294 0.881516 0.111352 0.197017
H8    H     H_    0.903731 0.872796 0.189655 0.250429
H9    H     H_    0.949472 0.097971 0.179647 0.146061
H10   H     H_    0.005100 0.109579 0.233875 0.138694
H11   H     H_    0.995989 0.159525 0.283663 0.248838
H12   H     H_    0.963230 0.172780 0.206907 0.199163
H13   H     H_    0.275768 0.999193 0.348084 0.136939
H14   H     H_    0.940610 0.147970 0.229671 0.252128
H15   H     H_    0.582983 0.254725 0.635302 0.342639
H16   H     H_    0.558571 0.746059 0.636668 0.343409
H17   H     H_    0.085032 0.754710 0.633966 0.342565
H18   H     H_    0.058628 0.246063 0.636696 0.343438
H19   H     H_    0.416950 0.244881 0.365224 0.328163
H20   H     H_    0.441441 0.754434 0.362418 0.328221
H21   H     H_    0.914931 0.744893 0.366591 0.328164
H22   H     H_    0.941367 0.254430 0.362396 0.328207
H23   H     H_    0.456755 0.263424 0.562958 0.141744
H24   H     H_    0.775767 0.503130 0.348033 0.136983
H25   H     H_    0.511053 0.280069 0.615959 0.178996
H26   H     H_    0.528719 0.226222 0.686483 0.254295
H27   H     H_    0.488931 0.261737 0.665392 0.197775
H28   H     H_    0.474567 0.209848 0.633863 0.253621
H29   H     H_    0.472675 0.721669 0.574530 0.179548
H30   H     H_    0.421639 0.737582 0.504387 0.140879
H31   H     H_    0.418246 0.792431 0.555968 0.251622
H32   H     H_    0.425551 0.741094 0.585456 0.197944
H33   H     H_    0.469202 0.776797 0.625795 0.254433
H34   H     H_    0.961070 0.763416 0.568917 0.141734
H35   H     H_    0.994698 0.072063 0.771242 0.151894
H36   H     H_    0.015290 0.780016 0.619699 0.179030
H37   H     H_    0.034995 0.726111 0.691483 0.254319
H38   H     H_    0.996013 0.761653 0.672785 0.197494
H39   H     H_    0.980927 0.709793 0.641085 0.253572
H40   H     H_    0.972707 0.221685 0.574597 0.179611
H41   H     H_    0.921669 0.237607 0.504456 0.140873
H42   H     H_    0.918297 0.292464 0.556052 0.251566
H43   H     H_    0.925593 0.241131 0.585538 0.198133
H44   H     H_    0.969253 0.276819 0.625876 0.254436
H45   H     H_    0.753502 0.904766 0.776234 0.334006
H46   H     H_    0.065691 0.968463 0.841032 0.149965
H47   H     H_    0.753379 0.069431 0.822484 0.340129
H48   H     H_    0.253523 0.404120 0.773552 0.333960
H49   H     H_    0.253397 0.567412 0.824507 0.340153
H50   H     H_    0.729589 0.054879 0.633573 0.142429
H51   H     H_    0.729417 0.999958 0.618736 0.142184
H52   H     H_    0.788419 0.012822 0.628824 0.249470
H53   H     H_    0.743816 0.045316 0.572384 0.198722
H54   H     H_    0.788567 0.067487 0.643551 0.249671
H55   H     H_    0.229558 0.557646 0.635242 0.142539
H56   H     H_    0.229287 0.503156 0.618765 0.142178
H57   H     H_    0.498528 0.572221 0.775046 0.151940
H58   H     H_    0.288236 0.517308 0.629100 0.249375
H59   H     H_    0.243662 0.550189 0.573678 0.198558
H60   H     H_    0.288483 0.571546 0.645461 0.249836
H61   H     H_    0.563959 0.465026 0.839336 0.150116
H62   H     H_    0.939628 0.958162 0.715693 0.145040
H63   H     H_    0.437526 0.461381 0.713571 0.145048
H64   H     H_    0.015503 0.929322 0.239040 0.141486
H65   H     H_    0.275891 0.937972 0.239060 0.139266
H66   H     H_    0.053996 0.048783 0.278065 0.140441
H67   H     H_    0.509997 0.428343 0.233525 0.141702
H68   H     H_    0.557573 0.544498 0.281643 0.140281
H69   H     H_    0.930813 0.022460 0.155506 0.138869
H70   H     H_    0.432733 0.527719 0.157435 0.139268
H71   H     H_    0.567342 0.472603 0.342819 0.165047
H72   H     H_    0.069277 0.977866 0.344767 0.165131
H73   H     H_    0.501430 0.275034 0.428423 0.159730
H74   H     H_    0.527798 0.724243 0.459627 0.160362
H75   H     H_    0.998496 0.775047 0.425497 0.159840
H76   H     H_    0.775957 0.560855 0.237533 0.140492
H77   H     H_    0.027754 0.224243 0.459574 0.160317
H78   H     H_    0.434738 0.275928 0.468055 0.160770
H79   H     H_    0.427221 0.724286 0.434147 0.160734
H80   H     H_    0.936126 0.775925 0.472043 0.160781
H81   H     H_    0.927221 0.224290 0.434190 0.160727
H82   H     H_    0.724244 0.948267 0.672149 0.165592
H83   H     H_    0.724377 0.070610 0.705147 0.166697
H84   H     H_    0.224229 0.449746 0.670746 0.165621
H85   H     H_    0.224359 0.571112 0.707226 0.166746
H86   H     H_    0.599823 0.278174 0.564369 0.178360
H87   H     H_    0.775887 0.436058 0.242493 0.139255
H88   H     H_    0.576558 0.261725 0.491922 0.141003
H89   H     H_    0.630931 0.206835 0.538817 0.251226
H90   H     H_    0.653781 0.258239 0.566749 0.198336
H91   H     H_    0.653955 0.222999 0.610961 0.253665
H92   H     H_    0.601992 0.737592 0.550097 0.141638
H93   H     H_    0.606019 0.721849 0.608518 0.179437
H94   H     H_    0.659195 0.777189 0.673716 0.254094
H95   H     H_    0.674873 0.741430 0.648459 0.199349
H96   H     H_    0.655353 0.792662 0.615634 0.251765
H97   H     H_    0.098320 0.778182 0.558878 0.178255
H98   H     H_    0.224082 0.062064 0.261199 0.136746
H99   H     H_    0.073097 0.761734 0.485451 0.141094
H100  H     H_    0.127142 0.706853 0.529830 0.251328
H101  H     H_    0.150169 0.758257 0.557025 0.198277
H102  H     H_    0.152122 0.723012 0.602964 0.253445
H103  H     H_    0.101961 0.237560 0.550039 0.141619
H104  H     H_    0.106046 0.221870 0.608527 0.179424
H105  H     H_    0.159227 0.277228 0.673627 0.254089
H106  H     H_    0.174869 0.241441 0.648351 0.199309
H107  H     H_    0.155322 0.292656 0.615477 0.251830
H108  H     H_    0.775638 0.992633 0.881480 0.175706
H109  H     H_    0.224022 0.937157 0.259344 0.136282
H110  H     H_    0.762972 0.938096 0.859796 0.180123
H111  H     H_    0.706043 0.942730 0.855414 0.256399
H112  H     H_    0.755995 0.957314 0.927355 0.198397
H113  H     H_    0.718372 0.997245 0.876525 0.255268
H114  H     H_    0.275736 0.489520 0.881308 0.175537
H115  H     H_    0.262957 0.435272 0.858027 0.180136
H116  H     H_    0.206108 0.438558 0.853911 0.256494
H117  H     H_    0.256114 0.452450 0.926229 0.198063
H118  H     H_    0.218540 0.492794 0.876604 0.255253
H119  H     H_    0.420022 0.574804 0.693123 0.142590
H120  H     H_    0.724087 0.563978 0.257766 0.136910
H121  H     H_    0.392873 0.524904 0.665317 0.143279
H122  H     H_    0.347705 0.550183 0.562414 0.251996
H123  H     H_    0.344342 0.583547 0.604602 0.196961
H124  H     H_    0.374650 0.599915 0.590124 0.250515
H125  H     H_    0.474586 0.392605 0.745547 0.141774
H126  H     H_    0.531406 0.393622 0.801043 0.142235
H127  H     H_    0.530813 0.343111 0.741267 0.255357
H128  H     H_    0.503833 0.322732 0.759512 0.198406
H129  H     H_    0.474268 0.342175 0.686018 0.246926
H130  H     H_    0.916152 0.070542 0.689324 0.142672
H131  H     H_    0.724017 0.439181 0.262727 0.136214
H132  H     H_    0.891763 0.019239 0.664379 0.143300
H133  H     H_    0.845154 0.041951 0.560114 0.252067
H134  H     H_    0.840067 0.075112 0.600567 0.197078
H135  H     H_    0.869331 0.093086 0.584970 0.250743
H136  H     H_    0.980406 0.891539 0.751510 0.141644
H137  H     H_    0.037098 0.895385 0.806551 0.142250
H138  H     H_    0.038669 0.844876 0.748953 0.255561
H139  H     H_    0.012987 0.823204 0.768645 0.198308
H140  H     H_    0.982245 0.841149 0.694138 0.246514
H141  H     H_    0.583195 0.550505 0.829355 0.328257
H142  H     H_    0.224207 0.000843 0.152176 0.136719
H143  H     H_    0.080362 0.054858 0.826505 0.328336
H144  H     H_    0.433249 0.413582 0.160757 0.138884
H145  H     H_    0.398154 0.458202 0.127719 0.143240
H146  H     H_    0.359185 0.424997 0.147085 0.252212
H147  H     H_    0.360497 0.391969 0.102502 0.196350
H148  H     H_    0.394134 0.380576 0.180006 0.250716
H149  H     H_    0.457160 0.601570 0.187343 0.146046
H150  H     H_    0.513513 0.608901 0.242330 0.138548
H151  H     H_    0.508198 0.659374 0.295929 0.248690
H152  H     H_    0.476576 0.675109 0.220303 0.199027
O1    O     O_R   0.560480 0.000000 0.595480 -0.569596
O2    O     O_R   0.965020 0.000000 0.404580 -0.572604
O3    O     O_R   0.000030 0.965010 0.060550 -0.580194
O4    O     O_R   0.000030 0.034990 0.060550 -0.580211
O5    O     O_R   0.500030 0.465010 0.060550 -0.580052
O6    O     O_R   0.500030 0.534990 0.060550 -0.580288
O7    O     O_R   0.939530 0.965000 0.939580 -0.574878
O8    O     O_R   0.939530 0.035000 0.939580 -0.573815
O9    O     O_R   0.439530 0.465000 0.939580 -0.574920
O10   O     O_R   0.439530 0.535000 0.939580 -0.573807
O11   O     O_R   0.999960 0.964990 0.939550 -0.580817
O12   O     O_R   0.060480 0.500000 0.595480 -0.569674
O13   O     O_R   0.999960 0.035010 0.939550 -0.578509
O14   O     O_R   0.499960 0.464990 0.939550 -0.580733
O15   O     O_R   0.499960 0.535010 0.939550 -0.578615
O16   O     O_R   0.060450 0.965000 0.060520 -0.581080
O17   O     O_R   0.060450 0.035000 0.060520 -0.580487
O18   O     O_R   0.560450 0.465000 0.060520 -0.580966
O19   O     O_R   0.560450 0.535000 0.060520 -0.580576
O20   O     O_R   0.560430 0.000000 0.525440 -0.584434
O21   O     O_R   0.060430 0.500000 0.525440 -0.584382
O22   O     O_R   0.500020 0.060460 0.535020 -0.575523
O23   O     O_R   0.465000 0.439530 0.465010 -0.581336
O24   O     O_R   0.500020 0.939540 0.535020 -0.574889
O25   O     O_R   0.000020 0.560460 0.535020 -0.575527
O26   O     O_R   0.000020 0.439540 0.535020 -0.574850
O27   O     O_R   0.499970 0.060450 0.464980 -0.575325
O28   O     O_R   0.499970 0.939550 0.464980 -0.574790
O29   O     O_R   0.999970 0.560450 0.464980 -0.575419
O30   O     O_R   0.999970 0.439550 0.464980 -0.574769
O31   O     O_R   0.439560 0.000000 0.474560 -0.580320
O32   O     O_R   0.939560 0.500000 0.474560 -0.580303
O33   O     O_R   0.439510 0.000000 0.404520 -0.576932
O34   O     O_R   0.465000 0.560470 0.465010 -0.581103
O35   O     O_R   0.939510 0.500000 0.404520 -0.576966
O36   O     O_R   0.534970 0.500000 0.595520 -0.569050
O37   O     O_R   0.034970 0.000000 0.595520 -0.569163
O38   O     O_R   0.464980 0.500000 0.525470 -0.578184
O39   O     O_R   0.964980 0.000000 0.525470 -0.578138
O40   O     O_R   0.534980 0.439530 0.535070 -0.573970
O41   O     O_R   0.534980 0.560470 0.535070 -0.574722
O42   O     O_R   0.034980 0.939530 0.535070 -0.573708
O43   O     O_R   0.034980 0.060470 0.535070 -0.574813
O44   O     O_3   0.571221 0.219359 0.535394 -0.566773
O45   O     O_R   0.965000 0.939530 0.465010 -0.581342
O46   O     O_3   0.579454 0.780514 0.570916 -0.566527
O47   O     O_3   0.069735 0.719365 0.531067 -0.566768
O48   O     O_3   0.079452 0.280515 0.570871 -0.566454
O49   O     O_3   0.718190 0.980453 0.794874 -0.571232
O50   O     O_3   0.218228 0.478249 0.794391 -0.571219
O51   O     O_3   0.429636 0.537845 0.649779 -0.564985
O52   O     O_3   0.501433 0.420325 0.719882 -0.565932
O53   O     O_3   0.927656 0.034117 0.647879 -0.564893
O54   O     O_3   0.005547 0.920543 0.723983 -0.565959
O55   O     O_3   0.567502 0.541162 0.788628 -0.701899
O56   O     O_R   0.965000 0.060470 0.465010 -0.581075
O57   O     O_3   0.065178 0.044691 0.786292 -0.701984
O58   O     O_3   0.437750 0.451063 0.218541 -0.570916
O59   O     O_3   0.489990 0.578602 0.271476 -0.573000
O60   O     O_3   0.941732 0.946439 0.222538 -0.571261
O61   O     O_3   0.983996 0.077605 0.265467 -0.572982
O62   O     O_3   0.567649 0.279723 0.610143 -0.728761
O63   O     O_3   0.547765 0.720920 0.611303 -0.727222
O64   O     O_3   0.069308 0.779710 0.609054 -0.728818
O65   O     O_3   0.047803 0.220926 0.611323 -0.727066
O66   O     O_3   0.432540 0.220087 0.390758 -0.703829
O67   O     O_R   0.535000 0.500000 0.474630 -0.584817
O68   O     O_3   0.452377 0.779362 0.388181 -0.702649
O69   O     O_3   0.930916 0.720097 0.391873 -0.703961
O70   O     O_3   0.952335 0.279358 0.388168 -0.702669
O71   O     O_3   0.498361 0.220607 0.578873 -0.564172
O72   O     O_3   0.469541 0.780460 0.543098 -0.565076
O73   O     O_3   0.001599 0.720582 0.582100 -0.564193
O74   O     O_3   0.969584 0.280469 0.543161 -0.565084
O75   O     O_3   0.778616 0.922664 0.798435 -0.725364
O76   O     O_3   0.778568 0.056892 0.834661 -0.720217
O77   O     O_3   0.278632 0.422104 0.796271 -0.725323
O78   O     O_R   0.035000 0.000000 0.474630 -0.584999
O79   O     O_3   0.278581 0.555252 0.836314 -0.720252
O80   O     O_3   0.781478 0.020361 0.704307 -0.562684
O81   O     O_3   0.281423 0.522537 0.704901 -0.562624
O82   O     O_R   0.465020 0.500000 0.404580 -0.572647

loop_
_geom_bond_atom_site_label_1
_geom_bond_atom_site_label_2
_ccdc_geom_bond_type
C133  C137  S    
C8    O51   S    
C34   H64   S    
C36   C42   S    
C35   C154  S    
C36   H66   S    
C133  O79   S    
C103  O59   S    
C202  O64   S    
C15   C32   T    
Cu7   O35   S    
C28   H62   S    
Cu8   O36   S    
C89   H115  S    
Cu7   O21   S    
C126  C187  S    
C22   C29   S    
C96   O53   S    
C53   C64   S    
C199  O5    A    
C102  H146  S    
C10   C28   S    
C27   C90   S    
C2    C90   S    
C162  C177  S    
C79   H75   S    
C9    C19   S    
C68   C187  S    
C10   C20   S    
C49   C51   S    
C70   C74   S    
C145  O29   A    
C133  C152  S    
C104  H3    S    
Cu9   O37   S    
Cu2   O4    S    
C4    C18   S    
C48   C50   S    
Cu2   O13   S    
C92   O51   S    
C129  O75   S    
Cu12  O3    S    
C180  C182  S    
C3    O19   A    
Cu5   Cu7   S    
C11   C20   S    
C44   C196  S    
C72   C154  S    
C98   O54   S    
C56   C123  T    
C11   O54   S    
C47   C64   T    
C92   C93   S    
C5    C18   S    
H143  O57   S    
C83   H97   S    
C80   H90   S    
C87   H110  S    
Cu4   O19   S    
C120  H54   S    
C2    C165  S    
C74   C101  S    
C208  O16   A    
Cu2   O8    S    
C103  H149  S    
C21   C28   S    
C107  H9    S    
Cu4   O10   S    
C164  C178  S    
C42   O61   S    
C7    C22   S    
C127  C198  S    
C43   C61   T    
Cu8   O67   S    
C71   C143  S    
C119  O80   S    
C170  C174  S    
Cu12  O7    S    
C194  O43   A    
C70   C200  S    
C147  C149  S    
C26   C79   S    
C166  H65   S    
C52   C63   S    
C122  H60   S    
C46   C77   S    
C84   H100  S    
C59   H69   S    
C105  H4    S    
C119  H51   S    
C120  H52   S    
C180  C186  S    
C44   C62   T    
C99   H140  S    
Cu11  O2    S    
C163  C168  S    
H20   O68   S    
C48   H71   S    
C173  O31   A    
C88   H112  S    
C37   C48   S    
C38   C53   S    
C183  H2    S    
C114  H31   S    
C170  C185  T    
C161  H109  S    
C13   C132  S    
C151  C153  S    
Cu9   O43   S    
C129  C147  S    
C15   C206  S    
C55   C113  T    
C5    C21   S    
C139  C157  T    
C98   C99   S    
C77   C124  S    
C73   C77   S    
C106  H7    S    
C135  C149  S    
Cu3   O18   S    
C109  C110  S    
C19   C30   S    
C41   C51   S    
C174  O32   A    
C116  H37   S    
C142  O22   A    
Cu1   O31   S    
C110  H27   S    
C95   H127  S    
C40   C60   S    
C150  C157  S    
C27   O48   S    
Cu10  O38   S    
C104  H151  S    
C54   C101  T    
C166  C182  S    
C25   O46   S    
C35   O69   S    
C37   H67   S    
C38   H68   S    
C85   H104  S    
C131  O77   S    
C85   C86   S    
C73   C203  S    
C132  H78   S    
C70   O71   S    
C27   C203  S    
C8    C29   S    
Cu8   Cu10  S    
C98   H136  S    
C140  C204  S    
Cu1   O22   S    
C154  C198  S    
C78   H88   S    
C134  C153  S    
C13   C57   S    
C39   C60   S    
C24   C143  S    
C45   C197  S    
C115  C116  S    
C146  O26   A    
C137  C155  S    
C43   C195  S    
Cu6   O33   S    
C56   C145  S    
C83   O47   S    
C160  C180  S    
Cu5   O12   S    
C81   H92   S    
C140  C158  T    
C207  O14   A    
C112  O21   A    
C141  C159  T    
C118  H43   S    
C65   C191  S    
C69   C128  T    
C7    C17   S    
C66   C192  S    
C198  C202  S    
C97   H133  S    
C107  C108  S    
C17   O55   S    
C75   C113  S    
C105  H5    S    
C89   C91   S    
C98   H137  S    
C82   H95   S    
C38   C48   S    
C7    H61   S    
C88   H113  S    
C37   C53   S    
C152  C159  S    
C109  H25   S    
C79   C198  S    
C47   C199  S    
C51   C62   S    
C86   H106  S    
C122  H58   S    
Cu6   O20   S    
C53   C60   S    
C94   H125  S    
C108  H14   S    
C35   C76   S    
C112  O12   A    
C8    C19   S    
C117  O74   S    
C115  H36   S    
C203  O65   S    
C18   O57   S    
C99   H138  S    
H16   O63   S    
C162  C181  S    
C73   C165  S    
C131  C136  S    
C136  C155  S    
C142  O27   A    
C196  O2    A    
C134  C149  S    
C191  O23   A    
C23   C200  S    
C66   C126  T    
C146  O30   A    
Cu5   O26   S    
C169  C184  T    
C24   O68   S    
Cu4   O15   S    
C83   C84   S    
C71   O72   S    
C168  C183  S    
Cu2   O17   S    
C70   C132  S    
C116  H39   S    
C162  H120  S    
C173  O33   A    
C189  O36   A    
C137  C150  S    
Cu9   O78   S    
C23   C74   S    
C204  O8    A    
C26   O47   S    
C103  C104  S    
C137  H85   S    
C72   C202  S    
C108  H12   S    
C167  H76   S    
C23   C57   S    
C6    C17   S    
Cu11  O45   S    
C34   C49   S    
H141  O55   S    
C130  C147  S    
C2    C203  S    
C42   C59   S    
Cu1   O24   S    
Cu7   O30   S    
C1    O20   A    
C89   H114  S    
Cu5   O32   S    
C200  O62   S    
C84   H101  S    
Cu10  O23   S    
C121  H56   S    
C117  H41   S    
C100  H145  S    
C117  C118  S    
C102  H147  S    
Cu11  O56   S    
C194  O56   A    
C160  C175  S    
C206  O13   A    
C130  O76   S    
C96   H130  S    
C141  C205  S    
C14   C190  S    
Cu12  O11   S    
C190  O39   A    
C50   C61   S    
C169  C173  S    
C49   H72   S    
C125  C176  S    
C60   H70   S    
C87   C88   S    
C163  H131  S    
C168  H87   S    
C197  O4    A    
C130  C135  S    
C16   C207  S    
C23   O44   S    
C174  O35   A    
C143  H79   S    
C111  H30   S    
C12   C189  S    
C34   C41   S    
C121  O81   S    
C91   H118  S    
C160  C164  S    
C78   O44   S    
C46   C165  S    
Cu6   O27   S    
C5    C11   S    
C3    C172  S    
C163  C181  S    
C138  C156  T    
C6    C22   S    
C72   O73   S    
Cu3   O14   S    
C71   C201  S    
H47   O76   S    
C132  C176  S    
C119  H50   S    
C92   H119  S    
C164  H1    S    
H19   O66   S    
C205  O10   A    
C192  O34   A    
C163  C177  S    
C40   O59   S    
Cu11  O39   S    
C166  C178  S    
C14   C31   T    
C207  O15   A    
C181  C183  S    
C5    H46   S    
C131  C152  S    
C25   C68   S    
C176  C200  S    
C181  C188  S    
C175  C178  S    
H15   O62   S    
C89   O50   S    
C160  H98   S    
C161  C180  S    
C13   O66   S    
C117  H40   S    
C6    C8    S    
C25   C75   S    
C99   H139  S    
C151  C158  S    
Cu10  O82   S    
Cu3   Cu4   S    
C152  C155  S    
C114  H32   S    
C109  O71   S    
C10   O53   S    
C111  O72   S    
Cu3   O9    S    
C81   H93   S    
C54   C142  S    
C100  C102  S    
C167  C179  S    
C106  H8    S    
C111  H29   S    
C201  O63   S    
C116  H38   S    
C110  H28   S    
C85   O48   S    
C114  H33   S    
C147  O49   S    
C171  C186  T    
C12   C30   T    
C104  H152  S    
C149  C156  S    
C148  C150  S    
C105  O60   S    
C135  H83   S    
C119  C120  S    
C136  H84   S    
C24   C75   S    
C46   C90   S    
C168  C179  S    
C105  C106  S    
C187  C201  S    
C34   C52   S    
Cu1   Cu6   S    
Cu10  O34   S    
C195  O82   A    
C92   H121  S    
C37   C39   S    
C80   H89   S    
C38   C40   S    
C95   H129  S    
C115  H34   S    
C11   C28   S    
C39   O58   S    
C40   C50   S    
Cu8   O40   S    
C69   C194  S    
Cu12  O16   S    
C191  O40   A    
C91   H116  S    
C111  C114  S    
C78   C80   S    
C94   C95   S    
C100  H144  S    
C164  C182  S    
C24   C68   S    
H21   O69   S    
C103  H150  S    
C118  H44   S    
C13   C74   S    
C107  H10   S    
C94   O52   S    
C130  C151  S    
C96   H132  S    
C93   H122  S    
H45   O75   S    
C6    H57   S    
Cu3   O5    S    
C36   C49   S    
H18   O65   S    
C2    C128  S    
C192  O41   A    
H48   O77   S    
C86   H107  S    
C72   C76   S    
C122  H59   S    
C81   C82   S    
C120  H53   S    
C1    O1    A    
C46   O70   S    
C144  O24   A    
C26   C202  S    
C41   O60   S    
C82   H94   S    
C88   H111  S    
C100  O58   S    
C161  C175  S    
C109  H23   S    
Cu5   O25   S    
Cu2   Cu12  S    
C35   C79   S    
C97   H135  S    
C9    O52   S    
C85   H103  S    
C82   H96   S    
C68   H74   S    
C26   C76   S    
C190  O37   A    
C199  O6    A    
C161  C166  S    
C9    C29   S    
C42   C51   S    
C3    O18   A    
C110  H26   S    
C95   H128  S    
Cu8   O41   S    
C112  C139  S    
C87   O49   S    
C153  O80   S    
C195  O67   A    
C21   C32   S    
C167  C183  S    
C208  O17   A    
Cu4   O6    S    
C115  O73   S    
Cu1   O1    S    
C41   C59   S    
C80   H91   S    
Cu7   O29   S    
C175  H13   S    
C78   H86   S    
C165  H81   S    
C45   C63   T    
C84   H102  S    
C193  O42   A    
C65   C125  T    
C121  H55   S    
C129  C151  S    
C52   C59   S    
C67   C127  T    
C16   C33   T    
C57   C176  S    
C148  O50   S    
C81   O46   S    
C102  H148  S    
H22   O70   S    
C29   H63   S    
C96   C97   S    
C39   C50   S    
C106  H6    S    
C97   H134  S    
C121  C122  S    
C131  C148  S    
C133  C148  S    
C93   H124  S    
H17   O64   S    
C87   H108  S    
C206  O11   A    
C90   H77   S    
C93   H123  S    
C86   H105  S    
C4    C10   S    
C193  O45   A    
C7    C9    S    
C22   C33   S    
C196  O78   A    
C55   C144  S    
C76   C123  S    
C143  C187  S    
C197  O3    A    
C27   C77   S    
C36   C52   S    
C136  C150  S    
C58   C146  S    
C144  O28   A    
Cu9   Cu11  S    
C58   C124  T    
C73   O74   S    
C135  C153  S    
C91   H117  S    
C189  O38   A    
C182  H142  S    
Cu6   O28   S    
Cu9   O42   S    
C107  O61   S    
C71   C75   S    
C4    C21   S    
C25   C201  S    
C118  H42   S    
C172  C188  T    
C83   H99   S    
C17   C19   S    
C177  C179  S    
C179  C185  S    
C18   C20   S    
C129  C134  S    
C57   H73   S    
C1    C138  S    
C154  H80   S    
C162  C167  S    
C94   H126  S    
C177  H24   S    
C205  O9    A    
C145  O25   A    
H49   O79   S    
C134  H82   S    
C4    H35   S    
C171  C208  S    
C67   C193  S    
C204  O7    A    
C20   C31   S    
C178  C184  S    
C155  O81   S    
C108  H11   S    
