data_mof_unit_42699.cif
_audit_creation_date              2012-12-10T17:55:46-0500
_audit_creation_method            fapswitch 2.2
_symmetry_space_group_name_H-M    P1
_symmetry_Int_Tables_number       1
_space_group_crystal_system       triclinic
_cell_length_a                    18.25304
_cell_length_b                    18.331678
_cell_length_c                    26.052711
_cell_angle_alpha                 90.046792
_cell_angle_beta                  89.94393
_cell_angle_gamma                 89.966165
_cell_volume                      8717.45910857

loop_
_atom_site_label
_atom_site_type_symbol
_atom_type_description
_atom_site_fract_x
_atom_site_fract_y
_atom_site_fract_z
_atom_type_partial_charge
C1    C     C_R   0.140203 0.860043 0.249957 0.757168
C2    C     C_R   0.213359 0.765746 0.204812 -0.002371
C3    C     C_3   0.332987 0.676527 0.919240 -0.739587
C4    C     C_3   0.782503 0.171410 0.126803 0.153138
C5    C     C_3   0.824493 0.154071 0.077832 -0.743086
C6    C     C_3   0.780160 0.170014 0.872876 0.155238
C7    C     C_3   0.821211 0.152234 0.922081 -0.744613
C8    C     C_3   0.219723 0.169868 0.127098 0.154692
C9    C     C_3   0.178690 0.152210 0.077854 -0.746842
C10   C     C_3   0.217373 0.171839 0.873202 0.152836
C11   C     C_3   0.175260 0.154476 0.922089 -0.745041
C12   C     C_3   0.317002 0.698713 0.626871 0.125570
C13   C     C_R   0.787041 0.765560 0.795007 -0.015982
C14   C     C_3   0.373955 0.684441 0.585371 -0.728384
C15   C     C_3   0.282646 0.672041 0.373325 0.156936
C16   C     C_3   0.324486 0.656058 0.422506 -0.755143
C17   C     C_3   0.718049 0.670890 0.626897 0.153765
C18   C     C_3   0.675914 0.652790 0.578183 -0.748494
C19   C     C_3   0.720243 0.669330 0.372727 0.155727
C20   C     C_3   0.679205 0.650850 0.421861 -0.748125
C21   C     C_2   0.247991 0.859734 0.668056 0.432505
C22   C     C_2   0.228349 0.840416 0.341842 0.425476
C23   C     C_2   0.771789 0.839892 0.657970 0.430023
C24   C     C_R   0.786406 0.766185 0.204808 -0.014944
C25   C     C_2   0.772651 0.838944 0.342444 0.429348
C26   C     C_2   0.728655 0.340227 0.158087 0.433720
C27   C     C_2   0.727458 0.339416 0.842253 0.434995
C28   C     C_2   0.272504 0.339207 0.157741 0.426166
C29   C     C_2   0.271152 0.340635 0.841852 0.427877
C30   C     C_2   0.145060 0.753487 0.832366 0.442458
C31   C     C_2   0.172010 0.777868 0.156272 0.441183
C32   C     C_2   0.828887 0.777399 0.843387 0.463448
C33   C     C_2   0.827663 0.778550 0.156202 0.457637
C34   C     C_2   0.670647 0.277170 0.343346 0.444958
C35   C     C_R   0.712664 0.265389 0.294967 -0.005168
C36   C     C_2   0.672286 0.278281 0.656236 0.449005
C37   C     C_2   0.327785 0.278377 0.343725 0.448678
C38   C     C_2   0.329472 0.276780 0.656706 0.449219
C39   C     C_R   0.713535 0.266009 0.704808 -0.007919
C40   C     C_R   0.286500 0.266066 0.295166 -0.008545
C41   C     C_R   0.287395 0.265212 0.705063 -0.006266
C42   C     C_R   0.768127 0.213171 0.294110 -0.227405
C43   C     C_R   0.769031 0.213822 0.705669 -0.222635
C44   C     C_R   0.230981 0.213942 0.294320 -0.224003
C45   C     C_R   0.140241 0.860140 0.749847 0.756005
C46   C     C_R   0.231992 0.212971 0.705934 -0.225364
C47   C     C_R   0.254342 0.699819 0.789107 -0.252002
C48   C     C_R   0.268782 0.713477 0.205697 -0.244811
C49   C     C_R   0.731529 0.713423 0.794194 -0.212870
C50   C     C_R   0.730848 0.714098 0.205645 -0.216527
C51   C     C_R   0.804543 0.196653 0.248618 -0.168543
C52   C     C_R   0.804444 0.196563 0.751364 -0.170682
C53   C     C_R   0.195516 0.196624 0.248642 -0.172242
C54   C     C_R   0.195498 0.196633 0.751407 -0.169081
C55   C     C_R   0.304220 0.696336 0.748745 -0.160055
C56   C     C_R   0.859777 0.860075 0.250031 0.758006
C57   C     C_R   0.304556 0.696634 0.251324 -0.165568
C58   C     C_R   0.695508 0.696622 0.748633 -0.174060
C59   C     C_R   0.695493 0.696625 0.251365 -0.177309
C60   C     C_R   0.933675 0.998277 0.026832 -0.168264
C61   C     C_R   0.933647 0.998266 0.973274 -0.168052
C62   C     C_R   0.066354 0.998384 0.026725 -0.172550
C63   C     C_R   0.066327 0.998430 0.973167 -0.173549
C64   C     C_R   0.433691 0.501587 0.526866 -0.168797
C65   C     C_R   0.433660 0.501167 0.473302 -0.176175
C66   C     C_R   0.566308 0.497018 0.526742 -0.172205
C67   C     C_R   0.859756 0.860067 0.749959 0.758161
C68   C     C_R   0.566278 0.496942 0.473181 -0.171914
C69   C     C_R   0.999971 0.998947 0.945901 -0.004123
C70   C     C_R   0.000029 0.998927 0.054098 -0.004479
C71   C     C_R   0.499963 0.499377 0.445916 -0.003234
C72   C     C_R   0.500028 0.499650 0.554114 -0.003669
C73   C     C_R   0.860251 0.140364 0.249531 0.871236
C74   C     C_R   0.860202 0.140322 0.750468 0.870834
C75   C     C_R   0.139792 0.140358 0.249534 0.871554
C76   C     C_R   0.139761 0.140357 0.750483 0.871498
C77   C     C_R   0.360046 0.640163 0.749726 0.865421
C78   C     C_R   0.640224 0.360076 0.750001 0.758923
C79   C     C_R   0.360225 0.640330 0.250458 0.873440
C80   C     C_R   0.639790 0.640356 0.749536 0.875741
C81   C     C_R   0.639771 0.640344 0.250464 0.880229
C82   C     C_R   0.000023 0.999735 0.110746 0.785175
C83   C     C_R   0.999977 0.999744 0.889254 0.785773
C84   C     C_R   0.500025 0.499939 0.610752 0.776642
C85   C     C_R   0.499975 0.499819 0.389258 0.785228
C86   C     C_R   0.999886 0.000141 0.388668 0.916674
C87   C     C_R   0.000127 0.000101 0.611329 0.916525
C88   C     C_R   0.499175 0.500157 0.888678 0.887655
C89   C     C_R   0.640197 0.360057 0.249968 0.758464
C90   C     C_R   0.498312 0.500155 0.111265 0.916417
C91   C     C_2   0.010108 0.059466 0.527611 0.363387
C92   C     C_2   0.990066 0.059535 0.472461 0.363684
C93   C     C_2   0.481263 0.561621 0.027792 0.416604
C94   C     C_2   0.471890 0.557692 0.971541 0.419416
C95   C     C_2   0.992899 0.000594 0.555913 -0.436203
C96   C     C_2   0.007167 0.000646 0.444076 -0.434879
C97   C     C_2   0.486513 0.499973 0.056006 -0.492342
C98   C     C_2   0.498707 0.500700 0.944406 -0.453258
C99   C     C_R   0.787701 0.233013 0.202710 0.474287
C100  C     C_R   0.359785 0.360077 0.750028 0.757342
C101  C     C_R   0.786801 0.232384 0.797401 0.474955
C102  C     C_R   0.213146 0.232348 0.202606 0.474545
C103  C     C_R   0.212235 0.233228 0.797285 0.474013
C104  C     C_R   0.299879 0.744761 0.707175 0.479648
C105  C     C_R   0.287535 0.733083 0.297227 0.473981
C106  C     C_R   0.712614 0.732815 0.702685 0.475625
C107  C     C_R   0.713281 0.732164 0.297461 0.473926
C108  C     C_R   0.247946 0.801797 0.708362 -0.130456
C109  C     C_R   0.236864 0.791204 0.296336 -0.127118
C110  C     C_R   0.763242 0.790937 0.703541 -0.126937
C111  C     C_R   0.359774 0.360049 0.249988 0.757990
C112  C     C_R   0.763777 0.790399 0.296633 -0.128202
C113  C     C_R   0.737001 0.291115 0.203585 -0.132404
C114  C     C_R   0.736305 0.290647 0.796538 -0.131549
C115  C     C_R   0.263675 0.290549 0.203456 -0.126259
C116  C     C_R   0.262892 0.291338 0.796390 -0.125062
C117  C     C_R   0.196812 0.804244 0.749359 -0.201971
C118  C     C_R   0.197252 0.804595 0.250442 -0.208389
C119  C     C_R   0.802845 0.804509 0.749433 -0.208085
C120  C     C_R   0.802832 0.804535 0.250556 -0.209137
C121  C     C_R   0.697109 0.304496 0.249434 -0.209346
C122  C     C_R   0.199524 0.752852 0.789739 0.002678
C123  C     C_R   0.697197 0.304576 0.750506 -0.209101
C124  C     C_R   0.302831 0.304531 0.249471 -0.209857
C125  C     C_R   0.302843 0.304544 0.750558 -0.208572
C126  C     C_3   0.096620 0.151094 0.520401 0.086414
C127  C     C_3   0.143741 0.200622 0.553555 -0.701461
C128  C     C_3   0.903747 0.151426 0.479765 0.087231
C129  C     C_3   0.856952 0.201371 0.446707 -0.703207
C130  C     C_3   0.423965 0.660392 0.063876 0.158483
C131  C     C_3   0.437058 0.726199 0.098289 -0.722167
C132  C     C_3   0.367636 0.606157 0.938273 0.069878
H1    H     H_    0.969405 0.952257 0.538257 0.125339
H2    H     H_    0.282741 0.683584 0.171091 0.188416
H3    H     H_    0.717718 0.683571 0.828798 0.205337
H4    H     H_    0.716551 0.684737 0.170915 0.207485
H5    H     H_    0.881663 0.997710 0.046848 0.161209
H6    H     H_    0.881624 0.997657 0.953345 0.160955
H7    H     H_    0.118379 0.997862 0.046652 0.158662
H8    H     H_    0.118341 0.997995 0.953152 0.158270
H9    H     H_    0.381709 0.503392 0.546905 0.160172
H10   H     H_    0.381651 0.502271 0.453375 0.159621
H11   H     H_    0.618291 0.494864 0.546677 0.160606
H12   H     H_    0.030570 0.952231 0.461669 0.123980
H13   H     H_    0.618250 0.494762 0.453161 0.159733
H14   H     H_    0.072764 0.184498 0.488999 0.187414
H15   H     H_    0.132872 0.108106 0.503755 0.146068
H16   H     H_    0.169532 0.168346 0.584709 0.258931
H17   H     H_    0.187491 0.225828 0.529828 0.238433
H18   H     H_    0.109633 0.244497 0.570761 0.251179
H19   H     H_    0.927600 0.184546 0.511341 0.187281
H20   H     H_    0.867271 0.108526 0.496175 0.146814
H21   H     H_    0.831206 0.169412 0.415351 0.259089
H22   H     H_    0.813170 0.226626 0.470436 0.238132
H23   H     H_    0.477214 0.446912 0.038777 0.131048
H24   H     H_    0.891291 0.245199 0.429771 0.250737
H25   H     H_    0.388851 0.620877 0.085181 0.114088
H26   H     H_    0.394116 0.679705 0.029476 0.165262
H27   H     H_    0.468656 0.768343 0.077146 0.250270
H28   H     H_    0.383774 0.749875 0.110460 0.207274
H29   H     H_    0.468354 0.709811 0.132920 0.284382
H30   H     H_    0.338740 0.589429 0.974125 0.118068
H31   H     H_    0.359443 0.563285 0.908551 0.138428
H32   H     H_    0.358580 0.693212 0.882393 0.264756
H33   H     H_    0.273410 0.668130 0.913399 0.246412
H34   H     H_    0.523256 0.453778 0.962931 0.134551
H35   H     H_    0.340775 0.720747 0.947853 0.249477
H36   H     H_    0.730519 0.199175 0.115949 0.141332
H37   H     H_    0.768830 0.119140 0.146258 0.143297
H38   H     H_    0.877364 0.127422 0.087400 0.254916
H39   H     H_    0.791787 0.116806 0.053268 0.182636
H40   H     H_    0.835637 0.205074 0.056218 0.278443
H41   H     H_    0.766822 0.117924 0.853030 0.143721
H42   H     H_    0.727992 0.197728 0.883463 0.141069
H43   H     H_    0.831842 0.203028 0.944107 0.277969
H44   H     H_    0.788099 0.114651 0.946134 0.182842
H45   H     H_    0.781538 0.182967 0.328578 0.188314
H46   H     H_    0.874316 0.125790 0.912776 0.255331
H47   H     H_    0.232978 0.117740 0.146881 0.142222
H48   H     H_    0.271936 0.197457 0.116566 0.140242
H49   H     H_    0.168166 0.203037 0.055884 0.277615
H50   H     H_    0.211762 0.114536 0.053770 0.181040
H51   H     H_    0.125531 0.125920 0.087104 0.256140
H52   H     H_    0.269266 0.199651 0.884161 0.141245
H53   H     H_    0.231207 0.119571 0.853714 0.142795
H54   H     H_    0.122501 0.127722 0.912414 0.255536
H55   H     H_    0.207988 0.117289 0.946683 0.181271
H56   H     H_    0.783277 0.184264 0.670983 0.198106
H57   H     H_    0.163894 0.205481 0.943719 0.278097
H58   H     H_    0.271028 0.730019 0.609522 0.152644
H59   H     H_    0.295726 0.645087 0.640291 0.138833
H60   H     H_    0.420360 0.652652 0.601471 0.245520
H61   H     H_    0.348945 0.652921 0.553462 0.185698
H62   H     H_    0.394944 0.736952 0.570055 0.280932
H63   H     H_    0.269656 0.619297 0.354247 0.143380
H64   H     H_    0.230300 0.699467 0.383858 0.139423
H65   H     H_    0.334954 0.707575 0.443728 0.277175
H66   H     H_    0.292023 0.618909 0.447317 0.181115
H67   H     H_    0.216770 0.184467 0.329006 0.198200
H68   H     H_    0.377715 0.629829 0.413228 0.255439
H69   H     H_    0.732081 0.618903 0.646609 0.142776
H70   H     H_    0.769836 0.698735 0.615705 0.141889
H71   H     H_    0.664343 0.703491 0.556328 0.277078
H72   H     H_    0.708718 0.615405 0.553698 0.183256
H73   H     H_    0.623255 0.625983 0.588091 0.254222
H74   H     H_    0.772255 0.697124 0.383428 0.141104
H75   H     H_    0.733875 0.617503 0.352595 0.142043
H76   H     H_    0.626286 0.624228 0.412454 0.256299
H77   H     H_    0.712496 0.613185 0.445715 0.182193
H78   H     H_    0.218675 0.182620 0.671485 0.188609
H79   H     H_    0.668219 0.701367 0.444145 0.276827
H80   H     H_    0.202038 0.896819 0.664219 0.046243
H81   H     H_    0.184368 0.880002 0.343752 0.061759
H82   H     H_    0.815671 0.879532 0.656074 0.060885
H83   H     H_    0.816144 0.879017 0.344166 0.064066
H84   H     H_    0.684687 0.379819 0.156176 0.066253
H85   H     H_    0.683912 0.379489 0.843978 0.065090
H86   H     H_    0.316099 0.379171 0.155983 0.059450
H87   H     H_    0.315020 0.380300 0.843715 0.055243
H88   H     H_    0.102229 0.794444 0.833934 0.051663
H89   H     H_    0.257589 0.659728 0.819533 0.182544
H90   H     H_    0.123652 0.812194 0.155546 0.063351
H91   H     H_    0.877104 0.811873 0.844040 0.056657
H92   H     H_    0.876133 0.812664 0.155482 0.057048
H93   H     H_    0.622514 0.311814 0.344035 0.061554
H94   H     H_    0.623888 0.312551 0.655513 0.060588
H95   H     H_    0.376189 0.312583 0.344435 0.060586
H96   H     H_    0.377496 0.311514 0.655999 0.062012
O1    O     O_3   1.000000 0.000000 0.250030 -0.491012
O2    O     O_R   0.585480 0.353820 0.219950 -0.646022
O3    O     O_R   0.414520 0.353820 0.780050 -0.646990
O4    O     O_R   0.414520 0.353820 0.219950 -0.647761
O5    O     O_R   0.914530 0.146170 0.280090 -0.627600
O6    O     O_R   0.914530 0.146170 0.719910 -0.631308
O7    O     O_R   0.085470 0.146170 0.280090 -0.631432
O8    O     O_R   0.085470 0.146170 0.719910 -0.627177
O9    O     O_R   0.414530 0.646170 0.780090 -0.629559
O10   O     O_R   0.414530 0.646170 0.219910 -0.655817
O11   O     O_R   0.585470 0.646170 0.780090 -0.622725
O12   O     O_3   0.000000 1.000000 0.749970 -0.492323
O13   O     O_R   0.585470 0.646170 0.219910 -0.633324
O14   O     O_R   0.146180 0.085440 0.219990 -0.645078
O15   O     O_R   0.146180 0.085440 0.780010 -0.645924
O16   O     O_R   0.853820 0.085440 0.219990 -0.645394
O17   O     O_R   0.853820 0.085440 0.780010 -0.644647
O18   O     O_R   0.646180 0.585440 0.719990 -0.646281
O19   O     O_R   0.646180 0.585440 0.280010 -0.643297
O20   O     O_R   0.353820 0.585440 0.719990 -0.650656
O21   O     O_R   0.353820 0.585440 0.280010 -0.642788
O22   O     O_R   0.853820 0.914550 0.219980 -0.641327
O23   O     O_3   0.500000 0.500000 0.750030 -0.491069
O24   O     O_R   0.853820 0.914550 0.780020 -0.641026
O25   O     O_R   0.146180 0.914550 0.219980 -0.643313
O26   O     O_R   0.146180 0.914550 0.780020 -0.638114
O27   O     O_R   0.353820 0.414550 0.719980 -0.639671
O28   O     O_R   0.353820 0.414550 0.280020 -0.642026
O29   O     O_R   0.646180 0.414550 0.719980 -0.641433
O30   O     O_R   0.646180 0.414550 0.280020 -0.641582
O31   O     O_R   0.060720 0.999990 0.135450 -0.646852
O32   O     O_R   0.060720 0.999990 0.864550 -0.646041
O33   O     O_R   0.939280 0.999990 0.135450 -0.646197
O34   O     O_3   0.500000 0.500000 0.249970 -0.486445
O35   O     O_R   0.939280 0.999990 0.864550 -0.646212
O36   O     O_R   0.560720 0.499990 0.635450 -0.646958
O37   O     O_R   0.560720 0.499990 0.364550 -0.647275
O38   O     O_R   0.439280 0.499990 0.635450 -0.646265
O39   O     O_R   0.439280 0.499990 0.364550 -0.645502
O40   O     O_R   0.000000 0.939270 0.364600 -0.664205
O41   O     O_R   0.000000 0.939270 0.635400 -0.662931
O42   O     O_R   0.500000 0.439270 0.864600 -0.660043
O43   O     O_R   0.500000 0.439270 0.135400 -0.656360
O44   O     O_R   0.000000 0.060730 0.364620 -0.582723
O45   O     O_R   0.085480 0.853820 0.280050 -0.646594
O46   O     O_R   1.000000 0.060730 0.635380 -0.582520
O47   O     O_R   0.500000 0.560730 0.864620 -0.581951
O48   O     O_R   0.500000 0.560730 0.135380 -0.606237
O49   O     O_3   0.040373 0.120842 0.551012 -0.586538
O50   O     O_3   0.959991 0.121048 0.449147 -0.586771
O51   O     O_3   0.492251 0.629764 0.049835 -0.542888
O52   O     O_3   0.443072 0.618198 0.946900 -0.554999
O53   O     O_3   0.826478 0.216082 0.158544 -0.567472
O54   O     O_3   0.824779 0.214903 0.841727 -0.566911
O55   O     O_3   0.175129 0.214844 0.158291 -0.566317
O56   O     O_R   0.085480 0.853820 0.719950 -0.641644
O57   O     O_3   0.173425 0.216486 0.841442 -0.566632
O58   O     O_3   0.349774 0.738505 0.667307 -0.568259
O59   O     O_3   0.326439 0.716512 0.341328 -0.567650
O60   O     O_3   0.674015 0.715817 0.658514 -0.566624
O61   O     O_3   0.675469 0.714418 0.341850 -0.567110
O62   O     O_2   0.300128 0.868187 0.639281 -0.505071
O63   O     O_2   0.271933 0.839358 0.377353 -0.515427
O64   O     O_2   0.728347 0.838542 0.622377 -0.510836
O65   O     O_2   0.729855 0.836798 0.378456 -0.512017
O66   O     O_2   0.772346 0.339052 0.122581 -0.506602
O67   O     O_R   0.914520 0.853820 0.280050 -0.646935
O68   O     O_2   0.770322 0.337447 0.878173 -0.507083
O69   O     O_2   0.229575 0.337270 0.121858 -0.514521
O70   O     O_2   0.227501 0.339533 0.877380 -0.513629
O71   O     O_2   0.146962 0.707699 0.866356 -0.568305
O72   O     O_2   0.191268 0.749012 0.116187 -0.572488
O73   O     O_2   0.810266 0.748082 0.883409 -0.537342
O74   O     O_2   0.808264 0.750058 0.116059 -0.538607
O75   O     O_2   0.689051 0.247648 0.383326 -0.571950
O76   O     O_2   0.691624 0.249556 0.616124 -0.560909
O77   O     O_2   0.308473 0.249755 0.383838 -0.560925
O78   O     O_R   0.914520 0.853820 0.719950 -0.647112
O79   O     O_2   0.311246 0.246977 0.616763 -0.570699
O80   O     O_R   0.585480 0.353820 0.780050 -0.645958
Zn1   Zn    Zn3+2 0.000000 0.086760 0.292960 1.022137
Zn2   Zn    Zn3+2 0.586770 0.499990 0.292890 0.977617
Zn3   Zn    Zn3+2 0.413230 0.499990 0.707110 0.969685
Zn4   Zn    Zn3+2 0.413230 0.499990 0.292890 0.973704
Zn5   Zn    Zn3+2 0.000000 0.913240 0.292940 0.950211
Zn6   Zn    Zn3+2 0.000000 0.913240 0.707060 0.953308
Zn7   Zn    Zn3+2 0.500000 0.413240 0.792940 0.949929
Zn8   Zn    Zn3+2 0.500000 0.413240 0.207060 0.952372
Zn9   Zn    Zn3+2 0.000000 0.086760 0.707040 1.022322
Zn10  Zn    Zn3+2 0.500000 0.586760 0.792960 1.027424
Zn11  Zn    Zn3+2 0.500000 0.586760 0.207040 0.990163
Zn12  Zn    Zn3+2 0.086770 0.999990 0.207110 0.972805
Zn13  Zn    Zn3+2 0.086770 0.999990 0.792890 0.975511
Zn14  Zn    Zn3+2 0.913230 0.999990 0.207110 0.975946
Zn15  Zn    Zn3+2 0.913230 0.999990 0.792890 0.975851
Zn16  Zn    Zn3+2 0.586770 0.499990 0.707110 0.974707

loop_
_geom_bond_atom_site_label_1
_geom_bond_atom_site_label_2
_ccdc_geom_bond_type
C126  C127  S    
C10   H52   S    
C107  C112  A    
C85   O39   A    
C19   C20   S    
C86   O40   A    
O1    Zn12  S    
C101  O54   S    
C50   C59   A    
C127  H18   S    
O32   Zn13  S    
O23   Zn16  S    
O67   Zn5   S    
C95   H1    S    
C10   H53   S    
C62   C70   A    
C34   C35   S    
C35   C42   A    
C81   O19   A    
C9    H50   S    
C25   C112  S    
O12   Zn9   S    
C44   C53   A    
C66   C72   A    
C30   C122  S    
C15   O59   S    
C18   H71   S    
C87   O46   A    
C62   H7    S    
C74   O6    A    
C14   H62   S    
C51   C99   A    
C10   O57   S    
C6    O54   S    
O22   Zn14  S    
O4    Zn8   S    
C109  C118  A    
C56   C120  S    
C52   C101  A    
C24   C120  A    
O78   Zn6   S    
C41   C125  A    
C54   C103  A    
C34   H93   S    
O30   Zn2   S    
C112  C120  A    
C74   O17   A    
C66   H11   S    
C6    H42   S    
C46   H78   S    
C4    H36   S    
O12   Zn15  S    
C96   H12   S    
C8    H48   S    
C53   C102  A    
C22   C109  S    
C82   O33   A    
C83   O32   A    
C17   H69   S    
C72   C84   S    
C3    H32   S    
O11   Zn10  S    
C15   H64   S    
C99   O53   S    
C16   H66   S    
C30   H88   S    
C23   C110  S    
C25   O65   D    
C111  C124  S    
C102  O55   S    
O34   Zn4   S    
C4    C5    S    
C129  H24   S    
C126  H15   S    
C6    C7    S    
O16   Zn14  S    
C103  C116  A    
C132  H31   S    
C129  H22   S    
C78   O29   A    
C130  C131  S    
C92   O50   S    
C70   C82   S    
C93   O51   S    
C94   O52   S    
C33   H92   S    
C84   O36   A    
C90   O48   A    
C21   O62   D    
C104  O58   S    
C37   O77   D    
C13   C32   S    
C83   O35   A    
C128  C129  S    
C3    H35   S    
C48   C57   A    
O23   Zn10  S    
O42   Zn7   S    
C130  H25   S    
C48   H2    S    
C37   C40   S    
C52   C74   S    
C43   C52   A    
C64   H9    S    
O47   Zn10  S    
C92   C96   D    
C130  O51   S    
O44   Zn1   S    
C103  O57   S    
C12   O58   S    
C128  H20   S    
C63   C69   A    
C87   C95   S    
C5    H38   S    
C16   H68   S    
C14   H60   S    
C47   H89   S    
O34   Zn2   S    
C128  O50   S    
C24   C50   A    
C132  O52   S    
C25   H83   S    
C76   O15   A    
C38   C41   S    
C91   C92   S    
C55   C104  A    
C59   C107  A    
O34   Zn11  S    
C117  C122  A    
C78   C123  S    
O80   Zn7   S    
O27   Zn3   S    
O28   Zn4   S    
C7    H44   S    
C17   C18   S    
C84   O38   A    
C76   O8    A    
C131  H27   S    
C22   O63   D    
C98   H34   S    
O21   Zn4   S    
C114  C123  A    
C9    H51   S    
O36   Zn16  S    
C116  C125  A    
C13   C49   A    
C93   C97   D    
O1    Zn14  S    
C3    H33   S    
C45   C117  S    
C105  C109  A    
C108  C117  A    
C36   C39   S    
C89   O30   A    
C110  C119  A    
O46   Zn9   S    
C45   O26   A    
C21   H80   S    
C34   O75   D    
C127  H17   S    
C129  H21   S    
O26   Zn13  S    
C73   O16   A    
C5    H40   S    
C80   O18   A    
C68   H13   S    
C132  H30   S    
C21   C108  S    
C9    H49   S    
C31   O72   D    
O39   Zn4   S    
C91   C95   D    
C40   C44   A    
C113  C121  A    
C22   H81   S    
O45   Zn5   S    
C26   O66   D    
C18   H72   S    
C79   O10   A    
O5    Zn1   S    
C67   C119  S    
O19   Zn2   S    
O2    Zn8   S    
C11   H54   S    
O43   Zn8   S    
C66   C68   A    
C90   O43   A    
C2    C118  A    
C53   C75   S    
C105  O59   S    
C18   H73   S    
C106  O60   S    
C80   O11   A    
C38   H96   S    
C88   O47   A    
C94   C98   D    
O29   Zn16  S    
C39   C123  A    
C26   H84   S    
O8    Zn9   S    
C81   O13   A    
C91   O49   S    
C102  C115  A    
C56   O22   A    
C19   H74   S    
O23   Zn3   S    
C89   O2    A    
C90   C97   S    
C73   O5    A    
C58   C80   S    
C127  H16   S    
C15   H63   S    
C67   O24   A    
C45   O56   A    
C77   O9    A    
C101  C114  A    
O1    Zn5   S    
C126  O49   S    
C1    O25   A    
C100  O3    A    
O20   Zn3   S    
C3    C132  S    
C35   C121  A    
C17   O60   S    
C2    C48   A    
C7    H46   S    
C60   C61   A    
C11   H57   S    
C62   C63   A    
O17   Zn15  S    
C28   C115  S    
O34   Zn8   S    
C29   O70   D    
C31   H90   S    
C32   O73   D    
O9    Zn10  S    
C46   C54   A    
C20   H77   S    
C40   C124  A    
C86   C96   S    
O40   Zn5   S    
C88   O42   A    
C14   H61   S    
C27   H85   S    
C104  C108  A    
C32   H91   S    
O1    Zn1   S    
C111  O28   A    
C8    O55   S    
C12   H59   S    
C36   H94   S    
C115  C124  A    
C82   O31   A    
C59   C81   S    
O33   Zn14  S    
C99   C113  A    
O41   Zn6   S    
C6    H41   S    
O56   Zn6   S    
C24   C33   S    
C130  H26   S    
C77   O20   A    
C64   C65   A    
O48   Zn11  S    
O15   Zn13  S    
C26   C113  S    
C86   O44   A    
C75   O14   A    
C8    H47   S    
C89   C121  S    
C43   H56   S    
C68   C71   A    
C78   O80   A    
C97   H23   S    
C17   H70   S    
C61   H6    S    
O35   Zn15  S    
C37   H95   S    
O3    Zn7   S    
C19   O61   S    
O37   Zn2   S    
C16   H65   S    
C23   H82   S    
C57   C105  A    
C93   C94   S    
C33   O74   D    
C63   H8    S    
C57   C79   S    
C27   O68   D    
C126  H14   S    
O31   Zn12  S    
C11   H55   S    
O12   Zn6   S    
C55   C77   S    
C30   O71   D    
C131  H29   S    
C42   H45   S    
C15   C16   S    
O10   Zn11  S    
C20   H79   S    
C71   C85   S    
C8    C9    S    
C7    H43   S    
C41   C46   A    
C75   O7    A    
C100  O27   A    
O18   Zn16  S    
C1    O45   A    
C42   C51   A    
C19   H75   S    
C111  O4    A    
C79   O21   A    
O24   Zn15  S    
C13   C119  A    
C36   O76   D    
O23   Zn7   S    
O13   Zn11  S    
O14   Zn12  S    
C4    H37   S    
C100  C125  S    
C85   O37   A    
C23   O64   D    
C10   C11   S    
C47   C122  A    
C39   C43   A    
C65   C71   A    
C49   C58   A    
C2    C31   S    
C58   C106  A    
C69   C83   S    
C128  H19   S    
C60   C70   A    
C4    O53   S    
C5    H39   S    
O38   Zn3   S    
O7    Zn1   S    
C54   C76   S    
C56   O67   A    
C29   C116  S    
C12   C14   S    
C20   H76   S    
C28   O69   D    
C47   C55   A    
C106  C110  A    
C61   C69   A    
C28   H86   S    
C51   C73   S    
C12   H58   S    
C60   H5    S    
C50   H4    S    
C87   O41   A    
C65   H10   S    
O25   Zn12  S    
C1    C118  S    
C64   C72   A    
C49   H3    S    
C131  H28   S    
C88   C98   S    
O12   Zn13  S    
C27   C114  S    
C29   H87   S    
C44   H67   S    
C38   O79   D    
O6    Zn9   S    
C107  O61   S    
C67   O78   A    
