data_mof_unit_37410.cif
_audit_creation_date              2013-03-05T15:42:08-0500
_audit_creation_method            fapswitch 2.2
_symmetry_space_group_name_H-M    P1
_symmetry_Int_Tables_number       1
_space_group_crystal_system       triclinic
_cell_length_a                    22.240977
_cell_length_b                    7.226564
_cell_length_c                    15.057327
_cell_angle_alpha                 90.196612
_cell_angle_beta                  108.800783
_cell_angle_gamma                 90.433633
_cell_volume                      2290.86704934

loop_
_atom_site_label
_atom_site_type_symbol
_atom_site_description
_atom_site_fract_x
_atom_site_fract_y
_atom_site_fract_z
_atom_type_partial_charge
O1    O     O_R   0.584770 0.505770 0.002090 -0.529369
O2    O     O_R   0.415230 0.005770 0.997910 -0.518184
O3    O     O_R   0.467060 0.173340 0.861950 -0.518122
O4    O     O_R   0.532940 0.673340 0.138050 -0.568324
C1    C     C_R   0.456413 0.344758 0.825072 0.870474
C2    C     C_R   0.543044 0.844619 0.174611 0.867710
O5    O     O_R   0.587510 0.175890 0.993210 -0.561086
O6    O     O_R   0.412490 0.675890 0.006790 -0.574856
O7    O     O_R   0.536540 0.008150 0.130100 -0.543748
O8    O     O_R   0.463460 0.508150 0.869900 -0.567255
C3    C     C_R   0.614000 0.344361 0.004540 0.745097
C4    C     C_R   0.386420 0.843463 0.998697 0.766519
O9    O     O_3   0.483140 0.340040 0.044760 -0.283824
O10   O     O_3   0.516860 0.840040 0.955240 -0.279732
V1    V     V_3+5 0.503130 0.064190 0.991700 1.228976
V2    V     V_3+5 0.496870 0.564190 0.008300 1.186476
C5    C     C_2   0.213655 0.737637 0.000354 -0.026791
C6    C     C_2   0.786595 0.239265 0.006051 -0.010067
C7    C     C_2   0.184281 0.893214 0.015109 0.302025
C8    C     C_2   0.816768 0.392783 0.990382 0.305442
H1    H     H_    0.186227 0.611310 0.977919 0.012663
H2    H     H_    0.812861 0.112131 0.026773 0.014397
C9    C     C_2   0.283983 0.728549 0.015979 -0.083636
C10   C     C_2   0.716363 0.233411 0.990128 -0.048819
C11   C     C_2   0.316244 0.851975 0.979999 -0.121765
C12   C     C_2   0.684773 0.353637 0.028805 -0.120710
H3    H     H_    0.309563 0.614362 0.057589 0.084374
H4    H     H_    0.689746 0.125227 0.943356 0.094204
C13   C     C_R   0.922495 0.881794 0.722552 -0.108133
C14   C     C_R   0.076109 0.388025 0.277512 -0.103123
C15   C     C_R   0.567684 0.851180 0.278048 -0.170328
C16   C     C_R   0.434001 0.354126 0.721035 -0.175347
C17   C     C_R   0.913847 0.763604 0.566516 -0.063924
C18   C     C_R   0.075943 0.288143 0.431443 -0.054004
C19   C     C_R   0.946594 0.770885 0.664584 -0.108763
C20   C     C_R   0.045892 0.295686 0.333344 -0.080143
C21   C     C_R   0.861436 0.954615 0.685616 -0.053947
C22   C     C_R   0.138741 0.450714 0.317938 -0.045349
C23   C     C_R   0.823810 0.915502 0.592554 0.052870
C24   C     C_R   0.174205 0.404941 0.411289 0.059313
C25   C     C_R   0.855459 0.858848 0.529797 -0.004680
C26   C     C_R   0.139171 0.357882 0.471259 -0.011268
C27   C     C_R   0.755815 0.919825 0.558482 -0.011205
C28   C     C_R   0.242483 0.395036 0.446455 -0.006781
C29   C     C_R   0.726007 0.930086 0.459837 0.047414
C30   C     C_R   0.273678 0.396090 0.545783 0.029462
C31   C     C_R   0.764630 0.970870 0.403684 -0.085726
C32   C     C_R   0.235513 0.387619 0.606229 -0.055561
C33   C     C_R   0.827412 0.904692 0.433626 -0.067592
C34   C     C_R   0.169132 0.374844 0.568730 -0.076152
C35   C     C_R   0.717237 0.889192 0.616453 -0.067925
C36   C     C_R   0.279822 0.354980 0.387269 -0.056765
C37   C     C_R   0.650897 0.860061 0.576030 -0.065153
C38   C     C_R   0.343824 0.299259 0.426178 -0.078150
C39   C     C_R   0.621214 0.863755 0.476585 -0.102818
C40   C     C_R   0.375579 0.314806 0.524399 -0.102835
C41   C     C_R   0.659872 0.892364 0.418957 0.028412
C42   C     C_R   0.341747 0.388990 0.581327 0.006060
C43   C     C_R   0.554161 0.837602 0.433037 0.381221
C44   C     C_R   0.439255 0.254226 0.568666 0.378020
C45   C     C_R   0.527679 0.837299 0.333474 0.339581
C46   C     C_R   0.466684 0.265001 0.667540 0.352435
C47   C     C_R   0.632637 0.868490 0.320990 -0.138030
C48   C     C_R   0.376668 0.439586 0.674588 -0.148820
H5    H     H_    0.661622 0.861291 0.275695 0.116621
H6    H     H_    0.356868 0.530610 0.714751 0.120392
H7    H     H_    0.843083 0.035999 0.731224 0.087817
H8    H     H_    0.159665 0.529244 0.274383 0.082546
O11   O     O_R   0.036450 0.233070 0.130130 -0.543092
O12   O     O_R   0.963550 0.733070 0.869870 -0.551876
O13   O     O_R   0.912470 0.560570 0.006790 -0.561795
O14   O     O_R   0.087530 0.060570 0.993210 -0.568646
C49   C     C_R   0.886458 0.392658 0.000233 0.787810
C50   C     C_R   0.113900 0.893584 0.001468 0.800360
O15   O     O_R   0.032920 0.562940 0.138050 -0.541770
O16   O     O_R   0.967080 0.062940 0.861950 -0.543075
O17   O     O_R   0.084790 0.730500 0.002090 -0.579638
O18   O     O_R   0.915210 0.230500 0.997910 -0.581779
C51   C     C_R   0.046724 0.395488 0.174660 0.829144
C52   C     C_R   0.953851 0.893762 0.825151 0.853264
O19   O     O_3   0.016820 0.396170 0.955260 -0.291620
O20   O     O_3   0.983180 0.896170 0.044740 -0.278223
V3    V     V_3+5 0.996880 0.672090 0.008300 1.194013
V4    V     V_3+5 0.003120 0.172090 0.991700 1.190374
C53   C     C_2   0.003076 0.655675 0.707944 0.950886
O21   O     O_2   0.000158 0.488905 0.693126 -0.572990
O22   O     O_R   0.058317 0.736321 0.769360 -0.734556
H9    H     H_    0.092522 0.642286 0.798457 0.323496
C54   C     C_2   0.985246 0.197785 0.287351 0.909288
O23   O     O_2   0.985202 0.029922 0.277162 -0.557485
O24   O     O_R   0.929433 0.298237 0.249910 -0.757815
H10   H     H_    0.891525 0.215760 0.217804 0.337363
C55   C     C_2   0.742534 0.109814 0.326737 0.889795
O25   O     O_2   0.760674 0.105328 0.258398 -0.560246
O26   O     O_R   0.699533 0.245747 0.332840 -0.747137
H11   H     H_    0.687163 0.331122 0.276672 0.318172
C56   C     C_2   0.262707 0.356616 0.708412 0.865596
O27   O     O_2   0.292194 0.215064 0.736864 -0.573925
O28   O     O_R   0.255236 0.490802 0.771190 -0.730357
H12   H     H_    0.278278 0.459730 0.839094 0.337658
C57   C     C_2   0.745403 0.862108 0.719064 0.856020
O29   O     O_2   0.770942 0.715823 0.749579 -0.581609
O30   O     O_R   0.741686 0.004405 0.780112 -0.733359
H13   H     H_    0.762332 0.970943 0.848292 0.293854
C58   C     C_2   0.252798 0.351341 0.283629 0.845812
O31   O     O_2   0.218841 0.222230 0.243625 -0.566117
O32   O     O_R   0.268112 0.494811 0.232547 -0.763088
H14   H     H_    0.246120 0.481442 0.162699 0.289646
O33   O     O_3   0.515237 0.844586 0.489084 -0.606183
C59   C     C_3   0.467980 0.705278 0.468408 0.344369
H15   H     H_    0.479852 0.582752 0.433047 -0.008853
H16   H     H_    0.421683 0.763735 0.426156 0.117401
H17   H     H_    0.462265 0.658043 0.535252 0.038379
O34   O     O_3   0.470525 0.159275 0.516994 -0.594006
C60   C     C_3   0.529091 0.244899 0.523109 0.317601
H18   H     H_    0.568670 0.163860 0.569597 0.098655
H19   H     H_    0.533424 0.389315 0.548225 0.014928
H20   H     H_    0.534792 0.244870 0.452607 0.080729
O35   O     O_3   0.223158 0.041497 0.059455 -0.624999
C61   C     C_3   0.202702 0.211831 0.014521 0.258740
H21   H     H_    0.172335 0.284887 0.048855 0.077655
H22   H     H_    0.177909 0.197781 0.937615 0.030795
H23   H     H_    0.245055 0.301065 0.023854 0.069200
O36   O     O_3   0.779197 0.543752 0.950288 -0.634046
C62   C     C_3   0.799039 0.706964 0.004077 0.244593
H24   H     H_    0.828638 0.792942 0.973133 0.066816
H25   H     H_    0.825227 0.681679 0.079556 0.057772
H26   H     H_    0.756317 0.788618 0.000604 0.073244
C63   C     C_2   0.281257 0.988448 0.909907 0.918190
O37   O     O_2   0.300907 0.147515 0.914456 -0.598205
O38   O     O_R   0.226111 0.934318 0.838398 -0.712627
H27   H     H_    0.206040 0.039772 0.795399 0.365912
C64   C     C_2   0.719872 0.477601 0.108415 0.862448
O39   O     O_2   0.695331 0.619203 0.124527 -0.594554
O40   O     O_R   0.779783 0.427215 0.168139 -0.730552
H28   H     H_    0.796606 0.513839 0.223724 0.363587
C65   C     C_2   0.865326 0.907856 0.369043 0.945684
O41   O     O_2   0.918510 0.975448 0.395270 -0.567277
O42   O     O_R   0.841055 0.829780 0.279441 -0.722578
H29   H     H_    0.871894 0.838926 0.242605 0.330029
C66   C     C_2   0.131349 0.404938 0.632091 0.942241
O43   O     O_2   0.105726 0.553829 0.630880 -0.514600
O44   O     O_R   0.128390 0.268651 0.696175 -0.748308
H30   H     H_    0.104510 0.309579 0.739707 0.333070
O45   O     O_3   0.462534 0.845464 0.291880 -0.657894
C67   C     C_3   0.438186 0.674630 0.248600 0.140353
H31   H     H_    0.472052 0.556886 0.267785 0.072246
H32   H     H_    0.422147 0.691641 0.172106 0.069979
H33   H     H_    0.395454 0.637187 0.267530 0.130642
O46   O     O_3   0.523104 0.174657 0.710908 -0.618826
C68   C     C_3   0.572357 0.302904 0.754535 0.265518
H34   H     H_    0.598952 0.250136 0.824732 0.057124
H35   H     H_    0.556684 0.446208 0.762967 -0.013174
H36   H     H_    0.606441 0.309686 0.714813 0.120161
C69   C     C_2   0.616088 0.796660 0.639768 0.956284
O47   O     O_2   0.595037 0.639311 0.632496 -0.667820
O48   O     O_R   0.611923 0.910874 0.712369 -0.711322
H37   H     H_    0.589474 0.848195 0.753190 0.330489
C70   C     C_2   0.374115 0.217369 0.360550 0.971754
O49   O     O_2   0.417541 0.298262 0.343738 -0.646129
O50   O     O_R   0.348088 0.055967 0.311258 -0.701707
H38   H     H_    0.364767 0.030137 0.257386 0.351978
C71   C     C_2   0.935059 0.638326 0.504405 0.956131
O51   O     O_2   0.990139 0.641845 0.505292 -0.530134
O52   O     O_R   0.890663 0.521397 0.441954 -0.732730
H39   H     H_    0.909192 0.451245 0.398699 0.365922
C72   C     C_2   0.045653 0.180962 0.489440 0.937658
O53   O     O_2   0.996862 0.236248 0.500665 -0.541713
O54   O     O_R   0.074518 0.019949 0.533855 -0.677756
H40   H     H_    0.050872 0.962781 0.574494 0.363653

loop_
_geom_bond_atom_site_label_1
_geom_bond_atom_site_label_2
_geom_bond_distance
_ccdc_geom_bond_type
C20   C54   1.476330 S    
O22   H9    1.013670 S    
C47   H5    1.080333 S    
O52   H39   1.012373 S    
C33   C65   1.478392 S    
C69   O48   1.394659 S    
O54   H40   1.013692 S    
C15   C45   1.405727 A    
C44   O34   1.382826 S    
O26   H11   1.013803 S    
O1    C3    1.334499 A    
O2    C4    1.334197 A    
O16   V4    2.012969 S    
C2    O7    1.346187 A    
C56   O27   1.221510 D    
O40   H28   1.011623 S    
C23   C25   1.409427 A    
C53   O21   1.222325 D    
O5    C3    1.334686 A    
C32   C56   1.479153 S    
C65   O42   1.396686 S    
C29   C41   1.423378 A    
O48   H37   1.014169 S    
C6    C10   1.502252 S    
C17   C71   1.483871 S    
C10   C12   1.362769 D    
C63   O37   1.220501 D    
C39   C43   1.433289 A    
C66   O44   1.397098 S    
O45   C67   1.413843 S    
C68   H36   1.107541 S    
O17   V3    2.028635 S    
C60   H18   1.105110 S    
C14   C22   1.399370 A    
C44   C46   1.416944 A    
O1    V2    2.034448 S    
C29   C31   1.416212 A    
C45   O45   1.382630 S    
C59   H15   1.108207 S    
C43   O33   1.391224 S    
C38   C70   1.487185 S    
C71   O51   1.220884 D    
C28   C30   1.431527 A    
C60   H19   1.101704 S    
C50   O17   1.341882 A    
C18   C26   1.426444 A    
C62   H26   1.109247 S    
C49   O18   1.344941 A    
C70   O50   1.397604 S    
C9    H3    1.085373 S    
C54   O24   1.396804 S    
O13   V3    2.030752 S    
C61   H23   1.108028 S    
C1    C16   1.484910 S    
C28   C36   1.430571 A    
C32   C34   1.402599 A    
C2    C15   1.475557 S    
C68   H34   1.102586 S    
C11   C63   1.476968 S    
O6    V2    2.041970 S    
C30   C42   1.435308 A    
C72   O54   1.397575 S    
C25   C33   1.421255 A    
C56   O28   1.399598 S    
C36   C38   1.415769 A    
C41   C47   1.411870 A    
C69   O47   1.217455 D    
C67   H32   1.098087 S    
C37   C39   1.429002 A    
C42   C48   1.413518 A    
C55   O26   1.399403 S    
O42   H29   1.013527 S    
C38   C40   1.422365 A    
C43   C45   1.423096 A    
C53   O22   1.399078 S    
O12   C52   1.328145 A    
C57   O29   1.222912 D    
C15   C47   1.383935 A    
C16   C48   1.391620 A    
C31   C33   1.409801 A    
C72   O53   1.220678 D    
O13   C49   1.329884 A    
C5    C7    1.357632 D    
C23   C27   1.432429 A    
C3    C12   1.497735 S    
C5    H1    1.084562 S    
C40   C44   1.429877 A    
C35   C37   1.416831 A    
C48   H6    1.079649 S    
O4    V2    2.013025 S    
O12   V3    2.025757 S    
C67   H33   1.108584 S    
C58   O32   1.396977 S    
C70   O49   1.220129 D    
O6    C4    1.335516 A    
C60   H20   1.108945 S    
C31   C55   1.496851 S    
C55   O25   1.220742 D    
C5    C9    1.506899 S    
O2    V1    2.028434 S    
C27   C29   1.420576 A    
C59   H17   1.108992 S    
O14   V4    2.042057 S    
C26   C34   1.407200 A    
C14   C51   1.475519 S    
O14   C50   1.334311 A    
C22   H8    1.078886 S    
C36   C58   1.480596 S    
C37   C69   1.485577 S    
C39   C41   1.419267 A    
C64   O39   1.223120 D    
O11   C51   1.330869 A    
O4    C2    1.340516 A    
O16   C52   1.331579 A    
O32   H14   1.010804 S    
C18   C72   1.480660 S    
O24   H10   1.013658 S    
O19   V4    1.767065 S    
O3    V1    2.023011 S    
C61   H21   1.109387 S    
C61   H22   1.114491 S    
O11   V4    2.020198 S    
C62   H25   1.113852 S    
C67   H31   1.116204 S    
C65   O41   1.217605 D    
C46   O46   1.383649 S    
C71   O52   1.398813 S    
C6    H2    1.084114 S    
C7    C50   1.511718 S    
C10   H4    1.085413 S    
C24   C26   1.410596 A    
O3    C1    1.350318 A    
O35   C61   1.412700 S    
C34   C66   1.477072 S    
O34   C60   1.413561 S    
C35   C57   1.482557 S    
C58   O31   1.223115 D    
C13   C19   1.412367 A    
O46   C68   1.416712 S    
O28   H12   1.011946 S    
C14   C20   1.401747 A    
C4    C11   1.495815 S    
C17   C25   1.420971 A    
O44   H30   1.012258 S    
O7    V1    2.017719 S    
C16   C46   1.404608 A    
C1    O8    1.340870 A    
C21   C23   1.407703 A    
C12   C64   1.492554 S    
O8    V2    2.012583 S    
O33   C59   1.409247 S    
C22   C24   1.414151 A    
C19   C53   1.479333 S    
O15   V3    2.022954 S    
C62   H24   1.109069 S    
C13   C52   1.477901 S    
O50   H38   1.012140 S    
C27   C35   1.424185 A    
C21   H7    1.079650 S    
O5    V1    2.030643 S    
C17   C19   1.421052 A    
C18   C20   1.412911 A    
C40   C42   1.416702 A    
C8    C49   1.508714 S    
C6    C8    1.352538 D    
C68   H35   1.114971 S    
C59   H16   1.108902 S    
C8    O36   1.395040 S    
C7    O35   1.396675 S    
C30   C32   1.431870 A    
O18   V4    2.034651 S    
C24   C28   1.440549 A    
C9    C11   1.359438 D    
C57   O30   1.397498 S    
O20   V3    1.767841 S    
O9    V2    1.767817 S    
C13   C21   1.398733 A    
O30   H13   1.011341 S    
C64   O40   1.397857 S    
O10   V1    1.768599 S    
C54   O23   1.222170 D    
C66   O43   1.218820 D    
O15   C51   1.328004 A    
O38   H27   1.010664 S    
O36   C62   1.413166 S    
C63   O38   1.398327 S    
