data_mof_unit_19720.cif
_audit_creation_date              2012-12-10T20:53:08-0500
_audit_creation_method            fapswitch 2.2
_symmetry_space_group_name_H-M    P1
_symmetry_Int_Tables_number       1
_space_group_crystal_system       triclinic
_cell_length_a                    18.297318
_cell_length_b                    18.318319
_cell_length_c                    18.31217
_cell_angle_alpha                 60.061761
_cell_angle_beta                  60.143983
_cell_angle_gamma                 60.124799
_cell_volume                      4350.91074627

loop_
_atom_site_label
_atom_site_type_symbol
_atom_type_description
_atom_site_fract_x
_atom_site_fract_y
_atom_site_fract_z
_atom_type_partial_charge
C1    C     C_R   0.389644 0.102645 0.117020 0.517233
C2    C     C_R   0.373595 0.805140 0.781251 -0.082028
C3    C     C_R   0.908188 0.547263 0.037991 0.008151
C4    C     C_R   0.406619 0.019432 0.030650 0.013325
C5    C     C_R   0.593379 0.980610 0.969302 0.013314
C6    C     C_R   0.945080 0.946815 0.553939 0.014931
C7    C     C_R   0.054933 0.053172 0.446060 0.014703
C8    C     C_R   0.944997 0.553897 0.946889 0.014945
C9    C     C_R   0.055001 0.446093 0.053111 0.014835
C10   C     C_R   0.555227 0.964584 0.929582 -0.008762
C11   C     C_R   0.444775 0.035452 0.070371 -0.008723
C12   C     C_R   0.188983 0.205482 0.636402 -0.088794
C13   C     C_R   0.810891 0.794126 0.364009 -0.087328
C14   C     C_R   0.173205 0.588754 0.284253 0.283248
C15   C     C_R   0.827227 0.410783 0.715969 0.295248
C16   C     C_R   0.582696 0.285019 0.178448 0.275769
C17   C     C_R   0.417380 0.714761 0.821346 0.276310
C18   C     C_R   0.280441 0.168269 0.593419 0.278535
C19   C     C_R   0.719462 0.831412 0.407010 0.279292
C20   C     C_R   0.086448 0.586280 0.314340 0.034603
C21   C     C_R   0.610356 0.897357 0.882976 0.517247
C22   C     C_R   0.913856 0.413630 0.685758 0.036109
C23   C     C_R   0.585708 0.315221 0.089523 0.037523
C24   C     C_R   0.414379 0.684705 0.910244 0.037530
C25   C     C_R   0.313133 0.082556 0.587554 0.033884
C26   C     C_R   0.686818 0.917280 0.412496 0.033781
C27   C     C_R   0.041002 0.627171 0.253285 -0.124061
C28   C     C_R   0.959318 0.373103 0.746735 -0.129852
C29   C     C_R   0.634135 0.255075 0.042097 -0.122070
C30   C     C_R   0.366017 0.744965 0.957537 -0.121989
C31   C     C_R   0.254002 0.035482 0.626249 -0.123537
C32   C     C_R   0.110622 0.109654 0.389835 0.514249
C33   C     C_R   0.745970 0.964417 0.373432 -0.123813
C34   C     C_R   0.081515 0.668833 0.163050 -0.115041
C35   C     C_R   0.918930 0.331449 0.837017 -0.113687
C36   C     C_R   0.678738 0.165902 0.082181 -0.123262
C37   C     C_R   0.321468 0.834116 0.917344 -0.123180
C38   C     C_R   0.163327 0.073234 0.669144 -0.115017
C39   C     C_R   0.836614 0.926590 0.330518 -0.115440
C40   C     C_R   0.167573 0.670214 0.133004 -0.152147
C41   C     C_R   0.832988 0.329709 0.867182 -0.153203
C42   C     C_R   0.674424 0.135511 0.170401 -0.158415
C43   C     C_R   0.889389 0.890334 0.610169 0.514335
C44   C     C_R   0.325773 0.864368 0.829146 -0.158366
C45   C     C_R   0.130838 0.158181 0.674002 -0.153861
C46   C     C_R   0.869054 0.841501 0.326019 -0.154392
C47   C     C_R   0.986367 0.591480 0.464397 -0.126244
C48   C     C_R   0.013665 0.408513 0.535610 -0.106022
C49   C     C_R   0.591202 0.464789 0.987542 -0.133362
C50   C     C_R   0.408831 0.535177 0.012350 -0.134341
C51   C     C_R   0.464234 0.985096 0.591710 -0.135399
C52   C     C_R   0.535759 0.014877 0.408302 -0.134952
C53   C     C_R   0.944683 0.552349 0.555167 0.042682
C54   C     C_R   0.110695 0.389829 0.109593 0.515932
C55   C     C_R   0.055369 0.447639 0.444847 0.049150
C56   C     C_R   0.552467 0.555101 0.944161 0.035033
C57   C     C_R   0.447556 0.444874 0.055764 0.034231
C58   C     C_R   0.555284 0.944639 0.552274 0.038499
C59   C     C_R   0.444708 0.055333 0.447738 0.038871
C60   C     C_R   0.957915 0.459675 0.591136 0.006241
C61   C     C_R   0.042208 0.540291 0.408900 -0.004228
C62   C     C_R   0.460167 0.590641 0.955952 -0.014868
C63   C     C_R   0.539874 0.409315 0.043918 -0.014741
C64   C     C_R   0.591532 0.959106 0.459322 -0.008585
C65   C     C_R   0.889306 0.610170 0.890405 0.516018
C66   C     C_R   0.408452 0.040836 0.540700 -0.008605
C67   C     C_R   0.110720 0.390449 0.389735 0.541963
C68   C     C_R   0.889296 0.609549 0.610267 0.538773
C69   C     C_R   0.390430 0.389715 0.110816 0.557510
C70   C     C_R   0.609574 0.610282 0.889162 0.557690
C71   C     C_R   0.389690 0.110724 0.390458 0.550646
C72   C     C_R   0.610308 0.889275 0.609545 0.550726
C73   C     C_R   0.184744 0.920338 0.412126 0.126450
C74   C     C_R   0.815174 0.079711 0.587491 0.126545
C75   C     C_R   0.183627 0.408312 0.921287 0.128772
C76   C     C_R   0.213242 0.630441 0.193172 -0.084913
C77   C     C_R   0.816349 0.591641 0.078724 0.128887
C78   C     C_R   0.316019 0.023920 0.066508 0.163367
C79   C     C_R   0.683973 0.976137 0.933432 0.163287
C80   C     C_R   0.218702 0.830069 0.422031 -0.081064
C81   C     C_R   0.781157 0.170036 0.577430 -0.080774
C82   C     C_R   0.216843 0.416058 0.831673 -0.076072
C83   C     C_R   0.783131 0.583886 0.168340 -0.076456
C84   C     C_R   0.277301 0.027675 0.015031 -0.107070
C85   C     C_R   0.722703 0.972381 0.984902 -0.107049
C86   C     C_R   0.163417 0.778373 0.474619 -0.120152
C87   C     C_R   0.787314 0.369113 0.807089 -0.087291
C88   C     C_R   0.836483 0.221706 0.525046 -0.120912
C89   C     C_R   0.161356 0.468321 0.780150 -0.135228
C90   C     C_R   0.838618 0.531622 0.219863 -0.135369
C91   C     C_R   0.328243 0.023572 0.929327 -0.146359
C92   C     C_R   0.671772 0.976479 0.070607 -0.146509
C93   C     C_R   0.073554 0.816398 0.518143 -0.103249
C94   C     C_R   0.926439 0.183612 0.481813 -0.101796
C95   C     C_R   0.072103 0.513826 0.817651 -0.110429
C96   C     C_R   0.927880 0.486138 0.182357 -0.109811
C97   C     C_R   0.419934 0.005724 0.898851 -0.073219
C98   C     C_R   0.626529 0.194620 0.218432 -0.082172
C99   C     C_R   0.580079 0.994313 0.101096 -0.073349
C100  C     C_R   0.036440 0.908232 0.508932 -0.020554
C101  C     C_R   0.963567 0.091761 0.491050 -0.020696
C102  C     C_R   0.035703 0.506780 0.908872 -0.017444
C103  C     C_R   0.964288 0.493198 0.091132 -0.017712
C104  C     C_R   0.461282 0.996055 0.952515 -0.016640
C105  C     C_R   0.538721 0.003969 0.047448 -0.016599
C106  C     C_R   0.092413 0.961479 0.454725 0.007753
C107  C     C_R   0.907576 0.038528 0.545157 0.007706
C108  C     C_R   0.091800 0.452711 0.962014 0.008206
F1    F     F_    0.243997 0.965339 0.361878 -0.168562
F2    F     F_    0.755909 0.034717 0.637554 -0.168730
F3    F     F_    0.243184 0.358497 0.965961 -0.166278
F4    F     F_    0.756788 0.641441 0.034055 -0.166264
F5    F     F_    0.267529 0.014362 0.153975 -0.153764
F6    F     F_    0.732456 0.985677 0.845970 -0.153844
H1    H     H_    0.809374 0.291935 0.517150 0.162423
H2    H     H_    0.338387 0.562661 0.020288 0.151946
H3    H     H_    0.436204 0.975031 0.662636 0.147070
H4    H     H_    0.563791 0.024942 0.337374 0.146757
H5    H     H_    0.288838 0.799762 0.389125 0.152583
H6    H     H_    0.710947 0.200409 0.610051 0.151036
H7    H     H_    0.286577 0.381747 0.801710 0.153783
H8    H     H_    0.713396 0.618194 0.198298 0.153110
H9    H     H_    0.207639 0.033403 0.041881 0.119417
H10   H     H_    0.792364 0.966658 0.958043 0.119407
H11   H     H_    0.033884 0.772615 0.559327 0.123758
H12   H     H_    0.190476 0.708180 0.482408 0.179190
H13   H     H_    0.966139 0.227378 0.440742 0.124170
H14   H     H_    0.032390 0.554844 0.773881 0.119141
H15   H     H_    0.967593 0.445120 0.226125 0.120053
H16   H     H_    0.457716 0.001630 0.832273 0.159162
H17   H     H_    0.542308 0.998402 0.167677 0.158975
H18   H     H_    0.198899 0.702229 0.062928 0.121661
H19   H     H_    0.801752 0.297703 0.937292 0.121951
H20   H     H_    0.708495 0.066084 0.201492 0.116603
H21   H     H_    0.291727 0.933775 0.797979 0.116691
H22   H     H_    0.060439 0.187508 0.706933 0.123021
H23   H     H_    0.812165 0.525547 0.289561 0.143958
H24   H     H_    0.939432 0.812119 0.293074 0.122965
H25   H     H_    0.279922 0.632215 0.168472 0.136842
H26   H     H_    0.720726 0.367080 0.831872 0.138014
H27   H     H_    0.624032 0.169693 0.286782 0.140424
H28   H     H_    0.376048 0.829960 0.712931 0.140424
H29   H     H_    0.162314 0.271329 0.640752 0.137547
H30   H     H_    0.837524 0.728159 0.359951 0.141690
H31   H     H_    0.974595 0.625611 0.275535 0.117851
H32   H     H_    0.025626 0.374955 0.724385 0.113070
H33   H     H_    0.637105 0.277367 0.973971 0.117063
H34   H     H_    0.187806 0.474386 0.710455 0.148938
H35   H     H_    0.363024 0.722767 0.025658 0.116883
H36   H     H_    0.278146 0.969828 0.622258 0.119586
H37   H     H_    0.721868 0.030181 0.377147 0.119674
H38   H     H_    0.046311 0.699679 0.116279 0.127783
H39   H     H_    0.954137 0.300892 0.883728 0.128315
H40   H     H_    0.716735 0.120446 0.044611 0.121047
H41   H     H_    0.283505 0.879656 0.954818 0.120984
H42   H     H_    0.118129 0.036712 0.698332 0.129953
H43   H     H_    0.881828 0.963167 0.301038 0.129937
H44   H     H_    0.159813 0.535392 0.497264 0.358188
H45   H     H_    0.702539 0.969796 0.112049 0.118768
H46   H     H_    0.801891 0.452778 0.512651 0.372165
H47   H     H_    0.498813 0.500502 0.167483 0.364904
H48   H     H_    0.499820 0.499247 0.832932 0.365225
H49   H     H_    0.492012 0.160086 0.535522 0.364993
H50   H     H_    0.507651 0.839527 0.466519 0.364905
H51   H     H_    0.297482 0.030260 0.887879 0.118950
H52   H     H_    0.977308 0.662191 0.436462 0.149793
H53   H     H_    0.022739 0.337797 0.563550 0.148773
H54   H     H_    0.661649 0.437302 0.979588 0.151695
O1    O     O_3   0.250000 0.250000 0.250000 -0.456472
O2    O     O_R   0.865800 0.694910 0.573470 -0.539883
O3    O     O_R   0.305090 0.426530 0.134200 -0.532389
O4    O     O_R   0.694910 0.573470 0.865800 -0.532206
O5    O     O_R   0.426530 0.134200 0.305090 -0.545308
O6    O     O_R   0.573470 0.865800 0.694910 -0.545315
O7    O     O_R   0.134190 0.426530 0.134200 -0.546037
O8    O     O_R   0.865810 0.573470 0.865800 -0.546306
O9    O     O_R   0.426530 0.134200 0.134190 -0.554070
O10   O     O_R   0.573470 0.865800 0.865810 -0.554044
O11   O     O_R   0.134200 0.134190 0.426530 -0.547235
O12   O     O_3   0.750000 0.750000 0.750000 -0.456285
O13   O     O_R   0.865800 0.865810 0.573470 -0.547477
O14   O     O_R   0.426530 0.305080 0.134210 -0.528933
O15   O     O_R   0.573470 0.694920 0.865790 -0.529038
O16   O     O_R   0.305080 0.134210 0.426530 -0.527171
O17   O     O_R   0.694920 0.865790 0.573470 -0.526837
O18   O     O_R   0.134210 0.426530 0.305080 -0.538442
O19   O     O_R   0.865790 0.573470 0.694920 -0.539886
O20   O     O_2   0.249561 0.441727 0.398622 -0.212321
O21   O     O_2   0.319844 0.557427 0.311409 -0.218419
O22   O     O_3   0.170342 0.585826 0.441007 -0.556683
O23   O     O_R   0.305080 0.134200 0.134200 -0.508399
O24   O     O_2   0.680962 0.440986 0.689027 -0.241025
O25   O     O_2   0.750896 0.557332 0.601336 -0.198821
O26   O     O_3   0.830787 0.413514 0.559198 -0.567661
O27   O     O_2   0.426109 0.382855 0.264196 -0.221602
O28   O     O_2   0.546695 0.314394 0.325124 -0.207929
O29   O     O_3   0.553436 0.451434 0.179473 -0.511281
O30   O     O_2   0.453633 0.685263 0.674640 -0.208809
O31   O     O_2   0.573754 0.615899 0.736416 -0.222144
O32   O     O_3   0.445490 0.548667 0.820614 -0.511459
O33   O     O_2   0.387882 0.252792 0.447071 -0.210588
O34   O     O_R   0.694920 0.865800 0.865800 -0.508397
O35   O     O_2   0.302407 0.315176 0.568456 -0.227368
O36   O     O_3   0.437231 0.168681 0.587680 -0.532323
O37   O     O_2   0.697277 0.684509 0.432300 -0.230426
O38   O     O_2   0.612769 0.746490 0.553906 -0.211771
O39   O     O_3   0.562103 0.830816 0.414120 -0.531967
O40   O     O_R   0.134200 0.134200 0.305080 -0.524786
O41   O     O_R   0.865800 0.865800 0.694920 -0.524783
O42   O     O_R   0.134200 0.305080 0.134200 -0.529534
O43   O     O_R   0.865800 0.694920 0.865800 -0.529387
O44   O     O_R   0.134200 0.305090 0.426530 -0.541000
S1    S     S_3+6 0.232130 0.540747 0.358965 0.053955
S2    S     S_3+6 0.768357 0.458342 0.641310 0.047901
S3    S     S_3+6 0.524795 0.358380 0.240550 0.069195
S4    S     S_3+6 0.475034 0.641184 0.759507 0.068375
S5    S     S_3+6 0.351987 0.230125 0.546749 0.057528
S6    S     S_3+6 0.647914 0.769420 0.454230 0.056959
Zn1   Zn    Zn3+2 0.206620 0.206630 0.380140 0.976358
Zn2   Zn    Zn3+2 0.793380 0.793370 0.619860 0.975916
Zn3   Zn    Zn3+2 0.206630 0.380140 0.206620 0.978707
Zn4   Zn    Zn3+2 0.793370 0.619860 0.793380 0.977607
Zn5   Zn    Zn3+2 0.380140 0.206620 0.206630 0.983384
Zn6   Zn    Zn3+2 0.619860 0.793380 0.793370 0.983475
Zn7   Zn    Zn3+2 0.206620 0.206620 0.206620 0.975164
Zn8   Zn    Zn3+2 0.793380 0.793380 0.793380 0.975086

loop_
_geom_bond_atom_site_label_1
_geom_bond_atom_site_label_2
_ccdc_geom_bond_type
C25   C31   A    
C89   H34   S    
C101  C107  A    
C49   C63   A    
O17   Zn2   S    
C86   H12   S    
C37   H41   S    
C36   C42   A    
C1    C11   S    
C38   H42   S    
C87   H26   S    
O30   S4    D    
C41   H19   S    
C36   H40   S    
O25   S2    D    
O34   Zn8   S    
C5    C105  A    
C94   H13   S    
O38   S6    D    
C9    C108  A    
C29   C36   A    
O14   Zn5   S    
C33   C39   A    
C82   C89   A    
O8    Zn4   S    
C92   H45   S    
C34   C40   A    
C23   C29   A    
H46   O26   S    
C86   C93   A    
C97   H16   S    
C42   C98   A    
C59   C66   A    
C22   C60   S    
C13   C46   A    
C77   C83   A    
H48   O32   S    
C71   O5    A    
C85   H10   S    
C69   O3    A    
C13   H30   S    
O12   Zn8   S    
C20   C61   S    
C19   C26   A    
C53   C68   S    
C70   O4    A    
C38   C45   A    
C80   C86   A    
O32   S4    S    
C74   C107  A    
C1    O9    A    
C95   H14   S    
C85   C92   A    
O16   Zn1   S    
O1    Zn3   S    
C94   C101  A    
C2    C44   A    
O15   Zn6   S    
O39   S6    S    
O43   Zn8   S    
C11   C105  A    
C6    C107  A    
C32   O11   A    
C57   C63   A    
C84   C91   A    
C72   O6    A    
C5    C79   A    
C17   S4    S    
C82   H7    S    
O27   S3    D    
O29   S3    S    
C95   C102  A    
C9    C103  A    
C69   O14   A    
C47   C53   A    
O11   Zn1   S    
C44   H21   S    
C23   C63   S    
C40   H18   S    
C80   H5    S    
C8    C65   S    
C27   C34   A    
C22   C28   A    
C39   H43   S    
C2    C17   A    
O10   Zn6   S    
C18   C25   A    
C68   O2    A    
C15   S2    S    
C35   C41   A    
C14   C76   A    
C21   O34   A    
O24   S2    D    
O3    Zn3   S    
C53   C60   A    
C48   C60   A    
O2    Zn2   S    
C15   C22   A    
C10   C21   S    
C58   C64   A    
C41   C87   A    
C16   S3    S    
C88   C94   A    
H49   O36   S    
C17   C24   A    
O35   S5    D    
O31   S4    D    
C97   C104  A    
C14   C20   A    
O6    Zn6   S    
C28   C35   A    
C49   H54   S    
C3    C8    A    
C33   H37   S    
O37   S6    D    
C51   C58   A    
C47   H52   S    
C34   H38   S    
C30   H35   S    
C16   C98   A    
C43   O13   A    
C91   C97   A    
C40   C76   A    
C30   C37   A    
C84   H9    S    
C51   C66   A    
C6    C100  A    
C54   O7    A    
C89   C95   A    
C77   F4    S    
C4    C78   A    
C52   C59   A    
O40   Zn7   S    
C29   H33   S    
C26   C33   A    
C81   H6    S    
C27   H31   S    
O13   Zn2   S    
O7    Zn3   S    
C7    C106  A    
C67   O44   A    
C19   S6    S    
O9    Zn5   S    
C4    C11   A    
C90   C96   A    
H47   O29   S    
O19   Zn4   S    
C93   C100  A    
O21   S1    D    
C39   C46   A    
C1    O23   A    
O1    Zn7   S    
C21   O10   A    
C20   C27   A    
O18   Zn3   S    
C16   C23   A    
C56   C70   S    
C6    C43   S    
C65   O8    A    
C52   C64   A    
C2    H28   S    
O42   Zn7   S    
C56   C62   A    
O12   Zn2   S    
C78   F5    S    
C32   O40   A    
O41   Zn8   S    
C55   C61   A    
C74   C81   A    
O5    Zn5   S    
C52   H4    S    
C79   C85   A    
C90   H23   S    
C15   C87   A    
C75   C108  A    
C76   H25   S    
C3    C103  A    
C31   H36   S    
C83   C90   A    
C45   H22   S    
C24   C62   S    
C7    C32   S    
C48   C55   A    
O1    Zn1   S    
C50   C57   A    
C75   F3    S    
C71   O16   A    
C91   H51   S    
C12   H29   S    
C25   C66   S    
C35   H39   S    
C12   C45   A    
H50   O39   S    
C47   C61   A    
C55   C67   S    
O20   S1    D    
C67   O18   A    
C75   C82   A    
C73   F1    S    
O44   Zn1   S    
C26   C64   S    
C100  C106  A    
C49   C56   A    
C28   H32   S    
C31   C38   A    
C99   H17   S    
O36   S5    S    
C42   H20   S    
C37   C44   A    
H44   O22   S    
O33   S5    D    
C5    C10   A    
C98   H27   S    
O28   S3    D    
C58   C72   S    
C73   C106  A    
O1    Zn5   S    
C48   H53   S    
C102  C108  A    
C88   H1    S    
C50   C62   A    
C4    C104  A    
C10   C104  A    
C51   H3    S    
C73   C80   A    
O12   Zn6   S    
C93   H11   S    
C50   H2    S    
C83   H8    S    
C43   O41   A    
C99   C105  A    
C24   C30   A    
C72   O17   A    
C65   O43   A    
C81   C88   A    
O4    Zn4   S    
O22   S1    S    
C68   O19   A    
C78   C84   A    
C70   O15   A    
C54   O42   A    
O12   Zn4   S    
C14   S1    S    
O23   Zn7   S    
O26   S2    S    
C7    C101  A    
C79   F6    S    
C12   C18   A    
C13   C19   A    
C46   H24   S    
C9    C54   S    
C57   C69   S    
C74   F2    S    
C96   C103  A    
C18   S5    S    
C8    C102  A    
C92   C99   A    
C59   C71   S    
C96   H15   S    
C3    C77   A    
