data_mof_unit_5887.cif
_audit_creation_date              2012-12-10T17:12:53-0500
_audit_creation_method            fapswitch 2.2
_symmetry_space_group_name_H-M    P1
_symmetry_Int_Tables_number       1
_space_group_crystal_system       triclinic
_cell_length_a                    14.3208
_cell_length_b                    12.931003
_cell_length_c                    11.826719
_cell_angle_alpha                 99.053454
_cell_angle_beta                  92.885358
_cell_angle_gamma                 91.623872
_cell_volume                      2158.61269847

loop_
_atom_site_label
_atom_site_type_symbol
_atom_type_description
_atom_site_fract_x
_atom_site_fract_y
_atom_site_fract_z
_atom_type_partial_charge
C1    C     C_R   0.506311 0.300380 0.479185 0.811260
C2    C     C_R   0.493013 0.699509 0.520806 0.811201
C3    C     C_R   0.460630 0.025913 0.525770 0.076512
C4    C     C_R   0.533885 0.972417 0.467529 0.066867
C5    C     C_R   0.380797 0.461590 0.040828 0.079188
C6    C     C_R   0.619173 0.538693 0.959216 0.079974
C7    C     C_R   0.400465 0.448670 0.154920 0.025380
C8    C     C_R   0.599496 0.551484 0.845087 0.025871
C9    C     C_R   0.553636 0.522073 0.150387 0.319034
C10   C     C_R   0.446345 0.478040 0.849655 0.319471
C11   C     C_R   0.544377 0.514602 0.027893 -0.028649
C12   C     C_R   0.455608 0.485605 0.972155 -0.028870
C13   C     C_R   0.331328 0.498969 0.500558 0.811741
C14   C     C_R   0.668672 0.501143 0.499435 0.809956
C15   C     C_1   0.228969 0.498205 0.501508 -0.214929
C16   C     C_1   0.771034 0.501801 0.498392 -0.213738
C17   C     C_1   0.143471 0.498410 0.501247 -0.021342
C18   C     C_1   0.856525 0.501486 0.498578 -0.020296
C19   C     C_1   0.042748 0.499411 0.500348 -0.001236
C20   C     C_1   0.957246 0.500427 0.499443 -0.002301
C21   C     C_R   0.480100 0.812040 0.530601 -0.107573
C22   C     C_R   0.517906 0.187660 0.468680 -0.104261
C23   C     C_R   0.599574 0.026653 0.408454 0.164941
C24   C     C_R   0.393311 0.971174 0.582155 0.164477
C25   C     C_R   0.590656 0.135957 0.408395 0.118735
C26   C     C_R   0.405469 0.863029 0.588148 0.107271
C27   C     C_R   0.456491 0.133785 0.527305 -0.296702
C28   C     C_R   0.540432 0.865459 0.470129 -0.295398
Cu1   Cu    Cu3+1 0.506360 0.507730 0.615930 0.915721
Cu2   Cu    Cu3+1 0.493640 0.492270 0.384070 0.917137
H1    H     H_    0.593240 0.820187 0.425294 0.158643
H2    H     H_    0.405234 0.179379 0.574810 0.157385
H3    H     H_    0.655361 0.576982 0.796694 0.152002
H4    H     H_    0.344574 0.423210 0.203297 0.151995
N1    N     N_R   0.515930 0.519350 0.790130 -0.195442
N2    N     N_R   0.484070 0.480650 0.209870 -0.195218
O1    O     O_R   0.504510 0.354460 0.582000 -0.582713
O2    O     O_R   0.495490 0.645540 0.418000 -0.581191
O3    O     O_R   0.493770 0.341410 0.386200 -0.581006
O4    O     O_R   0.506230 0.658590 0.613800 -0.583154
O5    O     O_R   0.381420 0.506530 0.597920 -0.566222
O6    O     O_R   0.618580 0.493470 0.402080 -0.565083
O7    O     O_R   0.370680 0.493470 0.402120 -0.569594
O8    O     O_R   0.629320 0.506530 0.597880 -0.569893
C29   C     C_3   0.337859 0.801227 0.650833 -0.416326
C30   C     C_3   0.248060 0.766458 0.578020 -0.823370
H5    H     H_    0.205421 0.833946 0.564953 0.258030
H6    H     H_    0.264940 0.723186 0.493191 0.250033
H7    H     H_    0.205219 0.714058 0.622430 0.243502
H8    H     H_    0.368401 0.730102 0.675085 0.230833
H9    H     H_    0.322441 0.845903 0.735281 0.184480
C31   C     C_3   0.662357 0.198512 0.352762 -0.422003
C32   C     C_3   0.746834 0.232890 0.435586 -0.843007
H10   H     H_    0.724510 0.284598 0.512790 0.251167
H11   H     H_    0.781083 0.164672 0.463709 0.246121
H12   H     H_    0.798725 0.276599 0.392771 0.249712
H13   H     H_    0.684416 0.153681 0.271331 0.203454
H14   H     H_    0.633339 0.269149 0.325025 0.230261
C33   C     C_3   0.678459 0.967995 0.346156 -0.413336
C34   C     C_3   0.643370 0.910287 0.228220 -0.850502
H15   H     H_    0.584850 0.853922 0.235112 0.259068
H16   H     H_    0.618833 0.967375 0.173268 0.252976
H17   H     H_    0.701234 0.866385 0.186412 0.239836
H18   H     H_    0.738815 0.019323 0.334150 0.213599
H19   H     H_    0.711235 0.913365 0.398442 0.187191
C35   C     C_3   0.308173 0.027820 0.632038 -0.405443
C36   C     C_3   0.238811 0.052259 0.537563 -0.831632
H20   H     H_    0.268292 0.110539 0.488547 0.248456
H21   H     H_    0.218562 0.980122 0.476245 0.254512
H22   H     H_    0.174816 0.084681 0.576689 0.237805
H23   H     H_    0.268136 0.983079 0.686438 0.210397
H24   H     H_    0.330617 0.100391 0.691496 0.183078
C37   C     C_3   0.368406 0.407744 0.785372 -0.767228
H25   H     H_    0.389483 0.363849 0.704861 0.255545
H26   H     H_    0.349370 0.343544 0.832758 0.193792
H27   H     H_    0.306242 0.453159 0.767961 0.222526
C38   C     C_3   0.631545 0.592375 0.214719 -0.768912
H28   H     H_    0.610377 0.636463 0.295076 0.256931
H29   H     H_    0.693649 0.546954 0.232348 0.222826
H30   H     H_    0.650735 0.656421 0.167232 0.197863
C39   C     C_3   0.278335 0.466502 0.004954 -0.890233
H31   H     H_    0.237483 0.495930 0.080120 0.229035
H32   H     H_    0.267727 0.523392 0.944904 0.245119
H33   H     H_    0.248461 0.387664 0.967976 0.235352
C40   C     C_3   0.721662 0.534060 0.995112 -0.890960
H34   H     H_    0.762524 0.504502 0.919997 0.229043
H35   H     H_    0.751426 0.613024 0.031806 0.235131
H36   H     H_    0.732412 0.477385 0.055369 0.245327

loop_
_geom_bond_atom_site_label_1
_geom_bond_atom_site_label_2
_ccdc_geom_bond_type
C38   H28   S    
C21   C26   A    
C7    N2    A    
C19   C20   T    
C13   O5    A    
C39   H31   S    
C32   H10   S    
C23   C33   S    
C30   H7    S    
C33   H18   S    
C6    C40   S    
C34   H17   S    
C24   C26   A    
C10   C37   S    
C32   H12   S    
C29   H9    S    
Cu2   O2    S    
C34   H16   S    
C37   H25   S    
C26   C29   S    
C39   H32   S    
C35   H24   S    
C22   C25   A    
C9    N2    A    
C10   N1    A    
C24   C35   S    
C14   O6    A    
C32   H11   S    
C35   C36   S    
C1    C22   S    
C37   H26   S    
C3    C24   A    
C4    C28   A    
C38   H29   S    
C31   H14   S    
C30   H6    S    
C40   H35   S    
C36   H20   S    
C5    C12   A    
C6    C11   A    
C5    C7    A    
C4    C23   A    
C17   C19   S    
C6    C8    A    
C40   H34   S    
C34   H15   S    
C36   H21   S    
C8    N1    A    
Cu1   Cu2   S    
C2    O4    A    
C5    C39   S    
C2    O2    A    
C35   H23   S    
C2    C21   S    
C9    C38   S    
C9    C11   A    
C10   C12   A    
C21   C28   A    
C22   C27   A    
C13   C15   S    
Cu1   O8    S    
C37   H27   S    
C14   C16   S    
Cu2   O7    S    
C3    C4    A    
C13   O7    A    
C39   H33   S    
C31   C32   S    
C40   H36   S    
C14   O8    A    
C38   H30   S    
C15   C17   T    
C30   H5    S    
Cu1   O5    S    
C27   H2    S    
C28   H1    S    
C11   C12   A    
C1    O1    A    
Cu1   N1    S    
Cu2   N2    S    
C36   H22   S    
C3    C27   A    
C25   C31   S    
C33   H19   S    
C29   H8    S    
Cu1   O4    S    
C7    H4    S    
Cu2   O3    S    
C18   C20   S    
C8    H3    S    
C23   C25   A    
C31   H13   S    
C1    O3    A    
C29   C30   S    
C33   C34   S    
C16   C18   T    
Cu1   O1    S    
Cu2   O6    S    
