data_mof_unit_55911.cif
_audit_creation_date              2012-12-10T17:49:42-0500
_audit_creation_method            fapswitch 2.2
_symmetry_space_group_name_H-M    P1
_symmetry_Int_Tables_number       1
_space_group_crystal_system       triclinic
_cell_length_a                    10.499688
_cell_length_b                    10.735808
_cell_length_c                    9.940466
_cell_angle_alpha                 91.927021
_cell_angle_beta                  90.287965
_cell_angle_gamma                 92.147669
_cell_volume                      1119.07301293

loop_
_atom_site_label
_atom_site_type_symbol
_atom_type_description
_atom_site_fract_x
_atom_site_fract_y
_atom_site_fract_z
_atom_type_partial_charge
C1    C     C_R   0.505783 0.260215 0.497798 0.886115
C2    C     C_R   0.603712 0.071723 0.585129 0.048646
C3    C     C_R   0.520386 0.127270 0.492971 -0.150891
C4    C     C_R   0.257721 0.501373 0.500005 0.909056
C5    C     C_R   0.444304 0.053084 0.401758 0.006082
C6    C     C_R   0.437710 0.926906 0.414776 -0.178512
C7    C     C_R   0.514909 0.871323 0.506380 -0.100579
C8    C     C_R   0.315772 0.354069 0.132040 -0.202977
C9    C     C_R   0.223384 0.284288 0.058487 -0.135353
C10   C     C_R   0.227234 0.279905 0.919444 -0.127862
C11   C     C_R   0.321427 0.347722 0.853206 -0.155877
C12   C     C_3   0.957089 0.471114 0.374680 -0.225660
C13   C     C_R   0.411008 0.426200 0.924316 0.166731
C14   C     C_R   0.409699 0.427766 0.068617 0.161806
C15   C     C_R   0.586108 0.569753 0.074476 -0.076752
C16   C     C_R   0.506718 0.739155 0.502358 0.872942
C17   C     C_R   0.585709 0.570163 0.931542 -0.076099
C18   C     C_R   0.742418 0.500133 0.500127 0.856469
C19   C     C_3   0.042646 0.531041 0.625548 -0.109509
C20   C     C_3   0.955329 0.416246 0.586933 -0.162285
C21   C     C_3   0.877442 0.500354 0.499827 -0.012707
C22   C     C_3   0.961769 0.615201 0.538621 -0.146334
C23   C     C_3   0.037197 0.388717 0.462774 -0.024360
C24   C     C_3   0.044325 0.586110 0.413841 -0.158724
C25   C     C_2   0.081232 0.261835 0.423748 0.392244
C26   C     C_2   0.376846 0.100596 0.285107 0.423925
C27   C     C_3   0.122712 0.501905 0.500667 -0.027703
C28   C     C_R   0.691808 0.142381 0.668286 -0.312024
C29   C     C_R   0.772404 0.084571 0.757251 0.395813
C30   C     C_R   0.772543 0.954586 0.759060 0.399137
C31   C     C_R   0.689953 0.883521 0.674495 -0.335857
C32   C     C_R   0.602188 0.940859 0.589985 0.054713
Cl1   Cl    Cl    0.876790 0.877755 0.864775 -0.580100
Cl2   Cl    Cl    0.873051 0.177191 0.865195 -0.621932
H1    H     H_    0.915277 0.346959 0.656602 0.193346
H2    H     H_    0.081227 0.555489 0.727644 0.179223
H3    H     H_    0.925889 0.707734 0.569724 0.168168
H4    H     H_    0.085061 0.655331 0.343879 0.173193
H5    H     H_    0.918817 0.445772 0.272654 0.174294
H6    H     H_    0.701616 0.242521 0.664005 0.195685
H7    H     H_    0.049057 0.216733 0.329846 0.103137
H8    H     H_    0.428133 0.160302 0.216953 0.087051
H9    H     H_    0.697196 0.783505 0.675279 0.187970
H10   H     H_    0.375024 0.870149 0.348099 0.191256
H11   H     H_    0.656490 0.626900 0.130374 0.164088
H12   H     H_    0.315217 0.342457 0.237791 0.207025
H13   H     H_    0.151272 0.229370 0.109546 0.204189
H14   H     H_    0.158634 0.221525 0.862396 0.226998
H15   H     H_    0.322106 0.334313 0.746731 0.227696
H16   H     H_    0.655710 0.627716 0.880494 0.169577
N1    N     N_R   0.498800 0.498800 0.142780 -0.126640
N2    N     N_R   0.498760 0.498720 0.857170 -0.128512
O1    O     O_R   0.500000 0.316780 0.614690 -0.626809
O2    O     O_2   0.267424 0.065215 0.258629 -0.561860
O3    O     O_R   0.499990 0.316750 0.385360 -0.656230
O4    O     O_R   0.313960 0.499980 0.614650 -0.636533
O5    O     O_R   0.313940 0.499960 0.385310 -0.644302
O6    O     O_R   0.500010 0.683250 0.614640 -0.613281
O7    O     O_R   0.500000 0.683220 0.385310 -0.618689
O8    O     O_R   0.686060 0.500040 0.614690 -0.630548
O9    O     O_R   0.686040 0.500020 0.385350 -0.617847
O10   O     O_2   0.151082 0.207718 0.498875 -0.549857
Zn1   Zn    Zn3+2 0.500010 0.500020 0.653130 0.958202
Zn2   Zn    Zn3+2 0.499990 0.499980 0.346870 0.948430

loop_
_geom_bond_atom_site_label_1
_geom_bond_atom_site_label_2
_ccdc_geom_bond_type
C17   H16   S    
C4    O5    A    
O9    Zn2   S    
C24   H4    S    
C20   C23   S    
C18   O9    A    
C6    C7    A    
C11   H15   S    
C15   N1    A    
C18   C21   S    
C11   C13   A    
C9    C10   A    
C12   C24   S    
C14   N1    A    
N2    Zn1   S    
C24   C27   S    
C30   C31   A    
C19   H2    S    
O3    Zn2   S    
C4    C27   S    
C12   H5    S    
C22   H3    S    
C2    C3    A    
C1    O3    A    
O4    Zn1   S    
C16   O6    A    
C21   C22   S    
C4    O4    A    
O1    Zn1   S    
C12   C23   S    
O7    Zn2   S    
C29   C30   A    
C31   H9    S    
C29   Cl2   S    
O8    Zn1   S    
C26   O2    D    
C17   N2    A    
C18   O8    A    
C28   C29   A    
C9    H13   S    
C23   C27   S    
C25   O10   D    
C23   C25   S    
C10   H14   S    
C5    C6    A    
C22   C24   S    
C10   C11   A    
C28   H6    S    
C19   C20   S    
C5    C26   S    
C13   N2    A    
C19   C22   S    
C19   C27   S    
C20   C21   S    
C26   H8    S    
O5    Zn2   S    
C2    C32   A    
C6    H10   S    
C25   H7    S    
O6    Zn1   S    
C15   C17   A    
C1    O1    A    
C7    C16   S    
C2    C28   A    
C7    C32   A    
C8    C14   A    
C30   Cl1   S    
C3    C5    A    
C13   C14   A    
C20   H1    S    
C12   C21   S    
C16   O7    A    
C8    H12   S    
N1    Zn2   S    
C31   C32   A    
C8    C9    A    
C1    C3    S    
C15   H11   S    
