data_mof_unit_66511.cif
_audit_creation_date              2012-12-10T19:57:50-0500
_audit_creation_method            fapswitch 2.2
_symmetry_space_group_name_H-M    P1
_symmetry_Int_Tables_number       1
_space_group_crystal_system       triclinic
_cell_length_a                    38.773949
_cell_length_b                    32.112157
_cell_length_c                    21.757541
_cell_angle_alpha                 89.547005
_cell_angle_beta                  124.165867
_cell_angle_gamma                 90.153316
_cell_volume                      22414.4609663

loop_
_atom_site_label
_atom_site_type_symbol
_atom_type_description
_atom_site_fract_x
_atom_site_fract_y
_atom_site_fract_z
_atom_type_partial_charge
C1    C     C_R   0.419302 0.500040 0.419314 0.937615
C2    C     C_R   0.580699 0.499961 0.580684 0.939573
C3    C     C_R   0.919302 0.000040 0.419314 0.939136
C4    C     C_R   0.080698 0.999961 0.580684 0.938467
C5    C     C_R   0.271677 0.517923 0.320509 -0.185176
C6    C     C_R   0.728238 0.514073 0.676481 -0.176858
C7    C     C_R   0.771677 0.018208 0.320283 -0.179215
C8    C     C_R   0.228239 0.013335 0.676069 -0.183406
C9    C     C_R   0.293319 0.500168 0.293062 0.163599
C10   C     C_R   0.706682 0.499910 0.706878 0.162071
C11   C     C_R   0.793319 0.000176 0.293058 0.159864
C12   C     C_R   0.206682 0.999893 0.706871 0.165585
C13   C     C_R   0.271709 0.482377 0.222399 -0.167889
C14   C     C_R   0.728379 0.485777 0.780504 -0.163133
C15   C     C_R   0.771708 0.982111 0.222616 -0.161857
C16   C     C_R   0.228378 0.986472 0.780898 -0.168936
C17   C     C_1   0.162207 0.500021 0.162118 -0.067044
C18   C     C_1   0.837794 0.499959 0.837869 -0.055221
C19   C     C_1   0.662206 0.000033 0.162116 -0.055608
C20   C     C_1   0.337794 0.999936 0.837863 -0.067343
C21   C     C_1   0.337741 0.500151 0.337510 -0.062697
C22   C     C_1   0.662260 0.499884 0.662456 -0.055467
C23   C     C_1   0.837741 0.000155 0.337508 -0.056432
C24   C     C_1   0.162260 0.999876 0.662452 -0.061935
C25   C     C_1   0.375051 0.500117 0.374913 -0.144856
C26   C     C_1   0.624950 0.499891 0.625071 -0.139661
C27   C     C_1   0.875051 0.000118 0.374912 -0.140313
C28   C     C_1   0.124949 0.999889 0.625069 -0.144445
C29   C     C_1   0.124893 0.499991 0.124854 -0.172730
C30   C     C_1   0.875107 0.499972 0.875143 -0.160000
C31   C     C_1   0.624893 0.999999 0.124853 -0.160318
C32   C     C_1   0.375107 0.999957 0.875141 -0.173097
C33   C     C_R   0.500042 0.419366 0.000015 0.913540
C34   C     C_R   0.000038 0.919366 0.000124 0.913570
C35   C     C_R   0.499904 0.501683 0.880589 0.951475
C36   C     C_R   0.500097 0.498295 0.119411 0.951239
C37   C     C_R   0.999904 0.001684 0.880589 0.954283
C38   C     C_R   0.000097 0.998296 0.119411 0.950669
C39   C     C_R   0.499960 0.580720 0.999945 0.908645
C40   C     C_R   0.999960 0.080720 0.999946 0.908696
C41   C     C_R   0.502602 0.499713 0.621614 0.974658
C42   C     C_R   0.497381 0.500270 0.378368 0.976545
C43   C     C_R   0.002602 0.999714 0.621614 0.976359
C44   C     C_R   0.997381 0.000270 0.378368 0.974812
C45   C     C_R   0.000002 0.419397 0.000221 0.900465
C46   C     C_R   0.500003 0.919397 0.000221 0.900411
C47   C     C_R   0.080635 0.499978 0.080598 0.899684
C48   C     C_R   0.919365 0.499992 0.919402 0.911516
C49   C     C_R   0.580635 0.999981 0.080598 0.910628
C50   C     C_R   0.419365 0.999986 0.919402 0.898838
C51   C     C_R   0.999963 0.580611 0.999724 0.897706
C52   C     C_R   0.500030 0.080612 0.999826 0.895398
C53   C     C_R   0.978944 0.727873 0.027056 -0.056391
C54   C     C_R   0.012181 0.728300 0.958031 -0.054533
C55   C     C_R   0.495657 0.227640 0.051455 -0.055532
C56   C     C_R   0.514371 0.228439 0.960168 -0.056159
C57   C     C_R   0.994941 0.706524 0.991506 0.022997
C58   C     C_R   0.505629 0.206469 0.006542 0.022921
C59   C     C_R   0.512424 0.272365 0.957833 -0.072192
C60   C     C_R   0.493724 0.271560 0.048938 -0.068512
C61   C     C_R   0.014030 0.772199 0.961244 -0.070514
C62   C     C_R   0.980859 0.771776 0.030166 -0.069775
C63   C     C_R   0.501355 0.293360 0.001143 0.000554
C64   C     C_R   0.999069 0.793366 0.998452 0.000149
C65   C     C_1   0.996977 0.661896 0.995006 0.088971
C66   C     C_1   0.503355 0.161868 0.003270 0.088485
C67   C     C_1   0.500563 0.338051 0.000313 -0.080097
C68   C     C_1   0.999789 0.838051 0.999627 -0.080584
C69   C     C_1   0.500190 0.375273 0.000027 -0.179425
C70   C     C_1   0.000062 0.875272 0.000082 -0.179556
C71   C     C_2   0.533193 0.519642 0.817371 -0.248106
C72   C     C_2   0.466860 0.480199 0.182671 -0.252058
C73   C     C_2   0.033194 0.019641 0.817372 -0.253915
C74   C     C_2   0.966855 0.980208 0.182666 -0.249650
C75   C     C_1   0.998591 0.624691 0.997659 -0.095849
C76   C     C_1   0.501558 0.124681 0.001063 -0.095651
C77   C     C_R   0.977094 0.272118 0.933162 -0.176555
C78   C     C_R   0.022403 0.271401 0.067936 -0.177955
C79   C     C_R   0.476817 0.772116 0.933203 -0.177693
C80   C     C_R   0.522682 0.771402 0.067902 -0.176717
C81   C     C_R   0.999759 0.293394 0.000624 0.165240
C82   C     C_R   0.499760 0.793394 0.000628 0.165215
C83   C     C_R   0.522678 0.727991 0.067743 -0.176831
C84   C     C_R   0.476814 0.728709 0.933045 -0.179224
C85   C     C_R   0.022399 0.227989 0.067778 -0.178315
C86   C     C_R   0.977092 0.228711 0.933004 -0.177664
C87   C     C_R   0.499756 0.706715 0.000312 0.166378
C88   C     C_R   0.999755 0.206716 0.000309 0.166394
C89   C     C_1   0.999861 0.337824 0.000722 -0.065646
C90   C     C_1   0.499862 0.837824 0.000724 -0.065549
C91   C     C_1   0.499810 0.662287 0.000136 -0.066613
C92   C     C_1   0.999810 0.162287 0.000135 -0.066513
C93   C     C_1   0.499871 0.624982 0.000014 -0.176606
C94   C     C_1   0.999871 0.124982 0.000013 -0.176371
C95   C     C_1   0.999938 0.375131 0.000612 -0.172369
C96   C     C_1   0.499938 0.875132 0.000612 -0.172209
C97   C     C_2   0.499183 0.507324 0.814080 -0.341543
C98   C     C_2   0.500831 0.492629 0.185928 -0.333743
C99   C     C_2   0.999183 0.007325 0.814081 -0.335676
C100  C     C_2   0.000829 0.992630 0.185927 -0.343389
C101  C     C_2   0.532721 0.523883 0.749762 0.021043
C102  C     C_2   0.467343 0.475966 0.250296 0.025866
C103  C     C_2   0.032722 0.023882 0.749763 0.022151
C104  C     C_2   0.967337 0.975975 0.250290 0.021172
C105  C     C_2   0.508016 0.498032 0.692762 -0.344101
C106  C     C_2   0.491954 0.501912 0.307200 -0.345187
C107  C     C_2   0.008016 0.998032 0.692762 -0.342981
C108  C     C_2   0.991955 0.001913 0.307202 -0.346029
C109  C     C_R   0.228274 0.482331 0.179014 -0.181614
C110  C     C_R   0.771814 0.485793 0.823902 -0.173525
C111  C     C_R   0.728274 0.982068 0.179230 -0.176373
C112  C     C_R   0.271812 0.986484 0.824296 -0.180216
C113  C     C_R   0.206632 0.500075 0.206474 0.166236
C114  C     C_R   0.793369 0.499948 0.793496 0.161832
C115  C     C_R   0.706632 0.000088 0.206469 0.161972
C116  C     C_R   0.293369 0.999920 0.793486 0.165392
C117  C     C_R   0.228246 0.517878 0.277126 -0.177662
C118  C     C_R   0.771669 0.514092 0.719877 -0.166831
C119  C     C_R   0.728245 0.018166 0.276900 -0.165795
C120  C     C_R   0.271670 0.013349 0.719464 -0.177946
H1    H     H_    0.561676 0.527360 0.870321 0.174553
H2    H     H_    0.438404 0.472395 0.129741 0.171029
H3    H     H_    0.061677 0.027358 0.870322 0.172808
H4    H     H_    0.938397 0.972410 0.129734 0.176104
H5    H     H_    0.459028 0.712335 0.880716 0.142449
H6    H     H_    0.540484 0.711057 0.119948 0.144162
H7    H     H_    0.959521 0.212339 0.880644 0.144018
H8    H     H_    0.039991 0.211056 0.120014 0.142632
H9    H     H_    0.959531 0.289050 0.880920 0.145057
H10   H     H_    0.040004 0.287774 0.120290 0.143666
H11   H     H_    0.459039 0.789048 0.880992 0.143644
H12   H     H_    0.540497 0.787778 0.120224 0.145124
H13   H     H_    0.469450 0.503307 0.761242 0.154862
H14   H     H_    0.530552 0.496720 0.238760 0.157974
H15   H     H_    0.969450 0.003310 0.761242 0.157766
H16   H     H_    0.030551 0.996716 0.238759 0.155479
H17   H     H_    0.492482 0.472151 0.700028 0.141780
H18   H     H_    0.507403 0.527837 0.299834 0.139440
H19   H     H_    0.992481 0.972152 0.700027 0.145906
H20   H     H_    0.007413 0.027834 0.299844 0.140049
H21   H     H_    0.288400 0.468597 0.201011 0.152604
H22   H     H_    0.711757 0.474795 0.804190 0.150825
H23   H     H_    0.788400 0.968117 0.201400 0.155483
H24   H     H_    0.211754 0.976050 0.804898 0.148159
H25   H     H_    0.211608 0.468522 0.124299 0.145524
H26   H     H_    0.788547 0.474822 0.880918 0.148242
H27   H     H_    0.711608 0.968046 0.124688 0.148264
H28   H     H_    0.288544 0.976069 0.881624 0.145470
H29   H     H_    0.211560 0.531647 0.298530 0.142664
H30   H     H_    0.788288 0.525077 0.696187 0.148782
H31   H     H_    0.711559 0.032149 0.298133 0.149587
H32   H     H_    0.288290 0.023778 0.695461 0.143203
H33   H     H_    0.288342 0.531719 0.375234 0.140709
H34   H     H_    0.711507 0.525043 0.619464 0.143988
H35   H     H_    0.788342 0.032216 0.374837 0.144451
H36   H     H_    0.211508 0.023751 0.618740 0.140479
O1    O     O_R   0.439010 0.534430 0.439020 -0.633117
O2    O     O_R   0.560990 0.534430 0.560980 -0.585883
O3    O     O_R   0.939010 0.034430 0.439020 -0.631725
O4    O     O_R   0.060990 0.034430 0.560980 -0.586791
O5    O     O_R   0.060990 0.500040 0.112010 -0.618738
O6    O     O_R   0.939010 0.500040 0.887990 -0.613687
O7    O     O_R   0.560990 0.000040 0.112010 -0.612572
O8    O     O_R   0.439010 0.000040 0.887990 -0.618146
O9    O     O_R   0.060980 0.499970 0.009870 -0.613201
O10   O     O_R   0.939020 0.499970 0.990130 -0.609463
O11   O     O_R   0.560980 0.999970 0.009870 -0.609543
O12   O     O_R   0.439020 0.999970 0.990130 -0.614657
O13   O     O_R   0.000010 0.561020 0.051000 -0.610674
O14   O     O_R   0.999990 0.561020 0.949000 -0.595103
O15   O     O_R   0.500010 0.061020 0.051000 -0.596252
O16   O     O_R   0.499990 0.061020 0.949000 -0.606732
O17   O     O_R   0.439010 0.465570 0.438980 -0.584717
O18   O     O_R   0.560990 0.465570 0.561020 -0.628006
O19   O     O_R   0.939010 0.965570 0.438980 -0.582967
O20   O     O_R   0.060990 0.965570 0.561020 -0.630486
O21   O     O_R   0.500010 0.534430 0.590460 -0.585385
O22   O     O_R   0.499990 0.534430 0.409540 -0.638280
O23   O     O_R   0.000010 0.034430 0.590460 -0.584912
O24   O     O_R   0.999990 0.034430 0.409540 -0.637497
O25   O     O_R   0.500010 0.465570 0.590420 -0.634308
O26   O     O_R   0.499990 0.465570 0.409580 -0.579570
O27   O     O_R   0.000010 0.965570 0.590420 -0.632047
O28   O     O_R   0.999990 0.965570 0.409580 -0.583316
O29   O     O_R   0.534430 0.439010 0.034350 -0.604859
O30   O     O_R   0.465570 0.439010 0.965650 -0.625954
O31   O     O_R   0.034430 0.939010 0.034350 -0.621758
O32   O     O_R   0.965570 0.939010 0.965650 -0.609507
O33   O     O_R   0.534420 0.500000 0.943920 -0.614689
O34   O     O_R   0.465580 0.500000 0.056080 -0.618557
O35   O     O_R   0.034420 0.000000 0.943920 -0.618167
O36   O     O_R   0.965580 1.000000 0.056080 -0.615103
O37   O     O_R   0.465560 0.500000 0.875080 -0.627574
O38   O     O_R   0.534440 0.500000 0.124920 -0.622816
O39   O     O_R   0.965560 0.000000 0.875080 -0.622884
O40   O     O_R   0.034440 0.000000 0.124920 -0.627411
O41   O     O_R   0.534430 0.560990 0.034430 -0.618080
O42   O     O_R   0.465570 0.560990 0.965570 -0.615671
O43   O     O_R   0.034430 0.060990 0.034430 -0.619939
O44   O     O_R   0.965570 0.060990 0.965570 -0.613723
O45   O     O_R   0.000000 0.439050 0.051090 -0.616366
O46   O     O_R   0.000000 0.439050 0.948910 -0.616273
O47   O     O_R   0.500000 0.939050 0.051090 -0.616422
O48   O     O_R   0.500000 0.939050 0.948910 -0.616068
Zn1   Zn    Zn3+2 0.500000 0.545980 0.500000 1.006093
Zn2   Zn    Zn3+2 0.000000 0.045980 0.500000 1.006740
Zn3   Zn    Zn3+2 0.500000 0.454020 0.500000 1.021372
Zn4   Zn    Zn3+2 0.000000 0.954020 0.500000 1.019540
Zn5   Zn    Zn3+2 0.545980 0.500000 0.045940 0.981775
Zn6   Zn    Zn3+2 0.454020 0.500000 0.954060 0.961219
Zn7   Zn    Zn3+2 0.045980 0.000000 0.045940 0.961510
Zn8   Zn    Zn3+2 0.954020 0.000000 0.954060 0.981854
Zn9   Zn    Zn3+2 0.000010 0.500050 0.068180 0.990947
Zn10  Zn    Zn3+2 0.999990 0.500050 0.931820 1.002930
Zn11  Zn    Zn3+2 0.500010 0.000050 0.068180 1.001829
Zn12  Zn    Zn3+2 0.499990 0.000050 0.931820 0.994421
C121  C     C_2   0.962706 0.704468 0.065253 0.482329
H37   H     H_    0.968090 0.716089 0.116640 0.087104
O49   O     O_2   0.942485 0.672582 0.039074 -0.550877
C122  C     C_2   0.030786 0.705345 0.923923 0.477258
H38   H     H_    0.058508 0.717234 0.929073 0.086518
O50   O     O_2   0.014933 0.673545 0.888533 -0.548215
C123  C     C_2   0.484548 0.204059 0.097382 0.478807
H39   H     H_    0.460432 0.215721 0.103575 0.086155
O51   O     O_2   0.502728 0.171986 0.129937 -0.547792
C124  C     C_2   0.522860 0.205692 0.910423 0.481482
H40   H     H_    0.511428 0.217976 0.855541 0.086864
O52   O     O_2   0.543353 0.173609 0.930660 -0.549161
C125  C     C_2   0.562349 0.554236 0.751743 0.425831
H41   H     H_    0.574098 0.579520 0.791374 0.054212
O53   O     O_2   0.575605 0.550378 0.712788 -0.562247
C126  C     C_2   0.437820 0.445514 0.248423 0.428221
H42   H     H_    0.426202 0.420155 0.208949 0.056991
O54   O     O_2   0.424497 0.449367 0.287275 -0.567250
C127  C     C_2   0.062351 0.054234 0.751744 0.422164
H43   H     H_    0.074102 0.079517 0.791377 0.052073
O55   O     O_2   0.075607 0.050376 0.712789 -0.564736
C128  C     C_2   0.937803 0.945532 0.248406 0.426031
H44   H     H_    0.926170 0.920182 0.208913 0.062239
O56   O     O_2   0.924489 0.949384 0.287272 -0.563963
C129  C     C_2   0.484801 0.295502 0.097141 0.369925
H45   H     H_    0.467998 0.324824 0.077680 0.076185
O57   O     O_2   0.497603 0.283738 0.160019 -0.553350
C130  C     C_2   0.522843 0.297145 0.911948 0.376287
H46   H     H_    0.507137 0.326512 0.887128 0.077534
O58   O     O_2   0.550207 0.286018 0.904049 -0.550333
C131  C     C_2   0.963081 0.795930 0.064640 0.373015
H47   H     H_    0.977285 0.825061 0.092536 0.075137
O59   O     O_2   0.931491 0.784573 0.059521 -0.553174
C132  C     C_2   0.030512 0.796787 0.924500 0.371219
H48   H     H_    0.046638 0.825957 0.948319 0.081864
O60   O     O_2   0.024728 0.785738 0.865832 -0.552352

loop_
_geom_bond_atom_site_label_1
_geom_bond_atom_site_label_2
_ccdc_geom_bond_type
C43   C107  S    
C74   H4    S    
C14   H22   S    
C80   H12   S    
C87   C91   S    
C17   C29   T    
C83   C87   A    
C123  H39   S    
C84   C87   A    
C97   H13   S    
C117  H29   S    
C19   C31   T    
C44   O24   A    
C122  O50   D    
O37   Zn6   S    
O25   Zn3   S    
C17   C113  S    
C72   C98   D    
C10   C22   S    
C7    C11   A    
C71   C97   D    
C15   C111  A    
C1    O17   A    
C60   C129  S    
O44   Zn8   S    
C41   C105  S    
C29   C47   S    
C60   C63   A    
C36   O34   A    
C64   C68   S    
O12   Zn11  S    
C30   C48   S    
C16   H24   S    
C51   C75   S    
O26   Zn3   S    
C20   C32   T    
C79   C84   A    
C47   O9    A    
C86   C88   A    
C106  H18   S    
C112  C116  A    
C48   O6    A    
C55   C123  S    
C132  O60   D    
O22   Zn1   S    
C8    H36   S    
C130  H46   S    
C73   C99   D    
C129  H45   S    
C4    O20   A    
C11   C23   S    
C118  H30   S    
C9    C13   A    
O36   Zn8   S    
C62   C64   A    
O40   Zn7   S    
O7    Zn11  S    
C58   C66   S    
C39   C93   S    
C88   C92   S    
C56   C58   A    
C61   C132  S    
C73   H3    S    
C13   C109  A    
C127  H43   S    
C33   O30   A    
C18   C30   T    
C13   H21   S    
C44   O28   A    
O16   Zn12  S    
C109  C113  A    
O29   Zn5   S    
O15   Zn11  S    
C7    H35   S    
C44   C108  S    
C71   C101  S    
O23   Zn2   S    
C79   H11   S    
C35   O33   A    
C55   C60   A    
C1    C25   S    
O27   Zn4   S    
C127  O55   D    
C53   C121  S    
C52   O16   A    
C34   O31   A    
C11   C15   A    
O11   Zn12  S    
C31   C49   S    
C80   C83   A    
O24   Zn2   S    
C52   O15   A    
C126  O54   D    
C122  H38   S    
C4    C28   S    
C63   C67   S    
C23   C27   T    
C131  O59   D    
C101  C105  D    
C12   C16   A    
C39   O41   A    
C128  O56   D    
C120  H32   S    
O47   Zn11  S    
C50   O8    A    
C102  C126  S    
C7    C119  A    
C51   O13   A    
O1    Zn1   S    
C48   O10   A    
C2    C26   S    
C10   C14   A    
C57   C65   S    
C20   C116  S    
C53   C57   A    
C34   C70   S    
C45   O46   A    
C74   C100  D    
C40   O44   A    
C132  H48   S    
C105  H17   S    
C42   O26   A    
C116  C120  A    
C5    C117  A    
C59   C130  S    
C129  O57   D    
C33   O29   A    
O10   Zn9   S    
C89   C95   T    
C61   C64   A    
C104  C128  S    
C5    C9    A    
C125  H41   S    
C111  H27   S    
C91   C93   T    
C42   C106  S    
C53   C62   A    
C108  H20   S    
O21   Zn1   S    
C19   C115  S    
C8    C12   A    
C43   O23   A    
C92   C94   T    
C37   C99   S    
C99   H15   S    
C49   O11   A    
O17   Zn3   S    
C77   H9    S    
C1    O1    A    
O46   Zn10  S    
C34   O32   A    
C41   O25   A    
C32   C50   S    
C114  C118  A    
C15   H23   S    
C78   C85   A    
C80   C82   A    
C46   O47   A    
C37   O35   A    
C39   O42   A    
O31   Zn7   S    
C77   C86   A    
C124  H40   S    
C124  O52   D    
O30   Zn6   S    
C50   O12   A    
O18   Zn3   S    
C113  C117  A    
C83   H6    S    
O5    Zn9   S    
C45   C95   S    
C37   O39   A    
C110  C114  A    
C104  C108  D    
C38   O36   A    
C18   C114  S    
C16   C112  A    
O3    Zn2   S    
C74   C104  S    
O6    Zn10  S    
C85   C88   A    
C3    O19   A    
C84   H5    S    
C14   C110  A    
C8    C120  A    
C21   C25   T    
C128  H44   S    
C103  C127  S    
C72   H2    S    
C86   H7    S    
O2    Zn1   S    
C59   C63   A    
C71   H1    S    
C51   O14   A    
C109  H25   S    
C24   C28   T    
C40   C94   S    
C52   C76   S    
C54   C61   A    
C82   C90   S    
C98   H14   S    
C6    C10   A    
C79   C82   A    
C111  C115  A    
C131  H47   S    
C123  O51   D    
C90   C96   T    
O14   Zn10  S    
C40   O43   A    
C33   C69   S    
C46   O48   A    
C121  O49   D    
O13   Zn9   S    
O48   Zn12  S    
C115  C119  A    
C54   C122  S    
C65   C75   T    
C56   C59   A    
C56   C124  S    
C103  C107  D    
O20   Zn4   S    
C3    C27   S    
C78   H10   S    
C81   C89   S    
O39   Zn8   S    
C125  O53   D    
C38   C100  S    
C35   C97   S    
C2    O18   A    
O38   Zn5   S    
O45   Zn9   S    
O32   Zn8   S    
C78   C81   A    
C9    C21   S    
C62   C131  S    
C4    O4    A    
C72   C102  S    
C42   O22   A    
C41   O21   A    
C5    H33   S    
C121  H37   S    
C43   O27   A    
C126  H42   S    
C101  C125  S    
C130  O58   D    
C102  C106  D    
O43   Zn7   S    
O8    Zn12  S    
C38   O40   A    
C6    H34   S    
O34   Zn6   S    
C12   C24   S    
O42   Zn6   S    
C36   O38   A    
C49   O7    A    
C119  H31   S    
O41   Zn5   S    
C35   O37   A    
C3    O3    A    
O4    Zn2   S    
C47   O5    A    
C112  H28   S    
O9    Zn10  S    
C73   C103  S    
C46   C96   S    
C2    O2    A    
C45   O45   A    
C77   C81   A    
C22   C26   T    
C55   C58   A    
C68   C70   T    
O28   Zn4   S    
C85   H8    S    
C36   C98   S    
O33   Zn5   S    
C67   C69   T    
C110  H26   S    
C6    C118  A    
C107  H19   S    
C66   C76   T    
C100  H16   S    
O35   Zn7   S    
C54   C57   A    
O19   Zn4   S    
