data_mof_unit_23032.cif
_audit_creation_date              2012-12-10T20:44:01-0500
_audit_creation_method            fapswitch 2.2
_symmetry_space_group_name_H-M    P1
_symmetry_Int_Tables_number       1
_space_group_crystal_system       triclinic
_cell_length_a                    17.549084
_cell_length_b                    10.651512
_cell_length_c                    9.923933
_cell_angle_alpha                 89.026621
_cell_angle_beta                  91.115151
_cell_angle_gamma                 90.810601
_cell_volume                      1854.22791479

loop_
_atom_site_label
_atom_site_type_symbol
_atom_type_description
_atom_site_fract_x
_atom_site_fract_y
_atom_site_fract_z
_atom_type_partial_charge
C1    C     C_R   0.499807 0.260399 0.500704 0.874816
C2    C     C_R   0.886110 0.534790 0.510807 0.051283
C3    C     C_1   0.966315 0.542265 0.505283 -0.014360
C4    C     C_1   0.033792 0.544123 0.499523 -0.061019
C5    C     C_R   0.153770 0.529755 0.616956 -0.219414
C6    C     C_R   0.231990 0.516472 0.618258 -0.203068
C7    C     C_R   0.271012 0.512908 0.496632 -0.075499
C8    C     C_R   0.231008 0.525096 0.373462 -0.222180
C9    C     C_R   0.152116 0.538555 0.370897 0.235789
C10   C     C_R   0.113996 0.540167 0.494464 0.152176
C11   C     C_R   0.557188 0.064418 0.572984 0.127309
C12   C     C_R   0.353570 0.501964 0.498889 0.862930
C13   C     C_R   0.501578 0.128355 0.498828 -0.125226
C14   C     C_R   0.455937 0.065167 0.403723 -0.210509
C15   C     C_R   0.457500 0.935579 0.400792 -0.209853
C16   C     C_R   0.504655 0.871387 0.493124 -0.076468
C17   C     C_R   0.558730 0.936125 0.570197 0.079741
C18   C     C_3   0.581440 0.923824 0.715555 -0.502194
C19   C     C_3   0.578205 0.066439 0.719617 -0.028453
C20   C     C_R   0.434185 0.479236 0.069675 0.147144
C21   C     C_R   0.561754 0.539997 0.074855 -0.110288
C22   C     C_R   0.561673 0.543727 0.931530 0.186580
C23   C     C_R   0.501060 0.739480 0.498732 0.889037
C24   C     C_R   0.434324 0.476283 0.928242 0.158915
C25   C     C_3   0.381146 0.363826 0.929059 -0.063877
C26   C     C_3   0.380965 0.370492 0.082566 -0.487488
C27   C     C_R   0.646236 0.501881 0.500981 0.928164
C28   C     C_R   0.849398 0.467329 0.614900 0.246715
C29   C     C_R   0.770236 0.456517 0.609646 -0.312667
C30   C     C_R   0.728620 0.511873 0.503165 -0.209262
C31   C     C_R   0.766047 0.579604 0.401005 0.617488
C32   C     C_R   0.844680 0.590619 0.405171 -0.294668
H1    H     H_    0.418889 0.885748 0.333194 0.156339
H2    H     H_    0.536961 0.876601 0.777451 0.200375
H3    H     H_    0.639676 0.885164 0.728991 0.212347
H4    H     H_    0.531670 0.099549 0.782718 0.178614
H5    H     H_    0.611705 0.570103 0.131708 0.217176
H6    H     H_    0.324455 0.384221 0.882695 0.159197
H7    H     H_    0.324939 0.398174 0.121730 0.169377
H8    H     H_    0.741266 0.403307 0.687715 0.175102
H9    H     H_    0.407538 0.289714 0.137304 0.219544
H10   H     H_    0.873402 0.642194 0.325360 0.174004
H11   H     H_    0.124083 0.530538 0.711767 0.145685
H12   H     H_    0.261711 0.509362 0.714515 0.153810
H13   H     H_    0.260954 0.525007 0.279122 0.157722
H14   H     H_    0.416699 0.115276 0.337239 0.151961
N1    N     N_R   0.499490 0.499140 0.142800 -0.124283
N2    N     N_R   0.499490 0.499180 0.857150 -0.104830
O1    O     O_R   0.500010 0.316790 0.614690 -0.623103
O2    O     O_R   0.500000 0.316760 0.385350 -0.613558
O3    O     O_R   0.389120 0.500020 0.614710 -0.619685
O4    O     O_R   0.389110 0.499990 0.385370 -0.624611
O5    O     O_R   0.500000 0.683240 0.614650 -0.630230
O6    O     O_R   0.499990 0.683210 0.385310 -0.605591
O7    O     O_R   0.610890 0.500010 0.614630 -0.636717
O8    O     O_R   0.610880 0.499980 0.385290 -0.569603
Zn1   Zn    Zn3+2 0.500010 0.500020 0.653130 0.933626
Zn2   Zn    Zn3+2 0.499990 0.499980 0.346870 0.971603
C33   C     C_3   0.891589 0.405070 0.731268 -0.894146
H15   H     H_    0.954154 0.420169 0.727978 0.240591
H16   H     H_    0.871489 0.443181 0.827591 0.242785
H17   H     H_    0.879900 0.302349 0.730546 0.241760
C34   C     C_3   0.654944 0.131604 0.747225 -0.861782
H18   H     H_    0.699286 0.098745 0.678049 0.250545
H19   H     H_    0.648505 0.234528 0.733286 0.246212
H20   H     H_    0.673660 0.112018 0.852895 0.250569
C35   C     C_3   0.630640 0.600063 0.866463 -0.810603
H21   H     H_    0.613728 0.662224 0.781083 0.265008
H22   H     H_    0.663877 0.659763 0.937823 0.217822
H23   H     H_    0.668716 0.524300 0.835479 0.245353
C36   C     C_3   0.415097 0.241862 0.881280 -0.827548
H24   H     H_    0.476121 0.236914 0.912145 0.244145
H25   H     H_    0.384090 0.160480 0.926684 0.227977
H26   H     H_    0.407852 0.235448 0.770711 0.258566
F1    F     F_    0.726724 0.637488 0.299074 -0.683530
C37   C     C_3   0.111676 0.549896 0.235783 -0.944024
H27   H     H_    0.049311 0.561964 0.244070 0.251335
H28   H     H_    0.134826 0.632434 0.179390 0.241487
H29   H     H_    0.121450 0.464092 0.176857 0.241615

loop_
_geom_bond_atom_site_label_1
_geom_bond_atom_site_label_2
_ccdc_geom_bond_type
C22   N2    A    
C34   H19   S    
C37   H29   S    
N2    Zn1   S    
C14   H14   S    
C11   C19   S    
C18   H3    S    
C28   C29   A    
C37   H28   S    
C19   H4    S    
O6    Zn2   S    
C5    C6    A    
C27   O7    A    
C26   H7    S    
C15   C16   A    
O1    Zn1   S    
C2    C32   A    
C18   C19   S    
C8    H13   S    
C20   C24   A    
C19   C34   S    
C16   C17   A    
O3    Zn1   S    
C9    C37   S    
C1    O2    A    
C5    H11   S    
C34   H20   S    
C33   H15   S    
C6    H12   S    
C13   C14   A    
C27   C30   S    
C12   O4    A    
C23   O5    A    
C7    C12   S    
C33   H16   S    
C35   H21   S    
O2    Zn2   S    
C7    C8    A    
C37   H27   S    
C36   H25   S    
O5    Zn1   S    
C27   O8    A    
C8    C9    A    
C25   C26   S    
C35   H22   S    
C24   N2    A    
C29   C30   A    
C25   H6    S    
C31   F1    S    
C31   C32   A    
C17   C18   S    
C24   C25   S    
C18   H2    S    
O4    Zn2   S    
C25   C36   S    
C16   C23   S    
O7    Zn1   S    
C1    C13   S    
C4    C10   S    
C3    C4    T    
C12   O3    A    
C23   O6    A    
C9    C10   A    
C28   C33   S    
C11   C17   A    
C33   H17   S    
C36   H26   S    
C6    C7    A    
C35   H23   S    
C2    C3    S    
C36   H24   S    
N1    Zn2   S    
C11   C13   A    
C30   C31   A    
C20   C26   S    
C29   H8    S    
O8    Zn2   S    
C22   C35   S    
C20   N1    A    
C34   H18   S    
C5    C10   A    
C21   H5    S    
C32   H10   S    
C14   C15   A    
C2    C28   A    
C21   C22   A    
C1    O1    A    
C15   H1    S    
C26   H9    S    
C21   N1    A    
