data_mof_unit_45761.cif
_audit_creation_date              2012-12-11T17:01:16-0500
_audit_creation_method            fapswitch 2.2
_symmetry_space_group_name_H-M    P1
_symmetry_Int_Tables_number       1
_space_group_crystal_system       triclinic
_cell_length_a                    19.325796
_cell_length_b                    7.100245
_cell_length_c                    17.674684
_cell_angle_alpha                 90.000488
_cell_angle_beta                  108.486955
_cell_angle_gamma                 90.000571
_cell_volume                      2300.12818304

loop_
_atom_site_label
_atom_site_type_symbol
_atom_type_description
_atom_site_fract_x
_atom_site_fract_y
_atom_site_fract_z
_atom_type_partial_charge
O1    O     O_R   0.413720 0.494330 0.415730 -0.534987
O2    O     O_R   0.586280 0.994330 0.584270 -0.534966
O3    O     O_R   0.560210 0.819300 0.430070 -0.530716
O4    O     O_R   0.439790 0.319300 0.569930 -0.530714
C1    C     C_R   0.580538 0.654964 0.413412 0.794848
C2    C     C_R   0.419464 0.154964 0.586590 0.795066
O5    O     O_R   0.412670 0.823730 0.406310 -0.538066
O6    O     O_R   0.587330 0.323730 0.593690 -0.538264
O7    O     O_R   0.437690 0.998790 0.560340 -0.545089
O8    O     O_R   0.562310 0.498790 0.439660 -0.545165
C3    C     C_R   0.384792 0.655378 0.384093 0.724125
C4    C     C_R   0.615207 0.155380 0.615908 0.723975
O9    O     O_3   0.508380 0.662350 0.550560 -0.385626
O10   O     O_3   0.491620 0.162350 0.449440 -0.385570
V1    V     V_3+5 0.498450 0.935370 0.490620 1.516562
V2    V     V_3+5 0.501550 0.435370 0.509380 1.516317
C5    C     C_R   0.738331 0.008968 0.686861 0.055678
C6    C     C_R   0.261686 0.508875 0.313114 0.055290
C7    C     C_R   0.685663 0.148872 0.682013 -0.134298
C8    C     C_R   0.314331 0.648868 0.317993 -0.134049
C9    C     C_R   0.704575 0.291335 0.740842 -0.166209
C10   C     C_R   0.295395 0.791399 0.259198 -0.165492
H1    H     H_    0.667739 0.407733 0.738403 0.149160
H2    H     H_    0.332214 0.907849 0.261659 0.149130
C11   C     C_R   0.769369 0.278996 0.806398 -0.131085
C12   C     C_R   0.230601 0.779065 0.193642 -0.131511
H3    H     H_    0.780136 0.384989 0.852589 0.195652
H4    H     H_    0.219818 0.885110 0.147473 0.195752
C13   C     C_R   0.817222 0.124507 0.815096 -0.071294
C14   C     C_R   0.182773 0.624512 0.184910 -0.071235
C15   C     C_R   0.800935 0.995000 0.752539 -0.011983
C16   C     C_R   0.199084 0.494913 0.247432 -0.012035
C17   C     C_3   0.798764 0.785401 0.752057 0.367426
C18   C     C_3   0.201312 0.285319 0.247839 0.367367
C19   C     C_3   0.732935 0.800184 0.676444 0.164420
C20   C     C_3   0.267130 0.300078 0.323462 0.165286
H5    H     H_    0.848655 0.718784 0.745838 0.117620
H6    H     H_    0.151439 0.218536 0.254026 0.117613
H7    H     H_    0.681509 0.740038 0.681585 0.092193
H8    H     H_    0.318574 0.240078 0.318309 0.092144
C21   C     C_R   0.326212 0.987812 0.633739 -0.076280
C22   C     C_R   0.673786 0.487802 0.366257 -0.076038
C23   C     C_R   0.370668 0.146422 0.636601 -0.079663
C24   C     C_R   0.629332 0.646423 0.363398 -0.079594
C25   C     C_R   0.366797 0.299413 0.685738 -0.142960
C26   C     C_R   0.633202 0.799428 0.314260 -0.142854
C27   C     C_R   0.319555 0.294659 0.731796 0.169687
C28   C     C_R   0.680444 0.794670 0.268202 0.169701
C29   C     C_R   0.274384 0.136263 0.727713 -0.023226
C30   C     C_R   0.725616 0.636265 0.272285 -0.023248
C31   C     C_R   0.277426 0.982400 0.678162 -0.058154
C32   C     C_R   0.722573 0.482394 0.321835 -0.058184
C33   C     C_R   0.316499 0.446048 0.781710 -0.128659
C34   C     C_R   0.683497 0.946065 0.218285 -0.128640
C35   C     C_R   0.268527 0.441856 0.826613 -0.206919
C36   C     C_R   0.731458 0.941852 0.173369 -0.206937
C37   C     C_R   0.222883 0.285947 0.822588 0.122320
C38   C     C_R   0.777105 0.785936 0.177397 0.122330
C39   C     C_R   0.225999 0.132022 0.773182 0.062936
C40   C     C_R   0.774000 0.632024 0.226816 0.062936
C41   C     C_R   0.180854 0.973840 0.769247 -0.002921
C42   C     C_R   0.819156 0.473851 0.230762 -0.002919
C43   C     C_R   0.183564 0.822811 0.719055 -0.241544
C44   C     C_R   0.816444 0.322818 0.280954 -0.241550
C45   C     C_R   0.231216 0.826860 0.673710 0.640833
C46   C     C_R   0.768782 0.326849 0.326287 0.640930
C47   C     C_R   0.174567 0.280856 0.867479 -0.197500
C48   C     C_R   0.825412 0.780832 0.132495 -0.197553
C49   C     C_R   0.130142 0.122267 0.864909 -0.080703
C50   C     C_R   0.869857 0.622266 0.135087 -0.080717
C51   C     C_R   0.133760 0.969283 0.815529 -0.163136
C52   C     C_R   0.866257 0.469305 0.184490 -0.163126
H9    H     H_    0.328635 0.870105 0.595628 0.200204
H10   H     H_    0.671362 0.370085 0.404367 0.200262
H11   H     H_    0.400904 0.422120 0.688513 0.112783
H12   H     H_    0.599094 0.922147 0.311485 0.112771
H13   H     H_    0.350916 0.568536 0.785630 0.108878
H14   H     H_    0.649082 0.068566 0.214368 0.108852
H15   H     H_    0.266956 0.561080 0.864316 0.123420
H16   H     H_    0.733020 0.061068 0.135655 0.123403
H17   H     H_    0.172613 0.399032 0.905597 0.126596
H18   H     H_    0.827346 0.898981 0.094353 0.126575
H19   H     H_    0.099501 0.846814 0.812599 0.134784
H20   H     H_    0.900535 0.346859 0.187440 0.134788
H21   H     H_    0.148860 0.700852 0.715057 0.174675
H22   H     H_    0.851153 0.200862 0.284957 0.174678
O11   O     O_R   0.937800 0.775460 0.060470 -0.536209
O12   O     O_R   0.062200 0.275460 0.939530 -0.536201
O13   O     O_R   0.087350 0.441340 0.093710 -0.518081
O14   O     O_R   0.912650 0.941340 0.906290 -0.518052
C53   C     C_R   0.115167 0.610361 0.115721 0.704342
C54   C     C_R   0.884831 0.110358 0.884281 0.704284
O15   O     O_R   0.939820 0.446010 0.069950 -0.551327
O16   O     O_R   0.060180 0.946010 0.930050 -0.551324
O17   O     O_R   0.913690 0.271230 0.915700 -0.542577
O18   O     O_R   0.086310 0.771230 0.084300 -0.542619
C55   C     C_R   0.918838 0.614405 0.085207 0.713162
C56   C     C_R   0.081161 0.114405 0.914792 0.713210
O19   O     O_3   0.991670 0.603050 0.949510 -0.372824
O20   O     O_3   0.008330 0.103050 0.050490 -0.372870
V3    V     V_3+5 0.001550 0.329940 0.009370 1.481551
V4    V     V_3+5 0.998450 0.829940 0.990630 1.481561
F1    F     F_    0.232047 0.678459 0.625516 -0.637032
F2    F     F_    0.767944 0.178430 0.374470 -0.636882
F3    F     F_    0.779502 0.718431 0.816085 -0.716563
F4    F     F_    0.220603 0.218597 0.183792 -0.716621
S1    S     S_3+6 0.753095 0.731122 0.588024 0.026527
O21   O     O_2   0.713242 0.858846 0.520597 -0.291859
O22   O     O_2   0.833453 0.745730 0.599702 -0.312654
O23   O     O_3   0.725653 0.507974 0.564708 -0.497659
H23   H     H_    0.760450 0.430149 0.606094 0.347255
S2    S     S_3+6 0.246977 0.230757 0.411855 0.026143
O24   O     O_2   0.286763 0.358468 0.479316 -0.291931
O25   O     O_2   0.166611 0.245126 0.400162 -0.313085
O26   O     O_3   0.274508 0.007655 0.435125 -0.497949
H24   H     H_    0.239279 0.929659 0.394188 0.347697

loop_
_geom_bond_atom_site_label_1
_geom_bond_atom_site_label_2
_ccdc_geom_bond_type
C43   C45   A    
O18   V4    S    
S1    O22   D    
C19   H7    S    
O1    C3    A    
O2    C4    A    
C2    O7    A    
C26   H12   S    
O12   V3    S    
C32   C46   A    
C27   C29   A    
C28   C34   A    
C7    C9    A    
C37   C39   A    
O16   C56   A    
C38   C40   A    
O26   H24   S    
C40   C42   A    
C31   C45   A    
C25   C27   A    
C44   H22   S    
C49   C51   A    
O23   H23   S    
O14   V4    S    
C42   C44   A    
C17   C19   S    
C53   O18   A    
C29   C31   A    
C20   S2    S    
C30   C32   A    
S1    O21   D    
C15   C17   S    
O13   C53   A    
C6    C8    A    
C50   C55   S    
C27   C33   A    
C49   C56   S    
C41   C51   A    
C28   C30   A    
O6    V2    S    
C43   H21   S    
C21   C23   A    
C22   C24   A    
C37   C47   A    
S2    O25   D    
S2    O24   D    
C24   C26   A    
O5    C3    A    
C51   H19   S    
C33   C35   A    
C11   C13   A    
C34   C36   A    
C3    C8    S    
C22   H10   S    
C39   C41   A    
C18   F4    S    
C46   F2    S    
C20   H8    S    
C17   F3    S    
O4    C2    A    
O15   V3    S    
C54   O17   A    
C17   H5    S    
C47   C49   A    
C44   C46   A    
O4    V2    S    
C33   H13   S    
O11   V4    S    
C35   H15   S    
O14   C54   A    
O6    C4    A    
O20   V4    S    
C42   C52   A    
O1    V2    S    
O2    V1    S    
C23   C25   A    
C52   H20   S    
C38   C48   A    
O19   V3    S    
C1    C24   S    
C8    C10   A    
C47   H17   S    
C2    C23   S    
C35   C37   A    
C5    C15   A    
S1    O23   S    
C10   H2    S    
C6    C16   A    
C45   F1    S    
O15   C55   A    
O3    V1    S    
C9    C11   A    
O13   V3    S    
C18   H6    S    
C41   C43   A    
C14   C53   S    
O3    C1    A    
C29   C39   A    
C12   C14   A    
C11   H3    S    
C12   H4    S    
C36   H16   S    
C25   H11   S    
C48   H18   S    
C9    H1    S    
O7    V1    S    
C30   C40   A    
C1    O8    A    
C13   C15   A    
O8    V2    S    
C14   C16   A    
C4    C7    S    
O5    V1    S    
O20   V3    S    
C5    C7    A    
C36   C38   A    
C18   C20   S    
S2    O26   S    
C19   S1    S    
C21   H9    S    
C26   C28   A    
O19   V4    S    
O16   V4    S    
C48   C50   A    
C10   C12   A    
O9    V2    S    
C22   C32   A    
O10   V1    S    
C50   C52   A    
C5    C19   S    
C34   H14   S    
C6    C20   S    
C21   C31   A    
C13   C54   S    
O12   C56   A    
O17   V3    S    
C16   C18   S    
O11   C55   A    
