data_mof_unit_42103.cif
_audit_creation_date              2012-12-10T17:33:04-0500
_audit_creation_method            fapswitch 2.2
_symmetry_space_group_name_H-M    P1
_symmetry_Int_Tables_number       1
_space_group_crystal_system       triclinic
_cell_length_a                    12.425527
_cell_length_b                    13.317433
_cell_length_c                    14.21142
_cell_angle_alpha                 94.913863
_cell_angle_beta                  107.852333
_cell_angle_gamma                 116.844962
_cell_volume                      1926.40463372

loop_
_atom_site_label
_atom_site_type_symbol
_atom_type_description
_atom_site_fract_x
_atom_site_fract_y
_atom_site_fract_z
_atom_type_partial_charge
C1    C     C_R   0.651324 0.714207 0.510534 0.805087
C2    C     C_R   0.182684 0.461398 0.001258 0.150339
C3    C     C_R   0.140408 0.484913 0.078016 0.084199
C4    C     C_R   0.618377 0.517414 0.687602 0.911697
C5    C     C_R   0.291197 0.445069 0.027244 -0.156227
C6    C     C_R   0.357570 0.451636 0.128769 -0.190236
C7    C     C_R   0.202628 0.482617 0.177426 -0.239511
C8    C     C_R   0.154983 0.963472 0.393946 -0.197662
C9    C     C_R   0.263663 0.164493 0.487418 -0.031264
C10   C     C_R   0.751925 0.915651 0.609398 -0.162749
C11   C     C_R   0.867539 0.019327 0.663006 -0.147092
C12   C     C_R   0.855236 0.511649 0.923942 -0.014267
C13   C     C_R   0.974125 0.049308 0.635794 -0.218570
C14   C     C_R   0.962749 0.985331 0.544768 0.077603
C15   C     C_R   0.845167 0.876499 0.492625 0.074844
C16   C     C_R   0.349354 0.286291 0.491129 0.827181
C17   C     C_R   0.065072 0.021154 0.506413 0.000589
C18   C     C_R   0.053910 0.937638 0.428495 0.120211
C19   C     C_R   0.938286 0.831149 0.379937 -0.206927
C20   C     C_R   0.832761 0.804659 0.406853 -0.185392
C21   C     C_R   0.173141 0.137373 0.535780 0.194442
C22   C     C_R   0.259625 0.076049 0.423691 -0.231827
C23   C     C_R   0.841998 0.571602 0.002695 0.042982
C24   C     C_R   0.744544 0.838687 0.530904 -0.118042
C25   C     C_R   0.260413 0.723630 0.609030 -0.283921
C26   C     C_R   0.651340 0.328778 0.374613 0.081761
C27   C     C_R   0.726015 0.286716 0.349400 -0.247322
C28   C     C_R   0.380586 0.481304 0.312627 0.774388
C29   C     C_R   0.862296 0.352054 0.393603 -0.163751
C30   C     C_R   0.926901 0.462414 0.462803 -0.038859
C31   C     C_R   0.846980 0.503511 0.487648 0.232313
C32   C     C_R   0.068171 0.532980 0.509850 -0.044405
C33   C     C_R   0.124467 0.650687 0.561806 0.093098
C34   C     C_R   0.964105 0.493892 0.949230 0.109705
C35   C     C_R   0.045694 0.693760 0.573830 -0.283996
C36   C     C_R   0.915989 0.616634 0.558800 0.265188
C37   C     C_R   0.157369 0.493780 0.507923 0.028189
C38   C     C_R   0.341666 0.679603 0.607034 0.180540
C39   C     C_R   0.686149 0.530077 0.797297 -0.320827
C40   C     C_R   0.313148 0.470695 0.204354 -0.052881
C41   C     C_R   0.755413 0.613422 0.978839 -0.265095
C42   C     C_R   0.685772 0.602445 0.877201 0.339457
C43   C     C_R   0.759257 0.472806 0.823511 0.293198
C44   C     C_3   0.287073 0.283625 0.701872 -0.562806
C45   C     C_R   0.037590 0.510423 0.053521 0.068285
C46   C     C_3   0.935573 0.750104 0.705705 -0.706600
C47   C     C_R   0.012080 0.559767 0.130346 -0.208070
C48   C     C_R   0.918484 0.592922 0.104937 -0.164512
C49   C     C_R   0.009920 0.472592 0.874645 -0.131719
C50   C     C_R   0.117764 0.456972 0.900305 -0.213997
Cu1   Cu    Cu3+1 0.416420 0.526630 0.522910 0.996094
Cu2   Cu    Cu3+1 0.583580 0.473370 0.477090 0.982875
H1    H     H_    0.907157 0.636981 0.165828 0.129481
H2    H     H_    0.446183 0.737464 0.640792 0.182287
H3    H     H_    0.164427 0.487694 0.235100 0.153780
H4    H     H_    0.093439 0.783780 0.616864 0.173608
H5    H     H_    0.303939 0.814268 0.648865 0.160332
H6    H     H_    0.122397 0.406456 0.466050 0.122538
H7    H     H_    0.545769 0.276231 0.339842 0.120365
H8    H     H_    0.915358 0.315982 0.370483 0.137183
H9    H     H_    0.677719 0.202522 0.295177 0.153395
H10   H     H_    0.442815 0.441509 0.147928 0.157289
H11   H     H_    0.150744 0.441920 0.841002 0.160181
H12   H     H_    0.325677 0.428901 0.969383 0.150367
H13   H     H_    0.749786 0.662412 0.040297 0.189971
H14   H     H_    0.070001 0.582958 0.211083 0.138403
H15   H     H_    0.967536 0.474499 0.796879 0.189259
H16   H     H_    0.100071 0.237862 0.589074 0.250742
H17   H     H_    0.276310 0.348317 0.746981 0.219489
H18   H     H_    0.383384 0.329411 0.696020 0.260054
H19   H     H_    0.285137 0.216135 0.743210 0.208435
H20   H     H_    0.888656 0.579073 0.687435 0.268565
H21   H     H_    0.874173 0.747933 0.748895 0.220734
H22   H     H_    0.938655 0.812265 0.658626 0.246881
H23   H     H_    0.330683 0.095853 0.388870 0.160694
H24   H     H_    0.036080 0.780818 0.761825 0.216712
H25   H     H_    0.747568 0.821827 0.815024 0.334172
H26   H     H_    0.714193 0.263523 0.607403 0.376168
H27   H     H_    0.926970 0.770196 0.316964 0.134791
H28   H     H_    0.148318 0.898216 0.337717 0.145750
H29   H     H_    0.674311 0.889948 0.637661 0.186231
H30   H     H_    0.064834 0.119493 0.690946 0.169734
H31   H     H_    0.877732 0.072678 0.730690 0.175464
H32   H     H_    0.741643 0.725715 0.360498 0.159835
N1    N     N_R   0.290690 0.566960 0.557640 -0.178394
N2    N     N_R   0.709100 0.433710 0.442970 -0.186633
N3    N     N_2   0.182469 0.231273 0.600760 -0.445971
N4    N     N_2   0.880380 0.633822 0.642182 -0.358810
O1    O     O_R   0.545970 0.684450 0.528810 -0.586020
O2    O     O_2   0.641564 0.766239 0.955593 -0.292547
O3    O     O_3   0.652879 0.766080 0.776746 -0.560687
O4    O     O_2   0.741787 0.261322 0.808570 -0.276687
O5    O     O_2   0.554231 0.268319 0.695340 -0.325982
O6    O     O_3   0.760229 0.343926 0.651742 -0.562782
O7    O     O_R   0.687130 0.639470 0.490120 -0.565663
O8    O     O_R   0.519670 0.535100 0.660030 -0.505797
O9    O     O_R   0.660830 0.490120 0.621340 -0.511209
O10   O     O_R   0.312870 0.360530 0.509880 -0.572496
O11   O     O_R   0.454030 0.315550 0.471190 -0.581585
O12   O     O_R   0.339170 0.509880 0.378660 -0.593967
O13   O     O_R   0.480330 0.464900 0.339970 -0.601665
O14   O     O_2   0.460543 0.605373 0.810438 -0.272687
S1    S     S_3+6 0.606396 0.685653 0.856634 -0.003763
S2    S     S_3+6 0.701101 0.331944 0.744598 -0.015282

loop_
_geom_bond_atom_site_label_1
_geom_bond_atom_site_label_2
_ccdc_geom_bond_type
C21   N3    S    
C27   C29   A    
C41   C42   A    
C19   C20   A    
C7    H3    S    
C16   O10   A    
C42   S1    S    
Cu1   N1    S    
Cu2   O11   S    
C46   H24   S    
C36   N4    S    
C12   C23   A    
C26   C27   A    
Cu2   O7    S    
C37   N1    A    
C9    C16   S    
C12   C43   A    
C3    C7    A    
C30   C31   A    
C9    C22   A    
C28   C40   S    
Cu2   O9    S    
C44   H19   S    
C18   C19   A    
C43   S2    S    
C27   H9    S    
C4    O8    A    
C28   O13   A    
C35   C36   A    
C8    C22   A    
C7    C40   A    
C4    C39   S    
C44   H18   S    
C44   N3    S    
C2    C50   A    
C26   H7    S    
C47   H14   S    
C37   H6    S    
C26   N2    A    
Cu1   O8    S    
C28   O12   A    
Cu1   O10   S    
O6    S2    S    
C31   N2    A    
C13   C14   A    
C50   H11   S    
C14   C17   A    
C15   C20   A    
C25   H5    S    
C22   H23   S    
O5    S2    D    
H20   N4    S    
C39   C42   A    
C46   N4    S    
C45   C47   A    
C48   H1    S    
Cu2   O13   S    
C38   N1    A    
Cu1   Cu2   S    
C39   C43   A    
C10   C24   A    
C13   H30   S    
C3    C45   A    
C8    C18   A    
C5    H12   S    
C29   C30   A    
C25   C38   A    
C47   C48   A    
C38   H2    S    
C29   H8    S    
C1    O7    A    
C17   C18   A    
C44   H17   S    
C34   C45   A    
C32   C37   A    
C19   H27   S    
C15   C24   A    
C20   H32   S    
C6    C40   A    
C2    C5    A    
C12   C34   A    
C46   H22   S    
Cu1   O12   S    
H25   O3    S    
C34   C49   A    
C1    O1    A    
C23   C48   A    
C49   H15   S    
C35   H4    S    
C31   C36   A    
O3    S1    S    
C41   H13   S    
C16   O11   A    
C10   H29   S    
C23   C41   A    
C11   H31   S    
C32   C33   A    
C6    H10   S    
Cu2   N2    S    
C2    C3    A    
Cu1   O1    S    
C30   C32   A    
C11   C13   A    
C9    C21   A    
C5    C6    A    
H26   O6    S    
C33   C35   A    
O14   S1    D    
C17   C21   A    
O2    S1    D    
C10   C11   A    
O4    S2    D    
C1    C24   S    
C49   C50   A    
C8    H28   S    
H16   N3    S    
C14   C15   A    
C4    O9    A    
C46   H21   S    
C25   C33   A    
