data_mof_unit_20440.cif
_audit_creation_date              2013-03-05T16:35:30-0500
_audit_creation_method            fapswitch 2.2
_symmetry_space_group_name_H-M    P1
_symmetry_Int_Tables_number       1
_space_group_crystal_system       triclinic
_cell_length_a                    10.679757
_cell_length_b                    14.965135
_cell_length_c                    14.161077
_cell_angle_alpha                 90.147727
_cell_angle_beta                  90.686403
_cell_angle_gamma                 90.281166
_cell_volume                      2263.08251397

loop_
_atom_site_label
_atom_site_type_symbol
_atom_site_description
_atom_site_fract_x
_atom_site_fract_y
_atom_site_fract_z
_atom_type_partial_charge
O1    O     O_R   0.500010 0.369070 0.579480 -0.623513
O2    O     O_R   0.499990 0.630930 0.420520 -0.636605
O3    O     O_R   0.500010 0.369060 0.420520 -0.631581
O4    O     O_R   0.499990 0.630940 0.579480 -0.615341
C1    C     C_R   0.497546 0.327496 0.499844 0.915367
C2    C     C_R   0.498306 0.672195 0.500043 0.926629
O5    O     O_R   0.316760 0.500010 0.579480 -0.594428
O6    O     O_R   0.683240 0.499990 0.420520 -0.572175
O7    O     O_R   0.316760 0.500000 0.420520 -0.638153
O8    O     O_R   0.683240 0.500000 0.579480 -0.644960
C3    C     C_R   0.260230 0.499665 0.499204 0.973430
C4    C     C_R   0.739782 0.500341 0.500791 0.982972
Zn1   Zn    Zn3+2 0.500000 0.500010 0.606140 0.995648
Zn2   Zn    Zn3+2 0.500000 0.499990 0.393860 0.998432
C5    C     C_R   0.216655 0.780399 0.362947 -0.271609
C6    C     C_R   0.789916 0.221645 0.648024 -0.285398
H1    H     H_    0.235523 0.847202 0.389086 0.219808
H2    H     H_    0.771146 0.153877 0.624819 0.223045
C7    C     C_R   0.154997 0.718714 0.421379 0.276647
C8    C     C_R   0.844809 0.282540 0.585018 0.282722
C9    C     C_R   0.131416 0.631190 0.386821 0.049510
C10   C     C_R   0.869191 0.371065 0.616230 0.060203
C11   C     C_R   0.169046 0.608094 0.295369 -0.132300
C12   C     C_R   0.836730 0.396420 0.708190 -0.143895
C13   C     C_R   0.232570 0.669341 0.239285 -0.210036
C14   C     C_R   0.779488 0.335939 0.768792 -0.193198
C15   C     C_R   0.257213 0.756111 0.272413 0.329416
C16   C     C_R   0.756235 0.247737 0.739697 0.316781
C17   C     C_R   0.934195 0.564855 0.446836 0.317137
C18   C     C_R   0.065864 0.434760 0.552661 0.307000
C19   C     C_R   0.872287 0.501863 0.503062 -0.221612
C20   C     C_R   0.127746 0.498078 0.496825 -0.218655
C21   C     C_R   0.936448 0.437509 0.557222 -0.075278
C22   C     C_R   0.063641 0.562797 0.443079 -0.074458
C23   C     C_R   0.478686 0.092480 0.583541 -0.111428
C24   C     C_R   0.526034 0.908029 0.424033 -0.091012
C25   C     C_R   0.490568 0.184355 0.584295 -0.137998
C26   C     C_R   0.538390 0.816329 0.425289 -0.108242
C27   C     C_R   0.483140 0.231598 0.499325 -0.019080
C28   C     C_R   0.487583 0.767629 0.499686 -0.077177
C29   C     C_R   0.456324 0.187094 0.414291 -0.117732
C30   C     C_R   0.421011 0.809960 0.571310 -0.148219
H3    H     H_    0.446806 0.222886 0.348236 0.159644
H4    H     H_    0.378919 0.772102 0.627920 0.194769
C31   C     C_R   0.441546 0.095391 0.413861 -0.115601
C32   C     C_R   0.405622 0.901524 0.568697 -0.102757
C33   C     C_R   0.456151 0.047645 0.498074 0.093743
C34   C     C_R   0.459706 0.950925 0.495776 0.064869
C35   C     C_R   0.455661 0.425849 0.104614 -0.238185
C36   C     C_R   0.591876 0.546991 0.895682 -0.248684
C37   C     C_R   0.455945 0.427439 0.203879 0.028981
C38   C     C_R   0.589748 0.546480 0.796375 0.013243
N1    N     N_R   0.500000 0.499980 0.252470 -0.110448
N2    N     N_R   0.500000 0.500020 0.747530 -0.111498
C39   C     C_R   0.543502 0.572703 0.205025 0.062197
C40   C     C_R   0.410925 0.452980 0.794511 0.059900
C41   C     C_R   0.543797 0.574233 0.105753 -0.227132
C42   C     C_R   0.408925 0.452276 0.893739 -0.227573
H5    H     H_    0.576696 0.633873 0.070660 0.175535
H6    H     H_    0.334982 0.415741 0.928433 0.158327
C43   C     C_R   0.499935 0.499952 0.053318 0.108214
C44   C     C_R   0.500249 0.499756 0.946580 0.130899
N3    N     N_R   0.323001 0.819270 0.214426 0.222263
O9    O     O_R   0.337068 0.901928 0.241476 -0.389982
O10   O     O_R   0.369271 0.794767 0.133834 -0.374304
N4    N     N_R   0.698501 0.184974 0.802814 0.219540
O11   O     O_R   0.685325 0.101402 0.778873 -0.370491
O12   O     O_R   0.658916 0.210740 0.885038 -0.362032
H7    H     H_    0.421457 0.061607 0.347622 0.182832
H8    H     H_    0.352562 0.933760 0.623759 0.175534
H9    H     H_    0.422566 0.366226 0.068678 0.165219
H10   H     H_    0.666006 0.583260 0.931997 0.158007
H11   H     H_    0.421177 0.370172 0.242063 0.139413
H12   H     H_    0.660555 0.583025 0.758215 0.147916
H13   H     H_    0.577775 0.630167 0.244108 0.167025
H14   H     H_    0.340734 0.416000 0.754902 0.189088
N5    N     N_R   0.117201 0.746309 0.514342 0.215778
O13   O     O_R   0.112394 0.689484 0.583586 -0.401212
O14   O     O_R   0.097885 0.830415 0.532342 -0.337493
N6    N     N_R   0.875416 0.253111 0.491059 0.219754
O15   O     O_R   0.877885 0.309007 0.420894 -0.387727
O16   O     O_R   0.890233 0.168446 0.473421 -0.327036
H15   H     H_    0.150155 0.541700 0.267826 0.177137
H16   H     H_    0.856299 0.463641 0.733071 0.168355
H17   H     H_    0.261889 0.648818 0.169639 0.187366
H18   H     H_    0.754781 0.358018 0.838971 0.188605
N7    N     N_R   0.865727 0.633243 0.397477 0.210533
O17   O     O_R   0.794066 0.687478 0.443877 -0.400499
O18   O     O_R   0.876810 0.642636 0.306646 -0.383112
N8    N     N_R   0.134314 0.365646 0.601075 0.207645
O19   O     O_R   0.207186 0.312729 0.554063 -0.388515
O20   O     O_R   0.119946 0.352901 0.691149 -0.398851
H19   H     H_    0.491485 0.056427 0.649113 0.182783
H20   H     H_    0.570677 0.945429 0.368263 0.174281
H21   H     H_    0.508245 0.218035 0.650917 0.176871
H22   H     H_    0.589233 0.783687 0.369251 0.196207

loop_
_geom_bond_atom_site_label_1
_geom_bond_atom_site_label_2
_geom_bond_distance
_ccdc_geom_bond_type
C6    C16   1.406085 A    
N4    O12   1.301639 A    
N7    O17   1.300623 A    
N3    O10   1.301649 A    
C42   C44   1.410327 A    
C40   H14   1.080301 S    
N1    C39   1.363066 A    
C18   N8    1.439894 S    
C23   C33   1.400064 A    
C27   C29   1.400482 A    
N5    O13   1.300922 A    
C5    C7    1.407645 A    
C11   H15   1.083622 S    
O1    C1    1.286493 A    
C6    C8    1.407730 A    
C7    C9    1.417401 A    
C12   C14   1.393044 A    
C38   H12   1.081765 S    
C41   H5    1.081848 S    
C42   H6    1.081840 S    
C25   H21   1.082639 S    
C30   C32   1.381429 A    
O4    Zn1   1.996381 S    
C7    N5    1.441565 S    
C36   H10   1.081853 S    
N8    O20   1.300991 A    
C35   C37   1.405810 A    
C36   C38   1.406209 A    
C19   C21   1.408182 A    
C18   C20   1.403598 A    
O6    C4    1.280742 A    
C39   H13   1.081397 S    
C31   C33   1.399318 A    
N4    O11   1.301478 A    
C28   C30   1.397821 A    
C29   H3    1.083079 S    
O2    C2    1.283299 A    
C30   H4    1.083597 S    
C38   N2    1.362223 A    
O5    C3    1.280747 A    
C32   C34   1.400203 A    
C23   H19   1.082723 S    
C9    C11   1.403441 A    
C25   C27   1.398790 A    
N2    C40   1.361680 A    
C35   C43   1.410056 A    
C8    N6    1.442227 S    
C31   H7    1.083147 S    
O4    C2    1.284577 A    
C9    C22   1.488937 S    
C17   C22   1.384600 A    
C37   N1    1.362615 A    
C20   C22   1.408502 A    
C16   N4    1.439838 S    
O7    Zn2   1.997479 S    
C5    C15   1.405649 A    
C33   C34   1.448406 S    
C14   H18   1.082545 S    
C13   H17   1.082525 S    
N5    O14   1.301508 A    
O7    C3    1.273645 A    
O3    Zn2   1.996381 S    
O8    C4    1.273776 A    
N6    O16   1.301551 A    
C8    C10   1.417430 A    
C3    C20   1.414972 S    
C39   C41   1.406089 A    
C4    C19   1.415168 S    
C36   C44   1.410497 A    
C10   C12   1.403418 A    
O1    Zn1   1.994617 S    
C32   H8    1.083127 S    
Zn1   N2    2.002234 S    
C5    H1    1.082304 S    
C10   C21   1.488136 S    
O6    Zn2   1.988597 S    
C18   C21   1.385213 A    
C23   C25   1.380156 A    
C37   H11   1.081111 S    
N6    O15   1.300909 A    
O3    C1    1.285908 A    
O8    Zn1   1.997478 S    
C41   C43   1.410247 A    
C13   C15   1.402172 A    
C14   C16   1.401871 A    
C1    C27   1.442598 S    
C12   H16   1.083583 S    
C17   C19   1.403606 A    
C26   C28   1.396166 A    
N8    O19   1.300682 A    
C24   C26   1.379415 A    
C40   C42   1.405658 A    
C24   C34   1.401556 A    
C2    C28   1.433348 S    
C11   C13   1.393438 A    
C43   C44   1.511570 S    
O2    Zn2   1.994617 S    
C17   N7    1.438558 S    
N3    O9    1.301461 A    
C24   H20   1.083042 S    
O5    Zn1   1.988598 S    
Zn2   N1    2.002234 S    
C6    H2    1.082310 S    
C35   H9    1.081801 S    
C26   H22   1.083580 S    
N7    O18   1.301023 A    
C29   C31   1.380614 A    
C15   N3    1.439662 S    
