data_mof_unit_28790.cif
_audit_creation_date              2013-03-05T16:00:56-0500
_audit_creation_method            fapswitch 2.2
_symmetry_space_group_name_H-M    P1
_symmetry_Int_Tables_number       1
_space_group_crystal_system       triclinic
_cell_length_a                    6.923502
_cell_length_b                    34.451292
_cell_length_c                    38.185196
_cell_angle_alpha                 99.547658
_cell_angle_beta                  89.589939
_cell_angle_gamma                 90.611409
_cell_volume                      8981.25938365

loop_
_atom_site_label
_atom_site_type_symbol
_atom_site_description
_atom_site_fract_x
_atom_site_fract_y
_atom_site_fract_z
_atom_type_partial_charge
O1    O     O_R   0.494320 0.461440 0.460990 -0.590390
O2    O     O_R   0.821450 0.462560 0.532500 -0.596354
O3    O     O_R   0.994330 0.538560 0.539010 -0.616940
C1    C     C_R   0.651461 0.453576 0.543503 0.995099
O4    O     O_R   0.823870 0.456770 0.460860 -0.554708
O5    O     O_R   0.996760 0.532730 0.466860 -0.579410
C2    C     C_R   0.654887 0.446135 0.448085 1.157456
O6    O     O_R   0.491880 0.467270 0.533140 -0.599830
O7    O     O_3   0.661650 0.524930 0.502050 -0.292040
V1    V     V_3+5 0.935500 0.495380 0.499620 1.229938
O8    O     O_R   0.326630 0.537440 0.467500 -0.592831
C3    C     C_R   0.158708 0.545970 0.456141 0.990716
O9    O     O_R   0.324210 0.543230 0.539140 -0.587547
C4    C     C_R   0.154984 0.554097 0.552121 0.963789
V2    V     V_3+5 0.435810 0.504620 0.500380 1.206530
O10   O     O_3   0.159790 0.475070 0.497950 -0.253876
C5    C     C_R   0.039969 0.834175 0.793034 0.580542
N1    N     N_R   0.031810 0.823043 0.825806 -0.170188
C6    C     C_R   0.027287 0.784225 0.829476 0.591458
C7    C     C_R   0.026713 0.754270 0.799246 -0.216673
C8    C     C_R   0.053157 0.765315 0.765343 -0.024934
C9    C     C_R   0.062906 0.805719 0.761912 -0.108263
C10   C     C_R   0.007704 0.713660 0.801750 0.373320
C11   C     C_R   0.027764 0.685108 0.771308 -0.153237
C12   C     C_R   0.059820 0.695673 0.737882 -0.124359
C13   C     C_R   0.070553 0.735779 0.734775 0.010831
C14   C     C_R   0.099258 0.746253 0.701043 -0.088994
C15   C     C_R   0.109584 0.786082 0.697840 -0.134552
C16   C     C_R   0.093398 0.815778 0.727490 0.176392
C17   C     C_R   0.078272 0.666843 0.707240 0.626070
N2    N     N_R   0.110014 0.677589 0.674670 -0.169358
C18   C     C_R   0.119692 0.716499 0.671125 0.556010
O11   O     O_2   0.024596 0.872676 0.790976 -0.545371
O12   O     O_2   0.029381 0.774905 0.862394 -0.470952
H1    H     H_    0.013321 0.654362 0.773901 0.214064
O13   O     O_2   0.063319 0.628370 0.709961 -0.490067
O14   O     O_2   0.150512 0.726402 0.638792 -0.537395
H2    H     H_    0.134495 0.794581 0.672083 0.182915
C19   C     C_R   0.981615 0.642731 0.618373 -0.111389
H3    H     H_    0.859741 0.662511 0.621953 0.177906
C20   C     C_R   0.988144 0.613090 0.588637 0.091153
C21   C     C_R   0.144636 0.586150 0.583895 -0.250281
C22   C     C_R   0.294257 0.590707 0.609770 -0.014678
C23   C     C_R   0.288023 0.622055 0.639080 0.336178
C24   C     C_R   0.128464 0.647506 0.643584 0.036537
C25   C     C_R   0.860460 0.858919 0.877715 -0.000384
H4    H     H_    0.735613 0.840206 0.870632 0.185484
C26   C     C_R   0.849424 0.889177 0.906949 -0.148986
H5    H     H_    0.715557 0.893133 0.921905 0.149835
C27   C     C_R   0.009714 0.913737 0.916906 -0.190381
C28   C     C_R   0.181477 0.907182 0.896991 -0.302650
H6    H     H_    0.307387 0.925403 0.904703 0.175282
C29   C     C_R   0.193467 0.877297 0.867091 0.419112
C30   C     C_R   0.029894 0.852979 0.857230 0.046765
C31   C     C_R   0.176496 0.850475 0.167829 0.526772
O15   O     O_2   0.295120 0.882088 0.169677 -0.555253
N3    N     N_R   0.046821 0.842390 0.140610 -0.164726
C32   C     C_R   0.928130 0.809873 0.137669 0.556187
C33   C     C_R   0.085810 0.858469 0.079457 0.382002
C34   C     C_R   0.066117 0.885694 0.055672 -0.008692
C35   C     C_R   0.958389 0.936019 0.104874 0.160256
C36   C     C_R   0.964092 0.907467 0.127323 -0.125897
C37   C     C_R   0.031630 0.869436 0.115419 0.009320
C38   C     C_R   0.066638 0.792641 0.191620 -0.086978
C39   C     C_R   0.188056 0.826036 0.193805 -0.068233
C40   C     C_R   0.323226 0.833675 0.221249 -0.113761
C41   C     C_R   0.935740 0.783968 0.163030 -0.135405
C42   C     C_R   0.005141 0.924777 0.068381 -0.303924
H7    H     H_    0.920549 0.914818 0.154873 0.157913
H8    H     H_    0.425282 0.857916 0.222524 0.171793
C43   C     C_R   0.151971 0.572267 0.429157 -0.180671
C44   C     C_R   0.191036 0.756360 0.276393 -0.013250
C45   C     C_R   0.997977 0.705795 0.238536 0.059358
C46   C     C_R   0.101385 0.718509 0.270347 0.052310
C47   C     C_R   0.263882 0.770755 0.311038 0.130430
C48   C     C_R   0.272706 0.745763 0.336390 -0.147772
C49   C     C_R   0.200185 0.707244 0.329417 -0.074587
C50   C     C_R   0.112882 0.693420 0.296450 -0.077316
C51   C     C_R   0.036932 0.654595 0.289709 -0.111120
C52   C     C_R   0.050489 0.630810 0.316629 0.534071
N4    N     N_R   0.130080 0.645480 0.348916 -0.166062
C53   C     C_R   0.206215 0.682778 0.355505 0.570350
C54   C     C_R   0.006529 0.627354 0.405922 0.358706
C55   C     C_R   0.014924 0.602242 0.431539 -0.268401
C56   C     C_R   0.278707 0.566446 0.400118 -0.162704
C57   C     C_R   0.268228 0.589719 0.373314 0.197187
C58   C     C_R   0.135294 0.621005 0.376334 0.038545
O16   O     O_2   0.287799 0.696139 0.387271 -0.499415
C59   C     C_R   0.199575 0.778500 0.247870 0.042549
C60   C     C_R   0.078267 0.767804 0.217952 0.072779
C61   C     C_R   0.970980 0.732240 0.213988 0.042470
C62   C     C_R   0.330577 0.810101 0.247475 -0.171132
H9    H     H_    0.914186 0.606101 0.453601 0.171644
H10   H     H_    0.330276 0.757376 0.362381 0.182650
H11   H     H_    0.445707 0.816250 0.266538 0.150021
O17   O     O_2   0.803584 0.802820 0.110322 -0.481468
C63   C     C_R   0.817822 0.749792 0.160892 0.228716
C64   C     C_R   0.927090 0.666751 0.231999 -0.285685
C65   C     C_R   0.948815 0.641100 0.256522 0.206322
O18   O     O_2   0.983900 0.593410 0.310901 -0.536692
C66   C     C_R   0.838975 0.724376 0.185685 -0.289382
H12   H     H_    0.861861 0.654525 0.206958 0.137597
H13   H     H_    0.382633 0.542916 0.397713 0.194885
H14   H     H_    0.742072 0.699336 0.183089 0.134931
C67   C     C_R   0.607203 0.307799 0.634417 0.564318
O19   O     O_2   0.603126 0.293564 0.599330 -0.515278
N5    N     N_R   0.613663 0.347649 0.645052 -0.172745
C68   C     C_R   0.613726 0.363940 0.680178 0.597845
C69   C     C_R   0.453681 0.396060 0.613133 0.426430
C70   C     C_R   0.466905 0.421846 0.588226 -0.294239
C71   C     C_R   0.797335 0.402347 0.574579 -0.065958
C72   C     C_R   0.785147 0.376179 0.598787 -0.025820
C73   C     C_R   0.615973 0.373125 0.618581 0.047369
C74   C     C_R   0.605820 0.298282 0.696319 -0.112544
C75   C     C_R   0.601488 0.281950 0.659765 -0.124080
C76   C     C_R   0.578204 0.240703 0.649701 0.149138
C77   C     C_R   0.605871 0.339774 0.706723 -0.096885
C78   C     C_R   0.638598 0.425593 0.569098 -0.180488
H15   H     H_    0.931083 0.404217 0.560039 0.160681
H16   H     H_    0.908935 0.358458 0.602559 0.178123
C79   C     C_R   0.515981 0.074523 0.930589 -0.260991
C80   C     C_R   0.621768 0.207137 0.738452 0.077359
C81   C     C_R   0.627048 0.265165 0.785606 -0.095714
C82   C     C_R   0.619748 0.223691 0.774926 0.057054
C83   C     C_R   0.660474 0.166569 0.729428 -0.270283
C84   C     C_R   0.659930 0.141579 0.754773 0.222704
C85   C     C_R   0.624248 0.157138 0.790823 -0.097522
C86   C     C_R   0.615580 0.198440 0.800938 -0.089396
C87   C     C_R   0.605255 0.214595 0.837186 -0.105508
C88   C     C_R   0.584241 0.189578 0.862578 0.510760
N6    N     N_R   0.581103 0.149552 0.852363 -0.180543
C89   C     C_R   0.602991 0.133055 0.817353 0.473808
C90   C     C_R   0.401349 0.098475 0.877675 -0.104239
C91   C     C_R   0.378884 0.073428 0.902761 0.108440
C92   C     C_R   0.673298 0.101849 0.932623 0.152998
C93   C     C_R   0.693735 0.125783 0.906134 -0.099109
C94   C     C_R   0.558561 0.124376 0.878915 0.138962
O20   O     O_2   0.602939 0.093508 0.808349 -0.531461
C95   C     C_R   0.600844 0.231776 0.712128 -0.011042
C96   C     C_R   0.608434 0.273208 0.722547 0.056650
C97   C     C_R   0.610618 0.289841 0.759170 0.075927
C98   C     C_R   0.560051 0.216411 0.675961 0.071509
H17   H     H_    0.295727 0.097532 0.856735 0.141623
H18   H     H_    0.702910 0.153813 0.702775 0.146618
O21   O     O_2   0.620551 0.403480 0.689110 -0.503838
C99   C     C_R   0.588034 0.355636 0.743171 0.179934
H19   H     H_    0.342355 0.439129 0.583858 0.173693
C100  C     C_R   0.656810 0.279990 0.822435 0.296916
C101  C     C_R   0.628562 0.255185 0.847569 -0.144670
O22   O     O_2   0.564880 0.205228 0.897228 -0.519923
C102  C     C_R   0.579472 0.330560 0.768290 -0.172677
H20   H     H_    0.642074 0.267396 0.875486 0.218243
H21   H     H_    0.813312 0.146255 0.906436 0.143596
H22   H     H_    0.544808 0.343892 0.795134 0.168562
C103  C     C_R   0.396308 0.178572 0.199643 0.582881
N7    N     N_R   0.545819 0.175111 0.175612 -0.163353
C104  C     C_R   0.702186 0.199928 0.180664 0.576030
C105  C     C_R   0.713211 0.229563 0.210777 -0.120437
C106  C     C_R   0.565230 0.232801 0.236653 0.027801
C107  C     C_R   0.404624 0.206647 0.231600 -0.154641
C108  C     C_R   0.869241 0.256104 0.215137 -0.219839
C109  C     C_R   0.880636 0.286342 0.244411 0.364590
C110  C     C_R   0.737974 0.289043 0.271642 -0.149363
C111  C     C_R   0.578956 0.262267 0.267465 0.025201
C112  C     C_R   0.434159 0.264987 0.294047 -0.218553
C113  C     C_R   0.280878 0.236929 0.290319 0.370146
C114  C     C_R   0.262859 0.208780 0.259093 0.026227
C115  C     C_R   0.750952 0.316872 0.303387 0.595550
N8    N     N_R   0.602837 0.321002 0.327592 -0.168346
C116  C     C_R   0.445108 0.296451 0.323179 0.666734
O23   O     O_2   0.240867 0.154883 0.192234 -0.525538
O24   O     O_2   0.847635 0.195800 0.156651 -0.511702
H23   H     H_    0.980800 0.254435 0.194907 0.211768
O25   O     O_2   0.911332 0.339229 0.310563 -0.458444
O26   O     O_2   0.297490 0.303336 0.346500 -0.500178
C117  C     C_R   0.645690 0.343847 0.392206 0.051759
C118  C     C_R   0.662520 0.374596 0.421606 0.269722
C119  C     C_R   0.644665 0.414156 0.416896 -0.487742
C120  C     C_R   0.605935 0.422895 0.382740 0.213606
C121  C     C_R   0.590314 0.392071 0.353293 0.272433
C122  C     C_R   0.611389 0.352516 0.357982 -0.034510
C123  C     C_R   0.518191 0.154839 0.110816 -0.162750
H24   H     H_    0.511430 0.185745 0.108652 0.195155
C124  C     C_R   0.501962 0.126138 0.080132 0.300161
C125  C     C_R   0.507702 0.085714 0.083292 -0.358639
C126  C     C_R   0.530278 0.074914 0.117250 -0.024726
C127  C     C_R   0.545803 0.104368 0.147866 0.364962
C128  C     C_R   0.538659 0.144512 0.144535 0.016200
O27   O     O_R   0.662230 0.032770 0.966890 -0.601838
O28   O     O_R   0.330090 0.043230 0.039150 -0.569519
O29   O     O_R   0.157350 0.967260 0.033130 -0.605257
C129  C     C_R   0.499190 0.054436 0.051499 1.099748
O30   O     O_R   0.332650 0.037450 0.967510 -0.581754
O31   O     O_R   0.159930 0.961430 0.960980 -0.600390
C130  C     C_R   0.502350 0.046307 0.956304 0.984809
O32   O     O_R   0.659640 0.038600 0.039040 -0.602949
O33   O     O_3   0.492510 0.975090 0.997960 -0.285739
V3    V     V_3+5 0.218600 0.004620 0.000380 1.173907
O34   O     O_R   0.830050 0.956730 0.960830 -0.600425
C131  C     C_R   0.999057 0.945998 0.947951 0.962580
O35   O     O_R   0.827490 0.962520 0.032470 -0.588563
C132  C     C_R   0.995745 0.953650 0.043503 0.952028
V4    V     V_3+5 0.718310 0.995320 0.999580 1.161275
O36   O     O_3   0.994270 0.024900 0.002040 -0.260878
N9    N     N_R   0.957237 0.700602 0.834425 0.273742
O37   O     O_R   0.794823 0.711677 0.850142 -0.288435
O38   O     O_R   0.050096 0.671548 0.844135 -0.303562
N10   N     N_R   0.371447 0.872147 0.847183 0.226889
O39   O     O_R   0.421102 0.837680 0.830364 -0.434066
O40   O     O_R   0.490777 0.901641 0.847436 -0.399971
N11   N     N_2   0.906829 0.975791 0.118932 -0.116394
H25   H     H_    0.924296 0.996418 0.102453 0.156031
C133  C     C_3   0.945845 0.990680 0.156085 -0.846321
H26   H     H_    0.953315 0.023365 0.160629 0.266931
H27   H     H_    0.085602 0.979704 0.164378 0.264815
H28   H     H_    0.827696 0.981527 0.172850 0.262396
N12   N     N_R   0.865030 0.658335 0.410234 0.248569
O41   O     O_R   0.812393 0.674910 0.383648 -0.409195
O42   O     O_R   0.779513 0.668879 0.440748 -0.357936
N13   N     N_2   0.308525 0.811339 0.322342 -0.122940
H29   H     H_    0.410297 0.816690 0.342218 0.176190
C134  C     C_3   0.141175 0.836211 0.329859 -0.852006
H30   H     H_    0.188663 0.867423 0.336632 0.251640
H31   H     H_    0.058722 0.828078 0.352698 0.254679
H32   H     H_    0.045568 0.833404 0.306315 0.255073
N14   N     N_2   0.116520 0.873896 0.019241 -0.089242
H33   H     H_    0.208070 0.893186 0.009202 0.178133
C135  C     C_3   0.954195 0.861754 0.996182 -0.715415
H34   H     H_    0.859597 0.887159 0.994423 0.199088
H35   H     H_    0.867866 0.838503 0.006209 0.288434
H36   H     H_    0.007982 0.849702 0.969143 0.246910
N15   N     N_R   0.170203 0.820546 0.067620 0.252953
O43   O     O_R   0.118969 0.799272 0.037691 -0.314640
O44   O     O_R   0.302349 0.807386 0.086542 -0.380255
N16   N     N_2   0.676156 0.740254 0.133943 -0.067532
H37   H     H_    0.670646 0.710670 0.123444 0.181018
C136  C     C_3   0.486815 0.755504 0.144361 -0.688472
H38   H     H_    0.384831 0.747474 0.121976 0.271804
H39   H     H_    0.493289 0.788079 0.151338 0.261876
H40   H     H_    0.431607 0.742828 0.167489 0.194969
N17   N     N_2   0.880157 0.601678 0.247216 -0.086875
H41   H     H_    0.750685 0.599343 0.233772 0.163855
C137  C     C_3   0.022817 0.574822 0.229457 -0.690991
H42   H     H_    0.061293 0.582799 0.203224 0.210114
H43   H     H_    0.963008 0.544385 0.225257 0.261148
H44   H     H_    0.155190 0.575534 0.245858 0.254432
N18   N     N_2   0.381681 0.579770 0.341971 -0.114835
H45   H     H_    0.408839 0.550067 0.335236 0.240348
C138  C     C_3   0.554237 0.603325 0.340547 -0.738920
H46   H     H_    0.617065 0.596647 0.313457 0.266598
H47   H     H_    0.661082 0.596388 0.360127 0.269260
H48   H     H_    0.521198 0.635147 0.345974 0.255188
N19   N     N_2   0.561761 0.223770 0.613165 -0.072025
H49   H     H_    0.443668 0.205534 0.606902 0.175954
C139  C     C_3   0.740098 0.207872 0.597065 -0.769841
H50   H     H_    0.787761 0.182580 0.609391 0.200042
H51   H     H_    0.855339 0.230875 0.600303 0.264865
H52   H     H_    0.717647 0.197671 0.568236 0.255119
N20   N     N_2   0.219111 0.046792 0.898491 -0.125322
H53   H     H_    0.130785 0.047307 0.920356 0.201637
C140  C     C_3   0.262750 0.007812 0.879885 -0.781321
H54   H     H_    0.366965 0.993177 0.895281 0.225758
H55   H     H_    0.324869 0.009534 0.853269 0.274235
H56   H     H_    0.128017 0.989861 0.876249 0.243627
N21   N     N_2   0.704032 0.101137 0.743614 -0.073435
H57   H     H_    0.650913 0.089662 0.718830 0.165578
C141  C     C_3   0.906086 0.092131 0.746961 -0.770132
H58   H     H_    0.927038 0.059883 0.739733 0.248277
H59   H     H_    0.955222 0.101494 0.774751 0.256529
H60   H     H_    0.995451 0.107265 0.728901 0.212567
N22   N     N_2   0.477570 0.177968 0.666585 -0.118547
H61   H     H_    0.519138 0.162195 0.642458 0.169127
C142  C     C_3   0.272324 0.175707 0.673475 -0.905382
H62   H     H_    0.223106 0.144543 0.667558 0.245659
H63   H     H_    0.191561 0.193044 0.656412 0.247029
H64   H     H_    0.240039 0.187080 0.701850 0.265475
N23   N     N_R   0.276208 0.393715 0.632623 0.230944
O45   O     O_R   0.158638 0.423377 0.637619 -0.393493
O46   O     O_R   0.225393 0.361414 0.643841 -0.441028
N24   N     N_2   0.571664 0.396847 0.755144 -0.082237
H65   H     H_    0.461711 0.404011 0.773380 0.186210
C143  C     C_3   0.751977 0.415911 0.767253 -0.628155
H66   H     H_    0.730518 0.448203 0.773729 0.249371
H67   H     H_    0.864448 0.410072 0.746172 0.257702
H68   H     H_    0.802372 0.405126 0.791465 0.240741
N25   N     N_2   0.121295 0.855174 0.721625 -0.111169
H69   H     H_    0.208411 0.873023 0.739368 0.232684
C144  C     C_3   0.951458 0.873637 0.710240 -0.767331
H70   H     H_    0.990127 0.903402 0.704723 0.241555
H71   H     H_    0.838223 0.876513 0.731242 0.277348
H72   H     H_    0.893344 0.855972 0.685495 0.235429
N26   N     N_R   0.744772 0.317771 0.834526 0.228603
O47   O     O_R   0.895760 0.328786 0.818038 -0.390462
O48   O     O_R   0.694447 0.338286 0.864903 -0.346397
N27   N     N_2   0.805223 0.105351 0.961833 -0.109814
H73   H     H_    0.741325 0.104906 0.986237 0.212794
C145  C     C_3   0.971348 0.131431 0.963301 -0.738769
H74   H     H_    0.061229 0.127968 0.986482 0.287622
H75   H     H_    0.924108 0.162538 0.966466 0.268619
H76   H     H_    0.061616 0.123819 0.939036 0.220672
N28   N     N_R   0.031003 0.315379 0.244486 0.270349
O49   O     O_R   0.985146 0.352017 0.245064 -0.244379
O50   O     O_R   0.206093 0.304363 0.235469 -0.382517
N29   N     N_R   0.148820 0.234735 0.319157 0.253525
O51   O     O_R   0.213975 0.226665 0.348989 -0.364133
O52   O     O_R   0.963331 0.234058 0.313853 -0.429076
N30   N     N_2   0.104387 0.181802 0.257209 -0.088521
H77   H     H_    0.015775 0.180074 0.235463 0.240014
C146  C     C_3   0.143754 0.144955 0.269108 -0.583758
H78   H     H_    0.253284 0.127931 0.251730 0.265351
H79   H     H_    0.008668 0.127192 0.268391 0.245917
H80   H     H_    0.197494 0.150531 0.296846 0.233593
N31   N     N_2   0.668230 0.303918 0.396550 -0.116131
H81   H     H_    0.598610 0.296513 0.418483 0.233365
C147  C     C_3   0.865549 0.290475 0.393453 -0.613753
H82   H     H_    0.868775 0.258417 0.394213 0.260353
H83   H     H_    0.953407 0.306194 0.415739 0.251992
H84   H     H_    0.929493 0.295639 0.367900 0.291808
N32   N     N_R   0.697031 0.365542 0.456334 0.219225
O53   O     O_R   0.560949 0.349567 0.472994 -0.384485
O54   O     O_R   0.859061 0.375933 0.472412 -0.391478
N33   N     N_R   0.576326 0.462943 0.378017 0.247832
O55   O     O_R   0.697663 0.490555 0.391179 -0.407767
O56   O     O_R   0.428187 0.471882 0.360246 -0.358430
N34   N     N_R   0.557643 0.400950 0.318356 0.272473
O57   O     O_R   0.663279 0.427385 0.306368 -0.258084
O58   O     O_R   0.426996 0.381702 0.297904 -0.294545
N35   N     N_R   0.484391 0.138787 0.046168 0.226205
O59   O     O_R   0.554685 0.172757 0.041500 -0.350403
O60   O     O_R   0.384168 0.118389 0.020753 -0.457346
N36   N     N_2   0.553920 0.034481 0.120170 -0.112849
H85   H     H_    0.629071 0.029197 0.141960 0.223256
C148  C     C_3   0.389089 0.008503 0.111670 -0.771126
H86   H     H_    0.359442 0.992263 0.133900 0.254021
H87   H     H_    0.422941 0.986600 0.087750 0.240187
H88   H     H_    0.257339 0.024916 0.106750 0.240789
N37   N     N_R   0.567523 0.093583 0.182390 0.228066
O61   O     O_R   0.699482 0.110441 0.204000 -0.410095
O62   O     O_R   0.448056 0.068549 0.193129 -0.381487
N38   N     N_2   0.836356 0.612124 0.563605 -0.120784
H89   H     H_    0.759072 0.586172 0.558200 0.200595
C149  C     C_3   0.882884 0.630039 0.532916 -0.755713
H90   H     H_    0.752897 0.629709 0.516002 0.249452
H91   H     H_    0.999947 0.613600 0.517080 0.203879
H92   H     H_    0.929597 0.661115 0.541382 0.268006
N39   N     N_2   0.452511 0.564148 0.605936 -0.111106
H93   H     H_    0.583478 0.576445 0.614686 0.193705
C150  C     C_3   0.413246 0.527025 0.617735 -0.681096
H94   H     H_    0.542166 0.507982 0.612795 0.212923
H95   H     H_    0.289494 0.511557 0.603009 0.211465
H96   H     H_    0.379639 0.531806 0.646594 0.284638
N40   N     N_R   0.443420 0.628327 0.664238 0.228877
O63   O     O_R   0.517636 0.663356 0.673503 -0.421743
O64   O     O_R   0.501504 0.599869 0.679981 -0.344158

loop_
_geom_bond_atom_site_label_1
_geom_bond_atom_site_label_2
_geom_bond_distance
_ccdc_geom_bond_type
N33   O56   1.301261 A    
C8    C13   1.420901 A    
C139  H51   1.111450 S    
C90   C94   1.396145 A    
C104  C105  1.407318 A    
C9    C16   1.427540 A    
C145  H75   1.110861 S    
C6    C7    1.415024 A    
C70   C78   1.406703 A    
N37   O61   1.301297 A    
C19   C20   1.396352 A    
C148  H86   1.108311 S    
O27   V4    1.981271 S    
C143  H66   1.110221 S    
C16   N25   1.422752 S    
C71   C78   1.403817 A    
C51   C65   1.415579 A    
C80   C95   1.428178 A    
C109  C110  1.421495 A    
C95   C98   1.423748 A    
C83   H18   1.079500 S    
N22   H61   1.029750 S    
C63   N16   1.422798 S    
C112  C116  1.420453 A    
C142  H64   1.111335 S    
C20   C21   1.425123 A    
C123  H24   1.083069 S    
N5    C73   1.444334 S    
C48   H10   1.083730 S    
O8    V2    1.982165 S    
C84   N21   1.423473 S    
O1    V2    1.975175 S    
C56   H13   1.081713 S    
N23   O46   1.301242 A    
C26   C27   1.404045 A    
O34   C131  1.299395 A    
C8    C9    1.420436 A    
C135  H34   1.109894 S    
C31   C39   1.406730 A    
C74   C75   1.416160 A    
C133  H27   1.109706 S    
C25   C26   1.397520 A    
C147  H83   1.111265 S    
C42   C132  1.487232 S    
C28   H6    1.082294 S    
C144  H72   1.111114 S    
C96   C97   1.420742 A    
C72   H16   1.081735 S    
C149  H90   1.110354 S    
C49   C50   1.408095 A    
C149  H92   1.111127 S    
C77   C99   1.413359 A    
C124  N35   1.441390 S    
C47   C48   1.400251 A    
C113  N29   1.437347 S    
N40   O63   1.301256 A    
C81   C97   1.429358 A    
N15   O44   1.300651 A    
C146  H78   1.110225 S    
C48   C49   1.398012 A    
C76   C98   1.412811 A    
C115  N8    1.368239 A    
C3    C43   1.481877 S    
C138  H47   1.110983 S    
C31   N3    1.369626 A    
C22   C23   1.421303 A    
V3    O36   1.706309 S    
C105  C106  1.410608 A    
C60   C61   1.412983 A    
C125  C129  1.484670 S    
C140  H55   1.111162 S    
C148  H88   1.111655 S    
C111  C112  1.414191 A    
N20   C140  1.445172 S    
C120  N33   1.437803 S    
C95   C96   1.417344 A    
C33   C37   1.411623 A    
C17   O13   1.349428 S    
N26   O48   1.301503 A    
C88   N6    1.369344 A    
N12   O41   1.300612 A    
V1    O10   1.706468 S    
N25   C144  1.446114 S    
C93   H21   1.080716 S    
C40   H8    1.083260 S    
C49   C53   1.408712 A    
C150  H94   1.109825 S    
C34   N14   1.425042 S    
C55   H9    1.081754 S    
O7    V2    1.703463 S    
C32   C41   1.423201 A    
C7    C8    1.418750 A    
C64   C65   1.399909 A    
C103  N7    1.371300 A    
N17   C137  1.446792 S    
C126  C127  1.419125 A    
C100  C101  1.398397 A    
C135  H36   1.110278 S    
C137  H42   1.111666 S    
N18   C138  1.442842 S    
N32   O54   1.300739 A    
C57   N18   1.422358 S    
N23   O45   1.301572 A    
C71   C72   1.395705 A    
C86   C87   1.405217 A    
C119  C120  1.414422 A    
N31   H81   1.030200 S    
C81   C82   1.419837 A    
N27   C145  1.447557 S    
C56   C57   1.403661 A    
C115  O25   1.348105 S    
C67   N5    1.365893 A    
C138  H46   1.108594 S    
N19   H49   1.030714 S    
C141  H60   1.111988 S    
N31   C147  1.444923 S    
C75   C76   1.416948 A    
C124  C125  1.418656 A    
C71   H15   1.083117 S    
N17   H41   1.031927 S    
N34   O58   1.301279 A    
C92   N27   1.435436 S    
O31   C131  1.295485 A    
N2    C18   1.370385 A    
C88   O22   1.349711 S    
C114  N30   1.424788 S    
C10   C11   1.399781 A    
C74   C96   1.427312 A    
O7    V1    2.155728 S    
C19   C24   1.394769 A    
N29   O52   1.300902 A    
C117  N31   1.422973 S    
O9    C4    1.303103 A    
C10   N9    1.434485 S    
O35   V4    1.981981 S    
C61   C66   1.410131 A    
C44   C47   1.427272 A    
C99   N24   1.423022 S    
N13   H29   1.031968 S    
N3    C37   1.451043 S    
C148  H87   1.109365 S    
N9    O38   1.301162 A    
C45   C64   1.410269 A    
N24   H65   1.031868 S    
C19   H3    1.083854 S    
C91   N20   1.422523 S    
C40   C62   1.391612 A    
C121  N34   1.437232 S    
C134  H32   1.110871 S    
C12   C13   1.407370 A    
C150  H96   1.110230 S    
C120  C121  1.416664 A    
C28   C29   1.407463 A    
C144  H71   1.110787 S    
O2    C1    1.298368 A    
C87   C101  1.396742 A    
N39   C150  1.447257 S    
C54   C55   1.411165 A    
C7    C10   1.422737 A    
C137  H44   1.111501 S    
C5    N1    1.368945 A    
C123  C128  1.400030 A    
C18   O14   1.349340 S    
C134  H31   1.111547 S    
N21   C141  1.447261 S    
C34   C42   1.420950 A    
N2    C24   1.446386 S    
C80   C82   1.414812 A    
C87   C88   1.405911 A    
N29   O51   1.301362 A    
C138  H48   1.107470 S    
C68   C77   1.414799 A    
C67   C75   1.419906 A    
N35   O59   1.301564 A    
C140  H56   1.110386 S    
C69   N23   1.440445 S    
C141  H58   1.110251 S    
C143  H67   1.111533 S    
O35   C132  1.298169 A    
C82   C86   1.424699 A    
C80   C83   1.410944 A    
C136  H39   1.110087 S    
C110  C115  1.418038 A    
N3    C32   1.372143 A    
O31   V3    1.973764 S    
C53   O16   1.349550 S    
C142  H63   1.111467 S    
C35   C36   1.408887 A    
C123  C124  1.406539 A    
C74   C77   1.418715 A    
C99   C102  1.393853 A    
C33   C34   1.417853 A    
C81   C100  1.429917 A    
C143  H68   1.111707 S    
N14   H33   1.030736 S    
C136  H40   1.111914 S    
C106  C111  1.423797 A    
N20   H53   1.029268 S    
C54   C58   1.423695 A    
C31   O15   1.349765 S    
C45   C46   1.417456 A    
O29   V3    1.978660 S    
C38   C60   1.427456 A    
C135  H35   1.110727 S    
C108  C109  1.397925 A    
C92   C93   1.412503 A    
C133  H26   1.111238 S    
C13   C14   1.406359 A    
C129  O32   1.295108 A    
C15   C16   1.399088 A    
N38   C149  1.445085 S    
O5    C3    1.295084 A    
C17   N2    1.370804 A    
C54   N12   1.444901 S    
C149  H91   1.110168 S    
C89   O20   1.348698 S    
O30   V3    1.978847 S    
C100  N26   1.437335 S    
C29   N10   1.440251 S    
N1    C6    1.367581 A    
N8    C116  1.368199 A    
C98   N22   1.427532 S    
C105  C108  1.400642 A    
N10   O39   1.301241 A    
C147  H84   1.108817 S    
N40   O64   1.300657 A    
N16   H37   1.031889 S    
C79   C91   1.425464 A    
C76   N19   1.424973 S    
N7    C128  1.451451 S    
N33   O55   1.301401 A    
C139  H52   1.110160 S    
C147  H82   1.110106 S    
O34   V4    1.976977 S    
C5    O11   1.347079 S    
N37   O62   1.301313 A    
C116  O26   1.347553 S    
N28   O50   1.300991 A    
C117  C122  1.410277 A    
N30   H77   1.029363 S    
C44   C46   1.422641 A    
N27   H73   1.031031 S    
O4    C2    1.296432 A    
C57   C58   1.414394 A    
C93   C94   1.398125 A    
C29   C30   1.416847 A    
C36   H7    1.081880 S    
N36   H85   1.026949 S    
C36   C37   1.397992 A    
N6    C94   1.446079 S    
C108  H23   1.083639 S    
O27   C130  1.298515 A    
C106  C107  1.417586 A    
O8    C3    1.297281 A    
C25   C30   1.403106 A    
C150  H95   1.109953 S    
C27   C28   1.406893 A    
N38   H89   1.028794 S    
O32   V4    1.979268 S    
N8    C122  1.452766 S    
N4    C58   1.449989 S    
O3    C4    1.296430 A    
C26   H5    1.083076 S    
O6    V2    1.980632 S    
C83   C84   1.397920 A    
C21   C22   1.426075 A    
N6    C89   1.371183 A    
C121  C122  1.412757 A    
O28   V3    1.974344 S    
C68   O21   1.348666 S    
C133  H28   1.110120 S    
C12   C17   1.409610 A    
C25   H4    1.081459 S    
N7    C104  1.367031 A    
O28   C129  1.296128 A    
C14   C18   1.410040 A    
O1    C2    1.294283 A    
N28   O49   1.301438 A    
O5    V1    1.978696 S    
C67   O19   1.348592 S    
C5    C9    1.418717 A    
C38   C39   1.409168 A    
C127  C128  1.411121 A    
C64   H12   1.078963 S    
C69   C70   1.406912 A    
C141  H59   1.111373 S    
C125  C126  1.417178 A    
C140  H54   1.110236 S    
C47   N13   1.424486 S    
C84   C85   1.412986 A    
N15   O43   1.300550 A    
N34   O57   1.301235 A    
C41   C63   1.417042 A    
N32   O53   1.300656 A    
C2    C119  1.483730 S    
C118  C119  1.410795 A    
C46   C50   1.426690 A    
C109  N28   1.435753 S    
C59   C60   1.419092 A    
C79   C130  1.493766 S    
C127  N37   1.437072 S    
V4    O36   2.151050 S    
C112  C113  1.419698 A    
C23   N40   1.438095 S    
C145  H74   1.108843 S    
C110  C111  1.421448 A    
C1    O6    1.295832 A    
N13   C134  1.447047 S    
N4    C53   1.368394 A    
N9    O37   1.301434 A    
N26   O47   1.301770 A    
N24   C143  1.446962 S    
C104  O24   1.349676 S    
N25   H69   1.029894 S    
C107  C114  1.425503 A    
V2    O10   2.150977 S    
C139  H50   1.110883 S    
C35   N11   1.434152 S    
C102  H22   1.077899 S    
C32   O17   1.348073 S    
C85   C89   1.417897 A    
C43   C56   1.398491 A    
N11   H25   1.030056 S    
O30   C130  1.298116 A    
C118  N32   1.433985 S    
O29   C132  1.293329 A    
N21   H57   1.031953 S    
C69   C73   1.416658 A    
C4    C21   1.500880 S    
C52   O18   1.347531 S    
N16   C136  1.445910 S    
C1    C78   1.483921 S    
O33   V3    2.155784 S    
C33   N15   1.438497 S    
C72   C73   1.401899 A    
C90   H17   1.083718 S    
C11   H1    1.083589 S    
C38   C41   1.415153 A    
C11   C12   1.399710 A    
C45   C61   1.425851 A    
N35   O60   1.300045 A    
C101  H20   1.083489 S    
N19   C139  1.447174 S    
C27   C131  1.486417 S    
C50   C51   1.415809 A    
C137  H43   1.110251 S    
C62   H11   1.078734 S    
C79   C92   1.426096 A    
N30   C146  1.446590 S    
C65   N17   1.423132 S    
C15   H2    1.083911 S    
N5    C68   1.365435 A    
C142  H62   1.110277 S    
C59   C62   1.411491 A    
N36   C148  1.447688 S    
C117  C118  1.414499 A    
N11   C133  1.452540 S    
C126  N36   1.427010 S    
N14   C135  1.447495 S    
O9    V2    1.977217 S    
C113  C114  1.411986 A    
C145  H76   1.110153 S    
C70   H19   1.082549 S    
O2    V1    1.978893 S    
C97   C102  1.406775 A    
C43   C55   1.401243 A    
C146  H80   1.110775 S    
N22   C142  1.446952 S    
C103  C107  1.426992 A    
C23   C24   1.409522 A    
C52   N4    1.369713 A    
C6    O12   1.348176 S    
N18   H45   1.031860 S    
N12   O42   1.301704 A    
C144  H70   1.110247 S    
O4    V1    1.974479 S    
O3    V1    1.973526 S    
C44   C59   1.430097 A    
C35   C42   1.419065 A    
N39   H93   1.030767 S    
C90   C91   1.398440 A    
C146  H79   1.110221 S    
O33   V4    1.702171 S    
C134  H30   1.110252 S    
C22   N39   1.426119 S    
N1    C30   1.446781 S    
C51   C52   1.421078 A    
C103  O23   1.346580 S    
N10   O40   1.301568 A    
C39   C40   1.400190 A    
C14   C15   1.398696 A    
C66   H14   1.079049 S    
C136  H38   1.109837 S    
C20   N38   1.422056 S    
C63   C66   1.401488 A    
C85   C86   1.413020 A    
