data_mof_unit_66089.cif
_audit_creation_date              2012-12-10T17:53:55-0500
_audit_creation_method            fapswitch 2.2
_symmetry_space_group_name_H-M    P1
_symmetry_Int_Tables_number       1
_space_group_crystal_system       triclinic
_cell_length_a                    15.938208
_cell_length_b                    11.73141
_cell_length_c                    10.474082
_cell_angle_alpha                 90.001061
_cell_angle_beta                  90.000983
_cell_angle_gamma                 89.996118
_cell_volume                      1958.41926157

loop_
_atom_site_label
_atom_site_type_symbol
_atom_type_description
_atom_site_fract_x
_atom_site_fract_y
_atom_site_fract_z
_atom_type_partial_charge
C1    C     C_R   0.500003 0.283325 0.499999 0.824363
C2    C     C_R   0.339798 0.500013 0.499997 0.817225
C3    C     C_R   0.660200 0.500024 0.500000 0.816381
C4    C     C_1   0.500012 0.059736 0.499999 0.028168
C5    C     C_1   0.500008 0.161947 0.499998 -0.152370
C6    C     C_1   0.500000 0.499988 0.072078 0.120013
C7    C     C_1   0.500000 0.499989 0.927922 0.120222
C8    C     C_R   0.500005 0.716685 0.500001 0.828124
C9    C     C_3   0.049142 0.428269 0.618409 0.604688
C10   C     C_3   0.049847 0.445922 0.369959 0.535288
C11   C     C_3   0.949790 0.418442 0.609673 0.595063
C12   C     C_1   0.749474 0.500174 0.499990 -0.152176
C13   C     C_3   0.950650 0.459681 0.364235 0.590117
C14   C     C_1   0.500013 0.940274 0.500001 0.029010
C15   C     C_1   0.500010 0.838063 0.500002 -0.150194
C16   C     C_1   0.250520 0.499928 0.499969 -0.131403
C17   C     C_3   0.082934 0.499631 0.499678 -0.226345
C18   C     C_3   0.917090 0.500506 0.499779 -0.199436
C19   C     C_3   0.950625 0.625982 0.526657 0.543579
C20   C     C_3   0.050204 0.627031 0.512224 0.647142
C21   C     C_1   0.824718 0.500357 0.499918 0.125667
C22   C     C_1   0.175279 0.499800 0.499873 0.204740
Cu1   Cu    Cu3+1 0.500000 0.500000 0.625300 1.021325
Cu2   Cu    Cu3+1 0.500000 0.500000 0.374700 1.020517
H1    H     H_    0.077347 0.760549 0.616707 0.360365
H2    H     H_    0.130420 0.480077 0.746840 0.365832
H3    H     H_    0.869868 0.542325 0.257188 0.370097
H4    H     H_    0.928446 0.392296 0.791386 0.376488
H5    H     H_    0.039836 0.683707 0.333224 0.413551
H6    H     H_    0.933553 0.742142 0.659382 0.350095
H7    H     H_    0.855003 0.717596 0.466369 0.343437
H8    H     H_    0.863699 0.299191 0.598811 0.351707
H9    H     H_    0.932296 0.290935 0.367636 0.395399
H10   H     H_    0.064148 0.264752 0.567649 0.395834
H11   H     H_    0.134306 0.325682 0.349082 0.356010
H12   H     H_    0.070816 0.460890 0.186708 0.390076
N1    N     N_1   0.500000 0.499990 0.186410 -0.134427
N2    N     N_1   0.500000 0.499990 0.813590 -0.134410
O1    O     O_R   0.500000 0.337200 0.605810 -0.567421
O2    O     O_3   0.078102 0.692651 0.406655 -0.660625
O3    O     O_3   0.928030 0.658065 0.652237 -0.628673
O4    O     O_3   0.914184 0.704737 0.440528 -0.724450
O5    O     O_3   0.925203 0.304972 0.585257 -0.776381
O6    O     O_3   0.910017 0.358499 0.323127 -0.682098
O7    O     O_3   0.089108 0.320389 0.627076 -0.704672
O8    O     O_3   0.072665 0.329952 0.361947 -0.754712
O9    O     O_3   0.087406 0.502477 0.265393 -0.673407
O10   O     O_3   0.068998 0.486440 0.732488 -0.605868
O11   O     O_3   0.931389 0.543524 0.272172 -0.661899
O12   O     O_R   0.500000 0.337200 0.394190 -0.567082
O13   O     O_3   0.913408 0.451272 0.727258 -0.613023
O14   O     O_R   0.379430 0.500010 0.605860 -0.566173
O15   O     O_R   0.379430 0.500010 0.394140 -0.560937
O16   O     O_R   0.620570 0.500010 0.605860 -0.560103
O17   O     O_R   0.620570 0.500010 0.394140 -0.567886
O18   O     O_R   0.500000 0.662810 0.605810 -0.565976
O19   O     O_R   0.500000 0.662810 0.394190 -0.565928
O20   O     O_3   0.086613 0.676922 0.621617 -0.652449

loop_
_geom_bond_atom_site_label_1
_geom_bond_atom_site_label_2
_ccdc_geom_bond_type
C10   O8    S    
Cu1   Cu2   S    
C11   C18   S    
C11   O5    S    
C6    C7    S    
H7    O4    S    
C8    O19   A    
C18   C21   S    
C2    C16   S    
C1    O12   A    
C17   C22   S    
C19   O4    S    
H2    O10   S    
C8    O18   A    
C19   C20   S    
Cu2   N1    S    
C4    C14   S    
C6    N1    T    
Cu1   O18   S    
H6    O3    S    
H10   O7    S    
Cu2   O17   S    
C9    O7    S    
C9    C11   S    
Cu1   O14   S    
C2    O14   A    
C13   C18   S    
H12   O9    S    
C13   O11   S    
H5    O2    S    
C9    C17   S    
C3    O16   A    
C7    N2    T    
C8    C15   S    
Cu1   O16   S    
Cu2   O12   S    
C20   O2    S    
H4    O13   S    
C1    C5    S    
C11   O13   S    
H1    O20   S    
C1    O1    A    
C10   C17   S    
C20   O20   S    
Cu1   N2    S    
H3    O11   S    
C17   C20   S    
C9    O10   S    
C18   C19   S    
C10   O9    S    
H8    O5    S    
C14   C15   T    
Cu2   O19   S    
C16   C22   T    
C3    C12   S    
Cu2   O15   S    
H11   O8    S    
C3    O17   A    
C12   C21   T    
Cu1   O1    S    
C13   O6    S    
C19   O3    S    
C2    O15   A    
C4    C5    T    
H9    O6    S    
C10   C13   S    
