data_mof_unit_54062.cif
_audit_creation_date              2013-03-05T15:59:53-0500
_audit_creation_method            fapswitch 2.2
_symmetry_space_group_name_H-M    P1
_symmetry_Int_Tables_number       1
_space_group_crystal_system       triclinic
_cell_length_a                    6.976664
_cell_length_b                    21.278487
_cell_length_c                    23.657179
_cell_angle_alpha                 89.996087
_cell_angle_beta                  90.102972
_cell_angle_gamma                 89.920828
_cell_volume                      3511.96671212

loop_
_atom_site_label
_atom_site_type_symbol
_atom_site_description
_atom_site_fract_x
_atom_site_fract_y
_atom_site_fract_z
_atom_type_partial_charge
O1    O     O_R   0.615270 0.806540 0.192260 -0.584416
O2    O     O_R   0.384730 0.193460 0.807740 -0.584413
O3    O     O_R   0.384730 0.193460 0.692260 -0.583975
O4    O     O_R   0.615270 0.806540 0.307740 -0.583974
O5    O     O_R   0.115270 0.693460 0.307740 -0.584596
O6    O     O_R   0.884730 0.306540 0.692260 -0.584600
O7    O     O_R   0.884730 0.306540 0.807740 -0.584750
O8    O     O_R   0.115270 0.693460 0.192260 -0.584754
O9    O     O_R   0.285500 0.813970 0.307340 -0.583245
O10   O     O_R   0.714500 0.186030 0.692660 -0.583246
O11   O     O_R   0.714500 0.186030 0.807340 -0.584112
O12   O     O_R   0.285500 0.813970 0.192660 -0.584114
O13   O     O_R   0.785500 0.686030 0.192660 -0.584166
O14   O     O_R   0.214500 0.313970 0.807340 -0.584164
O15   O     O_R   0.214500 0.313970 0.692660 -0.583840
O16   O     O_R   0.785500 0.686030 0.307340 -0.583837
C1    C     C_R   0.454095 0.829088 0.326662 0.972563
C2    C     C_R   0.545905 0.170912 0.673338 0.972562
C3    C     C_R   0.546229 0.170913 0.826682 0.971760
C4    C     C_R   0.453771 0.829087 0.173318 0.971750
C5    C     C_R   0.954035 0.670916 0.173337 0.968820
C6    C     C_R   0.045965 0.329084 0.826663 0.968816
C7    C     C_R   0.045764 0.329079 0.673343 0.971143
C8    C     C_R   0.954236 0.670921 0.326657 0.971152
O17   O     O_3   0.448760 0.710460 0.250000 -0.268861
O18   O     O_3   0.551240 0.289540 0.750000 -0.268864
O19   O     O_3   0.948760 0.789540 0.250000 -0.267269
O20   O     O_3   0.051240 0.210460 0.750000 -0.267267
V1    V     V_3+5 0.173900 0.757330 0.250000 1.223698
V2    V     V_3+5 0.826100 0.242670 0.750000 1.223699
V3    V     V_3+5 0.673900 0.742670 0.250000 1.222957
V4    V     V_3+5 0.326100 0.257330 0.750000 1.222956
C9    C     C_3   0.126451 0.523119 0.539104 -0.279762
C10   C     C_3   0.873553 0.476881 0.460895 -0.279756
C11   C     C_3   0.874207 0.476709 0.039075 -0.279927
C12   C     C_3   0.125774 0.523292 0.960925 -0.279901
C13   C     C_3   0.632178 0.977221 0.962357 -0.262528
C14   C     C_3   0.367821 0.022779 0.037643 -0.262527
C15   C     C_3   0.374285 0.023422 0.460780 -0.279132
C16   C     C_3   0.625719 0.976578 0.539220 -0.279139
C17   C     C_3   0.936397 0.554412 0.519675 0.067663
C18   C     C_3   0.063606 0.445588 0.480325 0.067654
C19   C     C_3   0.064529 0.445689 0.019713 0.068123
C20   C     C_3   0.935453 0.554312 0.980285 0.068076
C21   C     C_3   0.441271 0.945231 0.979787 0.058249
C22   C     C_3   0.558729 0.054769 0.020212 0.058251
C23   C     C_3   0.564643 0.054234 0.480341 0.066986
C24   C     C_3   0.435361 0.945765 0.519659 0.066998
H1    H     H_    0.226856 0.542586 0.570826 0.222343
H2    H     H_    0.773157 0.457412 0.429173 0.222356
H3    H     H_    0.774183 0.457097 0.070733 0.221889
H4    H     H_    0.225736 0.542913 0.929259 0.221959
H5    H     H_    0.741519 0.959002 0.932532 0.212939
H6    H     H_    0.258481 0.040998 0.067468 0.212939
H7    H     H_    0.274515 0.043173 0.428974 0.221848
H8    H     H_    0.725503 0.956829 0.571025 0.221833
C25   C     C_1   0.962804 0.625103 0.371995 -0.256420
C26   C     C_1   0.037196 0.374898 0.628004 -0.256428
C27   C     C_1   0.037740 0.374909 0.872008 -0.256653
C28   C     C_1   0.962258 0.625091 0.127991 -0.256663
C29   C     C_1   0.460889 0.874915 0.127941 -0.256829
C30   C     C_1   0.539111 0.125085 0.872059 -0.256826
C31   C     C_1   0.537624 0.125086 0.627998 -0.254709
C32   C     C_1   0.462376 0.874914 0.372002 -0.254708
C33   C     C_3   0.168952 0.508744 0.476094 0.385009
C34   C     C_3   0.831050 0.491256 0.523905 0.385008
C35   C     C_3   0.830961 0.490994 0.976045 0.384216
C36   C     C_3   0.169023 0.509007 0.023954 0.384217
C37   C     C_3   0.666151 0.992041 0.025827 0.380279
C38   C     C_3   0.333848 0.007959 0.974173 0.380279
C39   C     C_3   0.330980 0.009201 0.523766 0.384518
C40   C     C_3   0.669024 0.990799 0.476234 0.384517
C41   C     C_3   0.981791 0.540949 0.457086 -0.100894
C42   C     C_3   0.018212 0.459051 0.542914 -0.100877
C43   C     C_3   0.018413 0.459055 0.957101 -0.100397
C44   C     C_3   0.981571 0.540946 0.042898 -0.100306
C45   C     C_3   0.478403 0.959123 0.042842 -0.094149
C46   C     C_3   0.521597 0.040877 0.957158 -0.094150
C47   C     C_3   0.518474 0.040935 0.542907 -0.100673
C48   C     C_3   0.481530 0.959065 0.457093 -0.100693
C49   C     C_1   0.969959 0.587062 0.410218 0.181828
C50   C     C_1   0.030042 0.412938 0.589782 0.181818
C51   C     C_1   0.030520 0.412945 0.910232 0.181685
C52   C     C_1   0.969473 0.587056 0.089767 0.181647
C53   C     C_1   0.466727 0.912971 0.089700 0.188617
C54   C     C_1   0.533273 0.087029 0.910300 0.188619
C55   C     C_1   0.530491 0.087046 0.589776 0.182910
C56   C     C_1   0.469510 0.912954 0.410224 0.182918
N1    N     N_2   0.862826 0.614406 0.538821 -0.091509
H9    H     H_    0.724019 0.623084 0.526013 0.232482
C57   C     C_3   0.900913 0.630071 0.597219 -0.788840
H10   H     H_    0.830655 0.675426 0.607764 0.238759
H11   H     H_    0.057448 0.635553 0.604055 0.242058
H12   H     H_    0.844955 0.593047 0.625807 0.271615
N2    N     N_2   0.137173 0.385594 0.461179 -0.091511
H13   H     H_    0.275973 0.376912 0.473991 0.232492
C58   C     C_3   0.099106 0.369933 0.402779 -0.788829
H14   H     H_    0.169364 0.324578 0.392234 0.238761
H15   H     H_    0.155080 0.406958 0.374194 0.271617
H16   H     H_    0.942574 0.364453 0.395937 0.242056
N3    N     N_2   0.139096 0.385819 0.038926 -0.092005
H17   H     H_    0.277907 0.377337 0.026165 0.232405
C59   C     C_3   0.101767 0.370150 0.097327 -0.791259
H18   H     H_    0.172722 0.324905 0.107926 0.238363
H19   H     H_    0.945370 0.364452 0.104132 0.242114
H20   H     H_    0.157504 0.407279 0.125899 0.272186
N4    N     N_2   0.860912 0.614185 0.961071 -0.092007
H21   H     H_    0.722148 0.622691 0.973862 0.232468
C60   C     C_3   0.898099 0.629825 0.902655 -0.791276
H22   H     H_    0.827158 0.675073 0.892057 0.238369
H23   H     H_    0.842248 0.592689 0.874110 0.272184
H24   H     H_    0.054482 0.635504 0.895812 0.242104
N5    N     N_2   0.370864 0.885183 0.959869 -0.094488
H25   H     H_    0.229378 0.877127 0.969959 0.223573
C61   C     C_3   0.420449 0.868696 0.902467 -0.802264
H26   H     H_    0.355572 0.822631 0.891571 0.238841
H27   H     H_    0.578340 0.864264 0.898247 0.244961
H28   H     H_    0.366551 0.904685 0.872430 0.276931
N6    N     N_2   0.629135 0.114817 0.040131 -0.094487
H29   H     H_    0.770621 0.122873 0.030040 0.223574
C62   C     C_3   0.579551 0.131304 0.097533 -0.802269
H30   H     H_    0.644427 0.177369 0.108429 0.238839
H31   H     H_    0.633451 0.095315 0.127569 0.276932
H32   H     H_    0.421660 0.135735 0.101753 0.244962
N7    N     N_2   0.639225 0.114028 0.461190 -0.091843
H33   H     H_    0.777891 0.122448 0.474195 0.233431
C63   C     C_3   0.602397 0.129625 0.402698 -0.787201
H34   H     H_    0.673417 0.174793 0.392164 0.238650
H35   H     H_    0.446060 0.135444 0.395601 0.241731
H36   H     H_    0.658406 0.092400 0.374281 0.272310
N8    N     N_2   0.360774 0.885973 0.538809 -0.091842
H37   H     H_    0.222096 0.877558 0.525811 0.233418
C64   C     C_3   0.397637 0.870368 0.597298 -0.787198
H38   H     H_    0.326616 0.825201 0.607832 0.238648
H39   H     H_    0.341652 0.907591 0.625722 0.272310
H40   H     H_    0.553977 0.864546 0.604386 0.241732
N9    N     N_R   0.647312 0.480178 0.551197 0.249040
O21   O     O_R   0.566313 0.425383 0.546972 -0.416695
O22   O     O_R   0.576581 0.521654 0.585652 -0.435997
N10   N     N_R   0.352689 0.519823 0.448802 0.249040
O23   O     O_R   0.433667 0.574623 0.453018 -0.416704
O24   O     O_R   0.423457 0.478339 0.414363 -0.435989
N11   N     N_R   0.352926 0.520365 0.051254 0.248945
O25   O     O_R   0.433274 0.575249 0.046948 -0.417509
O26   O     O_R   0.424637 0.479011 0.085732 -0.435853
N12   N     N_R   0.647062 0.479629 0.948744 0.248944
O27   O     O_R   0.566849 0.424718 0.952992 -0.417575
O28   O     O_R   0.575124 0.521037 0.914362 -0.435847
N13   N     N_R   0.153045 0.017883 0.944570 0.249574
O29   O     O_R   0.035272 0.060747 0.962670 -0.426658
O30   O     O_R   0.128893 0.994756 0.894215 -0.422229
N14   N     N_R   0.846954 0.982117 0.055430 0.249575
O31   O     O_R   0.964727 0.939253 0.037330 -0.426660
O32   O     O_R   0.871107 0.005244 0.105785 -0.422231
N15   N     N_R   0.852842 0.979198 0.449110 0.249260
O33   O     O_R   0.932356 0.924083 0.453172 -0.416973
O34   O     O_R   0.925483 0.020685 0.415077 -0.434683
N16   N     N_R   0.147161 0.020801 0.550890 0.249261
O35   O     O_R   0.067619 0.075910 0.546816 -0.416959
O36   O     O_R   0.074570 0.979325 0.584944 -0.434682

loop_
_geom_bond_atom_site_label_1
_geom_bond_atom_site_label_2
_geom_bond_distance
_ccdc_geom_bond_type
O17   V3    1.714614 S    
C7    C26   1.450520 S    
C17   N1    1.448227 S    
C14   C38   1.552150 S    
O18   V4    1.714613 S    
N3    H17   1.030615 S    
C13   C37   1.552148 S    
O12   V1    1.976113 S    
N15   O34   1.298842 A    
C37   C45   1.540375 S    
N2    H13   1.030611 S    
C10   C18   1.551800 S    
C23   C47   1.541588 S    
C43   C51   1.483055 S    
C44   C52   1.483041 S    
C47   C55   1.482961 S    
C58   H14   1.110421 S    
C9    C33   1.550773 S    
O15   V4    1.972877 S    
O16   V3    1.972875 S    
C30   C54   1.214873 T    
O11   C3    1.301539 A    
O3    C2    1.302053 A    
O8    V1    1.969770 S    
N10   O24   1.298887 A    
N5    H25   1.030554 S    
N13   O30   1.299704 A    
C1    C32   1.450782 S    
C2    C31   1.450785 S    
C38   C46   1.540375 S    
C3    C30   1.451190 S    
C9    H1    1.106531 S    
C61   H26   1.110375 S    
C34   C42   1.540197 S    
N11   O26   1.298889 A    
O1    V3    1.968861 S    
C33   C41   1.540196 S    
O19   V1    1.712878 S    
C36   N11   1.455884 S    
O2    V4    1.968860 S    
C4    C29   1.451190 S    
C20   C44   1.541569 S    
C22   C37   1.535492 S    
C59   H18   1.110408 S    
C14   C22   1.552984 S    
C33   N10   1.455825 S    
C15   H7    1.106604 S    
O11   V2    1.976111 S    
C19   C36   1.535997 S    
C16   H8    1.106629 S    
C64   H40   1.110014 S    
N4    H21   1.030596 S    
C24   N8    1.448234 S    
N1    C57   1.445452 S    
C11   C19   1.551898 S    
N12   O28   1.298875 A    
C12   H4    1.106563 S    
O9    V1    1.974303 S    
C13   H5    1.109605 S    
C46   C54   1.483348 S    
O15   C7    1.301933 A    
N7    H33   1.030571 S    
C21   C38   1.535493 S    
C45   C53   1.483350 S    
N3    C59   1.445458 S    
O7    V2    1.969769 S    
C48   C56   1.482965 S    
N16   O36   1.298853 A    
N4    C60   1.445457 S    
C10   C34   1.550772 S    
C38   N13   1.456792 S    
C63   H35   1.110011 S    
C42   C50   1.482668 S    
C41   C49   1.482667 S    
C58   H15   1.110051 S    
C23   N7    1.448232 S    
O5    V1    1.970659 S    
N6    C62   1.445079 S    
C19   C43   1.541574 S    
C11   C44   1.562110 S    
C18   C42   1.541519 S    
C10   H2    1.106514 S    
O19   V3    2.162671 S    
C18   N2    1.448227 S    
O20   V4    2.162672 S    
N10   O23   1.300176 A    
C26   C50   1.214469 T    
C5    C28   1.450882 S    
C34   N9    1.455825 S    
C60   H24   1.110020 S    
O14   V4    1.974912 S    
C6    C27   1.450876 S    
C22   C46   1.542241 S    
C8    C25   1.450518 S    
C61   H27   1.110132 S    
C39   C47   1.540274 S    
C39   N16   1.455829 S    
C19   N3    1.448232 S    
C12   C43   1.562094 S    
C57   H11   1.110020 S    
N9    O22   1.298891 A    
O10   V2    1.974304 S    
C14   H6    1.109605 S    
C11   C35   1.550781 S    
C61   H28   1.109472 S    
O12   C4    1.301538 A    
C35   N12   1.455884 S    
N2    C58   1.445451 S    
O8    C5    1.302150 A    
C16   C47   1.562100 S    
O13   C5    1.302246 A    
C59   H19   1.110028 S    
N7    C63   1.445465 S    
C62   H30   1.110374 S    
C29   C53   1.214873 T    
C62   H32   1.110131 S    
O4    C1    1.302054 A    
O9    C1    1.301950 A    
O6    V2    1.970661 S    
N14   O32   1.299704 A    
O18   V2    2.160226 S    
C11   H3    1.106657 S    
C64   H38   1.110422 S    
C25   C49   1.214473 T    
C12   C20   1.551884 S    
C35   C43   1.540360 S    
C24   C39   1.536002 S    
C13   C21   1.552984 S    
C63   H34   1.110424 S    
C57   H10   1.110421 S    
C58   H16   1.110019 S    
C15   C23   1.551785 S    
N12   O27   1.300179 A    
C13   C46   1.562613 S    
C20   N4    1.448231 S    
C16   C24   1.551787 S    
C18   C33   1.535942 S    
O1    C4    1.302751 A    
C16   C40   1.550812 S    
C31   C55   1.214630 T    
O2    C3    1.302751 A    
C37   N14   1.456792 S    
O13   V3    1.974913 S    
C27   C51   1.214685 T    
N8    C64   1.445467 S    
C57   H12   1.110051 S    
N6    H29   1.030554 S    
C12   C36   1.550767 S    
C17   C34   1.535943 S    
C14   C45   1.562613 S    
C36   C44   1.540364 S    
O7    C6    1.302148 A    
N9    O21   1.300173 A    
C9    C17   1.551802 S    
C15   C48   1.562095 S    
C24   C48   1.541589 S    
C60   H23   1.110067 S    
N11   O25   1.300180 A    
C63   H36   1.110053 S    
C40   C48   1.540271 S    
C60   H22   1.110420 S    
O17   V1    2.160226 S    
C28   C52   1.214679 T    
O14   C6    1.302246 A    
N16   O35   1.300120 A    
O5    C8    1.302211 A    
O10   C2    1.301950 A    
O6    C7    1.302212 A    
O20   V2    1.712877 S    
C22   N6    1.448077 S    
C59   H20   1.110067 S    
O3    V4    1.970010 S    
C23   C40   1.536002 S    
C62   H31   1.109472 S    
O4    V3    1.970008 S    
C10   C41   1.562029 S    
C17   C41   1.541521 S    
C21   N5    1.448078 S    
C9    C42   1.562032 S    
N14   O31   1.299843 A    
O16   C8    1.301933 A    
N15   O33   1.300128 A    
C40   N15   1.455829 S    
C64   H39   1.110056 S    
C15   C39   1.550811 S    
C20   C35   1.535990 S    
C21   C45   1.542238 S    
N1    H9    1.030614 S    
N13   O29   1.299844 A    
C32   C56   1.214631 T    
N8    H37   1.030578 S    
N5    C61   1.445079 S    
