data_mof_unit_25670.cif
_audit_creation_date              2012-12-10T17:25:36-0500
_audit_creation_method            fapswitch 2.2
_symmetry_space_group_name_H-M    P1
_symmetry_Int_Tables_number       1
_space_group_crystal_system       triclinic
_cell_length_a                    10.164168
_cell_length_b                    10.799602
_cell_length_c                    23.463833
_cell_angle_alpha                 90.056499
_cell_angle_beta                  80.504388
_cell_angle_gamma                 95.206827
_cell_volume                      2529.57168512

loop_
_atom_site_label
_atom_site_type_symbol
_atom_type_description
_atom_site_fract_x
_atom_site_fract_y
_atom_site_fract_z
_atom_type_partial_charge
C1    C     C_R   0.555994 0.732626 0.497870 0.944338
C2    C     C_R   0.379968 0.487882 0.306011 -0.238972
C3    C     C_R   0.382276 0.523261 0.770644 0.003217
C4    C     C_R   0.378169 0.489570 0.246740 -0.001150
C5    C     C_R   0.502795 0.507406 0.791629 0.157266
C6    C     C_R   0.501874 0.503687 0.208304 0.155812
C7    C     C_2   0.587677 0.864573 0.502161 -0.358973
C8    C     C_2   0.412145 0.135419 0.514147 -0.358571
C9    C     C_2   0.487596 0.933886 0.520417 -0.146118
C10   C     C_2   0.511996 0.066187 0.518588 -0.138595
C11   C     C_2   0.927701 0.513450 0.502546 0.079875
C12   C     C_R   0.443959 0.267365 0.505482 0.940916
C13   C     C_2   0.072816 0.488137 0.496595 0.082315
C14   C     C_R   0.499865 0.500689 0.610675 0.881949
C15   C     C_R   0.500385 0.499931 0.389377 0.889077
C16   C     C_R   0.489409 0.392820 0.120282 0.633467
C17   C     C_R   0.518145 0.618737 0.879386 0.632266
C18   C     C_R   0.515645 0.615200 0.118701 0.629744
C19   C     C_R   0.488861 0.396422 0.881265 0.634299
C20   C     C_R   0.517059 0.617965 0.059178 -0.027667
C21   C     C_R   0.488610 0.393699 0.940683 -0.027106
C22   C     C_R   0.503177 0.504858 0.029861 -0.073792
C23   C     C_R   0.622636 0.490773 0.753099 -0.003634
C24   C     C_R   0.503223 0.506810 0.969931 -0.073665
C25   C     C_R   0.488619 0.390056 0.060475 -0.084369
C26   C     C_R   0.518304 0.621586 0.939260 -0.084502
C27   C     C_R   0.531452 0.731274 0.028831 -0.294081
C28   C     C_R   0.474285 0.280391 0.971014 -0.292783
C29   C     C_R   0.534865 0.734659 0.968896 0.503449
C30   C     C_R   0.471787 0.277002 0.030864 0.504348
C31   C     C_3   0.158641 0.664807 0.602744 0.225925
C32   C     C_3   0.075285 0.752139 0.641185 -0.847449
C33   C     C_3   0.839496 0.328513 0.399388 0.223886
C34   C     C_R   0.625115 0.516390 0.229462 0.006899
C35   C     C_3   0.918543 0.234182 0.363613 -0.840415
C36   C     C_3   0.658055 0.924791 0.948785 0.068068
C37   C     C_3   0.702141 0.012625 0.897154 -0.671908
C38   C     C_3   0.347252 0.087818 0.051597 0.064061
C39   C     C_3   0.303742 0.000262 0.103361 -0.668963
C40   C     C_2   0.752902 0.476068 0.772790 0.935178
C41   C     C_2   0.757733 0.531515 0.190793 0.934212
C42   C     C_2   0.253735 0.541956 0.809317 0.941595
C43   C     C_2   0.245684 0.476087 0.226735 0.942920
C44   C     C_R   0.619158 0.488235 0.693964 -0.239978
C45   C     C_R   0.622687 0.514955 0.289038 -0.254522
C46   C     C_R   0.500537 0.503149 0.672888 -0.077939
C47   C     C_R   0.501131 0.500634 0.327184 -0.079892
C48   C     C_R   0.383383 0.521331 0.711160 -0.252952
H1    H     H_    0.539556 0.817965 0.051643 0.187945
H2    H     H_    0.690368 0.905149 0.489809 0.162053
H3    H     H_    0.108844 0.412368 0.469787 0.145268
H4    H     H_    0.892120 0.590570 0.528510 0.146883
H5    H     H_    0.264395 0.704971 0.596171 0.172502
H6    H     H_    0.147385 0.573173 0.625686 0.157538
H7    H     H_    0.968299 0.714635 0.648895 0.266559
H8    H     H_    0.111021 0.761338 0.683374 0.249149
H9    H     H_    0.084592 0.845448 0.620255 0.256112
H10   H     H_    0.854050 0.417554 0.374165 0.154043
H11   H     H_    0.732619 0.291952 0.406582 0.181763
H12   H     H_    0.465588 0.193674 0.948259 0.188100
H13   H     H_    0.902436 0.142582 0.386398 0.255200
H14   H     H_    0.884918 0.223529 0.321033 0.228894
H15   H     H_    0.027098 0.265940 0.356571 0.286451
H16   H     H_    0.744428 0.870946 0.953582 0.148687
H17   H     H_    0.632779 0.981482 0.987971 0.171097
H18   H     H_    0.618485 0.066866 0.890054 0.270306
H19   H     H_    0.787928 0.077966 0.905001 0.206284
H20   H     H_    0.733524 0.958586 0.857725 0.271270
H21   H     H_    0.370775 0.030911 0.012349 0.170607
H22   H     H_    0.261187 0.142490 0.047296 0.149932
H23   H     H_    0.709990 0.475750 0.663984 0.206445
H24   H     H_    0.274209 0.054605 0.142886 0.270653
H25   H     H_    0.216846 0.935744 0.096040 0.206116
H26   H     H_    0.387091 0.945111 0.109938 0.271339
H27   H     H_    0.942362 0.428034 0.752209 0.365770
H28   H     H_    0.954999 0.587883 0.182345 0.371128
H29   H     H_    0.067681 0.598543 0.816669 0.370957
H30   H     H_    0.047243 0.424211 0.246633 0.363043
H31   H     H_    0.716067 0.524804 0.305890 0.192174
H32   H     H_    0.291878 0.532469 0.694590 0.185371
H33   H     H_    0.286302 0.476918 0.336009 0.199704
H34   H     H_    0.614920 0.106282 0.516468 0.204190
H35   H     H_    0.384579 0.893863 0.532653 0.195366
H36   H     H_    0.309563 0.094812 0.516098 0.163325
N1    N     N_R   0.502431 0.503989 0.147509 -0.337160
N2    N     N_R   0.503251 0.507562 0.852340 -0.336525
N3    N     N_2   0.842710 0.448880 0.476480 0.030219
N4    N     N_2   0.157290 0.551120 0.523520 0.031240
O1    O     O_R   0.431060 0.692470 0.504730 -0.606862
O2    O     O_2   0.533247 0.725146 0.847945 -0.498691
O3    O     O_2   0.527360 0.722401 0.147864 -0.560013
O4    O     O_2   0.474524 0.289220 0.852321 -0.560461
O5    O     O_3   0.112613 0.654453 0.549543 -0.569818
O6    O     O_3   0.886148 0.343308 0.452341 -0.569303
O7    O     O_3   0.543540 0.847623 0.939612 -0.569129
O8    O     O_3   0.462990 0.163989 0.060102 -0.568810
O9    O     O_2   0.768740 0.501066 0.822169 -0.637196
O10   O     O_R   0.859345 0.434594 0.734067 -0.809926
O11   O     O_2   0.769445 0.499272 0.140393 -0.618446
O12   O     O_R   0.568940 0.307530 0.495270 -0.612371
O13   O     O_R   0.870809 0.581937 0.212531 -0.808289
O14   O     O_2   0.237008 0.514517 0.860692 -0.618073
O15   O     O_R   0.150016 0.590273 0.786472 -0.824210
O16   O     O_2   0.235449 0.505167 0.177439 -0.636379
O17   O     O_R   0.131001 0.430894 0.265061 -0.824913
O18   O     O_R   0.651120 0.659650 0.489640 -0.624716
O19   O     O_R   0.348880 0.340350 0.510360 -0.623776
O20   O     O_R   0.389950 0.516450 0.591390 -0.660651
O21   O     O_R   0.610050 0.483550 0.408610 -0.658105
O22   O     O_R   0.610020 0.483630 0.576300 -0.621274
O23   O     O_R   0.389980 0.516370 0.423700 -0.617904
O24   O     O_2   0.477017 0.286264 0.151484 -0.498612
Zn1   Zn    Zn3+2 0.353060 0.521920 0.510080 0.971719
Zn2   Zn    Zn3+2 0.646940 0.478080 0.489920 0.969125

loop_
_geom_bond_atom_site_label_1
_geom_bond_atom_site_label_2
_ccdc_geom_bond_type
C38   H22   S    
C3    C42   S    
C33   H10   S    
C27   C29   A    
C15   O21   A    
C15   C47   S    
C19   N2    A    
C33   O6    S    
C14   C46   S    
C6    N1    S    
O18   Zn2   S    
H30   O17   S    
C18   O3    S    
C36   C37   S    
C19   C21   A    
C24   C26   A    
C40   O10   S    
C38   C39   S    
C23   C40   S    
N3    O6    S    
C3    C48   A    
C16   C25   A    
C44   H23   S    
C14   O22   A    
C43   O17   S    
C39   H26   S    
N4    Zn1   S    
C43   O16   D    
O19   Zn1   S    
N3    Zn2   S    
C30   O8    S    
C11   H4    S    
C13   H3    S    
H28   O13   S    
C11   N3    D    
C22   C25   A    
C39   H24   S    
C41   O11   D    
C19   O4    S    
C9    C10   S    
O22   Zn2   S    
C32   H7    S    
C1    O18   A    
C14   O20   A    
C38   H21   S    
C33   H11   S    
C1    C7    S    
C42   O15   S    
C34   C41   S    
C32   H9    S    
C42   O14   D    
C44   C46   A    
C46   C48   A    
C28   H12   S    
O1    Zn1   S    
C18   N1    A    
C17   N2    A    
C15   O23   A    
O12   Zn2   S    
C37   H20   S    
C45   H31   S    
C40   O9    D    
C29   O7    S    
C36   H17   S    
C31   O5    S    
C10   H34   S    
H27   O10   S    
C23   C44   A    
C6    C34   A    
O20   Zn1   S    
C2    C4    A    
C31   C32   S    
C5    C23   A    
C8    C12   S    
C37   H18   S    
O23   Zn1   S    
C34   C45   A    
C31   H5    S    
O21   Zn2   S    
C9    H35   S    
C5    N2    S    
C4    C6    A    
C4    C43   S    
C21   C28   A    
C20   C22   A    
C16   N1    A    
C22   C24   A    
H29   O15   S    
C17   C26   A    
C16   O24   S    
C25   C30   A    
C7    C9    D    
N4    O5    S    
C1    O1    A    
C8    H36   S    
C17   O2    S    
C7    H2    S    
C3    C5    A    
C12   O19   A    
C20   C27   A    
C2    C47   A    
C48   H32   S    
C28   C30   A    
C11   C13   S    
C36   O7    S    
C35   H13   S    
C37   H19   S    
C13   N4    D    
C33   C35   S    
C41   O13   S    
C35   H14   S    
C18   C20   A    
C39   H25   S    
C31   H6    S    
C12   O12   A    
C45   C47   A    
C26   C29   A    
C8    C10   D    
C21   C24   A    
C38   O8    S    
C2    H33   S    
C35   H15   S    
C36   H16   S    
C32   H8    S    
C27   H1    S    
