data_mof_unit_51338.cif
_audit_creation_date              2013-03-05T16:04:29-0500
_audit_creation_method            fapswitch 2.2
_symmetry_space_group_name_H-M    P1
_symmetry_Int_Tables_number       1
_space_group_crystal_system       triclinic
_cell_length_a                    10.867937
_cell_length_b                    9.577712
_cell_length_c                    15.087957
_cell_angle_alpha                 89.645203
_cell_angle_beta                  91.371705
_cell_angle_gamma                 92.036381
_cell_volume                      1569.04097582

loop_
_atom_site_label
_atom_site_type_symbol
_atom_site_description
_atom_site_fract_x
_atom_site_fract_y
_atom_site_fract_z
_atom_type_partial_charge
O1    O     O_R   0.319640 0.618740 0.499990 -0.554714
O2    O     O_R   0.680360 0.381260 0.500010 -0.545099
O3    O     O_R   0.680360 0.618740 0.500010 -0.581967
O4    O     O_R   0.319640 0.381260 0.499990 -0.556468
C1    C     C_R   0.263558 0.497634 0.510556 0.797957
C2    C     C_R   0.738566 0.502760 0.498289 0.794344
O5    O     O_R   0.499970 0.618800 0.370260 -0.534390
O6    O     O_R   0.500030 0.381200 0.629740 -0.536949
O7    O     O_R   0.500030 0.618800 0.629740 -0.540337
O8    O     O_R   0.499970 0.381200 0.370260 -0.527370
C3    C     C_R   0.505899 0.500858 0.329619 0.822412
C4    C     C_R   0.498622 0.499175 0.670677 0.812126
Cu1   Cu    Cu3+1 0.500000 0.640660 0.500000 0.990151
Cu2   Cu    Cu3+1 0.500000 0.359340 0.500000 1.007243
C5    C     C_R   0.607776 0.556613 0.812369 0.072378
C6    C     C_R   0.397553 0.463971 0.186276 0.103655
C7    C     C_R   0.503931 0.497703 0.767176 -0.077389
C8    C     C_R   0.506522 0.503895 0.233141 -0.076543
C9    C     C_R   0.404372 0.438289 0.813343 0.092306
C10   C     C_R   0.613307 0.553438 0.189659 0.098656
C11   C     C_R   0.396072 0.464388 0.904973 0.062703
C12   C     C_R   0.613855 0.553866 0.095113 0.047712
C13   C     C_R   0.501986 0.514680 0.952786 -0.110312
C14   C     C_R   0.503398 0.513017 0.047028 -0.120391
C15   C     C_R   0.605949 0.567468 0.906226 -0.035838
C16   C     C_R   0.396646 0.462398 0.092226 -0.022987
C17   C     C_R   0.285300 0.439386 0.950151 0.099735
C18   C     C_R   0.719313 0.597112 0.045810 0.098852
C19   C     C_R   0.289693 0.417038 0.042297 0.485810
C20   C     C_R   0.706364 0.626446 0.955323 0.470569
C21   C     C_R   0.058609 0.371738 0.508066 0.140052
C22   C     C_R   0.943783 0.626898 0.534187 0.127050
C23   C     C_R   0.935941 0.384038 0.481211 0.140855
C24   C     C_R   0.071511 0.616340 0.550935 0.159764
C25   C     C_R   0.874684 0.507611 0.501197 -0.148291
C26   C     C_R   0.130099 0.493683 0.526177 -0.149733
C27   C     C_R   0.435790 0.073579 0.435537 0.389956
C28   C     C_R   0.551861 0.928540 0.569360 0.379144
C29   C     C_R   0.564469 0.077866 0.563757 0.394284
C30   C     C_R   0.449291 0.925033 0.430180 0.379654
N1    N     N_R   0.500000 0.852070 0.500000 -0.271530
N2    N     N_R   0.500000 0.147930 0.500000 -0.274538
C31   C     C_3   0.724872 0.588540 0.761067 -0.684751
H1    H     H_    0.804075 0.537075 0.793690 0.236309
H2    H     H_    0.722040 0.547404 0.692636 0.194486
H3    H     H_    0.742932 0.702981 0.756395 0.265514
C32   C     C_3   0.279004 0.440963 0.237282 -0.717880
H4    H     H_    0.208615 0.511952 0.211019 0.205204
H5    H     H_    0.247647 0.330151 0.233731 0.268793
H6    H     H_    0.285538 0.466197 0.308684 0.212045
C33   C     C_3   0.318590 0.331948 0.766293 -0.860230
H7    H     H_    0.372921 0.252474 0.733104 0.250582
H8    H     H_    0.261160 0.269118 0.812296 0.244416
H9    H     H_    0.259304 0.384684 0.716335 0.213239
C34   C     C_3   0.720031 0.618438 0.244923 -0.891977
H10   H     H_    0.701004 0.636942 0.315114 0.226637
H11   H     H_    0.799272 0.549189 0.247979 0.233333
H12   H     H_    0.744357 0.724115 0.219045 0.231264
C35   C     C_3   0.161769 0.458821 0.903440 -0.858504
H13   H     H_    0.171496 0.508882 0.837390 0.243853
H14   H     H_    0.109942 0.357636 0.895776 0.239237
H15   H     H_    0.106786 0.532562 0.940998 0.223634
C36   C     C_3   0.850731 0.592446 0.080848 -0.841851
H16   H     H_    0.863324 0.495055 0.119421 0.216284
H17   H     H_    0.916622 0.586147 0.026119 0.249011
H18   H     H_    0.879041 0.687667 0.118353 0.234117
O9    O     O_3   0.209677 0.316145 0.078135 -0.570808
C37   C     C_3   0.089124 0.364270 0.085959 -0.371441
H19   H     H_    0.028601 0.322633 0.031433 0.193322
H20   H     H_    0.085684 0.479920 0.089428 0.154297
H21   H     H_    0.050266 0.321681 0.148311 0.181835
O10   O     O_3   0.798278 0.705421 0.914658 -0.591968
C38   C     C_3   0.776700 0.847878 0.928443 -0.344892
H22   H     H_    0.786262 0.875186 0.999918 0.171855
H23   H     H_    0.684446 0.876340 0.901821 0.152490
H24   H     H_    0.846689 0.911512 0.892272 0.190175
C39   C     C_3   0.105142 0.229094 0.532036 -0.854138
H25   H     H_    0.153775 0.233258 0.597565 0.228992
H26   H     H_    0.028990 0.149380 0.537799 0.218160
H27   H     H_    0.168435 0.193665 0.482186 0.264059
C40   C     C_3   0.884123 0.766220 0.547844 -0.811313
H28   H     H_    0.837182 0.799401 0.485449 0.233272
H29   H     H_    0.818152 0.757694 0.602669 0.264293
H30   H     H_    0.949840 0.853837 0.563719 0.211169
C41   C     C_3   0.877560 0.271534 0.421785 -0.833302
H31   H     H_    0.818259 0.318868 0.369531 0.223567
H32   H     H_    0.948783 0.214470 0.386493 0.218574
H33   H     H_    0.822587 0.194817 0.460788 0.242786
C42   C     C_3   0.141979 0.727430 0.605158 -0.833350
H34   H     H_    0.226747 0.686921 0.637004 0.222951
H35   H     H_    0.166423 0.818999 0.562744 0.234322
H36   H     H_    0.086153 0.760721 0.661472 0.225030
O11   O     O_3   0.368760 0.148004 0.372324 -0.534517
C43   C     C_3   0.257125 0.078249 0.345019 -0.279553
H37   H     H_    0.219528 0.003318 0.395208 0.148545
H38   H     H_    0.268699 0.024943 0.280887 0.206075
H39   H     H_    0.186320 0.157004 0.332841 0.153405
O12   O     O_3   0.593628 0.861126 0.644698 -0.552400
C44   C     C_3   0.513835 0.889368 0.714729 -0.293998
H40   H     H_    0.415979 0.861817 0.696671 0.153859
H41   H     H_    0.522819 0.999998 0.736229 0.176730
H42   H     H_    0.539240 0.824679 0.772875 0.179565
O13   O     O_3   0.631604 0.155730 0.626677 -0.534449
C45   C     C_3   0.752706 0.108161 0.638239 -0.261545
H43   H     H_    0.785968 0.048769 0.580833 0.124999
H44   H     H_    0.759034 0.042972 0.699139 0.185651
H45   H     H_    0.816321 0.200319 0.647791 0.176728
O14   O     O_3   0.410446 0.854401 0.354607 -0.537745
C46   C     C_3   0.493789 0.887670 0.286290 -0.278032
H46   H     H_    0.590534 0.867417 0.307123 0.151697
H47   H     H_    0.487429 0.997902 0.263852 0.172115
H48   H     H_    0.469986 0.820426 0.228336 0.187648

loop_
_geom_bond_atom_site_label_1
_geom_bond_atom_site_label_2
_geom_bond_distance
_ccdc_geom_bond_type
C34   H10   1.100520 S    
C36   H17   1.109185 S    
C3    C8    1.455936 S    
O11   C43   1.417711 S    
C17   C19   1.405304 A    
C38   H22   1.112825 S    
C28   O12   1.379143 S    
O3    C2    1.298401 A    
C45   H44   1.109860 S    
C40   H28   1.110107 S    
C32   H5    1.104337 S    
C39   H25   1.110161 S    
O14   C46   1.415818 S    
O5    C3    1.292993 A    
C22   C40   1.521429 S    
O1    C1    1.301702 A    
C9    C11   1.412020 A    
C14   C16   1.428249 A    
C27   C30   1.438416 A    
C46   H47   1.110714 S    
C28   C29   1.434062 A    
C5    C15   1.421228 A    
C1    C26   1.474140 S    
C2    C25   1.478006 S    
C27   N2    1.371432 A    
O7    Cu1   1.967380 S    
C29   N2    1.363720 A    
C23   C41   1.517786 S    
C23   C25   1.415971 A    
C19   O9    1.392380 S    
C44   H40   1.114428 S    
C37   H19   1.108165 S    
C4    C7    1.455733 S    
C13   C14   1.421639 A    
C21   C23   1.392851 A    
C42   H35   1.110805 S    
C8    C10   1.412747 A    
O3    Cu1   1.978751 S    
C30   O14   1.379219 S    
C39   H26   1.110462 S    
C11   C17   1.409974 A    
C36   H18   1.106684 S    
C35   H13   1.108932 S    
C12   C18   1.428899 A    
Cu1   Cu2   2.694402 S    
C38   H23   1.113402 S    
O2    C2    1.305033 A    
C10   C34   1.528706 S    
C6    C32   1.525095 S    
Cu1   N1    2.024824 S    
C45   H43   1.113617 S    
C40   H29   1.108313 S    
C21   C39   1.512377 S    
C32   H6    1.105626 S    
C41   H32   1.111217 S    
C6    C16   1.418992 A    
C35   H14   1.108736 S    
O9    C37   1.412054 S    
C22   C25   1.430092 A    
C28   N1    1.378833 A    
O8    Cu2   1.967380 S    
C46   H48   1.109316 S    
O10   C38   1.410129 S    
C43   H39   1.107982 S    
C41   H31   1.111078 S    
C33   H7    1.108883 S    
C33   H8    1.105587 S    
C22   C24   1.412042 A    
C31   H1    1.110426 S    
C32   H4    1.106167 S    
O6    C4    1.291821 A    
C27   O11   1.394153 S    
C42   H36   1.110630 S    
C43   H38   1.108727 S    
C31   H2    1.106727 S    
C6    C8    1.407047 A    
C30   N1    1.375591 A    
C44   H41   1.110343 S    
C10   C12   1.426635 A    
O8    C3    1.296737 A    
C34   H11   1.105428 S    
C38   H24   1.109355 S    
C12   C14   1.431401 A    
O1    Cu1   1.963917 S    
C40   H30   1.106066 S    
C41   H33   1.106082 S    
C15   C20   1.407643 A    
C5    C7    1.407005 A    
C35   H15   1.108223 S    
O6    Cu2   1.969956 S    
O4    C1    1.301669 A    
C20   O10   1.384301 S    
C29   O13   1.388052 S    
Cu2   N2    2.024825 S    
C33   H9    1.110671 S    
C11   C13   1.415108 A    
C24   C42   1.520125 S    
C5    C31   1.526006 S    
C17   C35   1.518079 S    
C46   H46   1.113470 S    
C39   H27   1.094766 S    
C37   H21   1.109861 S    
C18   C20   1.396986 A    
C7    C9    1.402561 A    
C24   C26   1.412456 A    
C13   C15   1.420815 A    
O4    Cu2   1.978752 S    
C43   H37   1.114758 S    
O2    Cu2   1.963916 S    
C31   H3    1.108743 S    
O7    C4    1.298034 A    
C36   H16   1.107272 S    
C18   C36   1.513088 S    
C9    C33   1.523215 S    
O5    Cu1   1.969956 S    
C44   H42   1.106162 S    
C16   C19   1.426032 A    
C37   H20   1.111216 S    
O12   C44   1.416234 S    
C34   H12   1.108063 S    
O13   C45   1.414510 S    
C21   C26   1.404190 A    
C42   H34   1.109958 S    
C45   H45   1.109639 S    
