data_mof_unit_32394.cif
_audit_creation_date              2012-12-11T14:30:19-0500
_audit_creation_method            fapswitch 2.2
_symmetry_space_group_name_H-M    P1
_symmetry_Int_Tables_number       1
_space_group_crystal_system       triclinic
_cell_length_a                    12.702874
_cell_length_b                    12.702796
_cell_length_c                    27.007842
_cell_angle_alpha                 90.000879
_cell_angle_beta                  90.000675
_cell_angle_gamma                 120.001007
_cell_volume                      3774.13493098

loop_
_atom_site_label
_atom_site_type_symbol
_atom_type_description
_atom_site_fract_x
_atom_site_fract_y
_atom_site_fract_z
_atom_type_partial_charge
C1    C     C_R   0.557235 0.456061 0.821830 0.543967
C2    C     C_R   0.455331 0.559971 0.177168 0.540841
C3    C     C_R   0.923225 0.287662 0.466120 -0.116406
C4    C     C_R   0.279024 0.913693 0.017266 -0.115887
C5    C     C_R   0.712352 0.635505 0.466115 -0.116389
C6    C     C_R   0.365602 0.086652 0.517230 -0.115833
C7    C     C_R   0.076568 0.364263 0.966137 -0.116461
C8    C     C_R   0.721062 0.634369 0.517231 -0.115826
C9    C     C_R   0.287713 0.923522 0.966150 -0.116485
C10   C     C_R   0.913362 0.278948 0.517236 -0.115829
C11   C     C_R   0.635790 0.712285 0.966153 -0.116481
C12   C     C_1   0.944079 0.758365 0.056932 0.189953
C13   C     C_R   0.442774 0.898835 0.321828 0.543944
C14   C     C_1   0.761585 0.933357 0.451559 0.190204
C15   C     C_1   0.241619 0.185708 0.056920 0.189958
C16   C     C_1   0.066608 0.828211 0.451555 0.190177
C17   C     C_1   0.814276 0.055874 0.056926 0.189942
C18   C     C_1   0.171787 0.238391 0.451547 0.190174
C19   C     C_1   0.758203 0.943859 0.556951 0.190104
C20   C     C_1   0.933620 0.761740 0.951535 0.190027
C21   C     C_1   0.185663 0.241794 0.556941 0.190105
C22   C     C_1   0.828117 0.066381 0.951531 0.190037
C23   C     C_1   0.056105 0.814332 0.556949 0.190083
C24   C     C_R   0.104642 0.544667 0.177168 0.540842
C25   C     C_1   0.238245 0.171884 0.951522 0.190015
C26   C     C_R   0.013496 0.516513 0.971173 0.048113
C27   C     C_R   0.520836 0.027623 0.522881 0.048120
C28   C     C_R   0.483515 0.496975 0.971178 0.048118
C29   C     C_R   0.972377 0.493200 0.522883 0.048129
C30   C     C_R   0.503020 0.986541 0.971178 0.048116
C31   C     C_R   0.506803 0.479149 0.522877 0.048127
C32   C     C_R   0.516559 0.013528 0.471168 0.048102
C33   C     C_R   0.895343 0.440017 0.677165 0.540833
C34   C     C_R   0.027584 0.520794 0.022886 0.048130
C35   C     C_R   0.496981 0.483435 0.471167 0.048100
C36   C     C_R   0.493215 0.972448 0.022890 0.048141
C37   C     C_R   0.986489 0.503024 0.471172 0.048103
C38   C     C_R   0.479231 0.506776 0.022890 0.048145
C39   C     C_R   0.958000 0.674593 0.976003 -0.032057
C40   C     C_R   0.677372 0.969822 0.528132 -0.036839
C41   C     C_R   0.325403 0.283408 0.975996 -0.032063
C42   C     C_R   0.030157 0.707534 0.528130 -0.036848
C43   C     C_R   0.716587 0.041992 0.976001 -0.032061
C44   C     C_R   0.543940 0.101175 0.821830 0.543963
C45   C     C_R   0.292467 0.322614 0.528123 -0.036841
C46   C     C_R   0.674496 0.957838 0.476016 -0.032088
C47   C     C_R   0.969976 0.677476 0.028119 -0.036801
C48   C     C_R   0.283353 0.325496 0.476009 -0.032087
C49   C     C_R   0.707489 0.029996 0.028116 -0.036813
C50   C     C_R   0.042153 0.716648 0.476015 -0.032093
C51   C     C_R   0.322511 0.292503 0.028111 -0.036819
C52   C     C_R   0.949372 0.574340 0.896584 -0.130518
C53   C     C_R   0.605640 0.025887 0.603534 -0.137848
C54   C     C_R   0.425662 0.375033 0.896582 -0.130518
C55   C     C_R   0.559979 0.455327 0.677165 0.540831
C56   C     C_R   0.974094 0.579737 0.603532 -0.137857
C57   C     C_R   0.624971 0.050637 0.896585 -0.130512
C58   C     C_R   0.420267 0.394343 0.603527 -0.137855
C59   C     C_R   0.574305 0.949302 0.396590 -0.130533
C60   C     C_R   0.025933 0.605679 0.103532 -0.137799
C61   C     C_R   0.374984 0.425706 0.396589 -0.130527
C62   C     C_R   0.579732 0.974026 0.103528 -0.137802
C63   C     C_R   0.050734 0.625019 0.396594 -0.130524
C64   C     C_R   0.394290 0.420263 0.103525 -0.137822
C65   C     C_R   0.061115 0.528181 0.125763 -0.005935
C66   C     C_R   0.898822 0.442764 0.821830 0.543975
C67   C     C_R   0.485098 0.960044 0.369870 -0.011411
C68   C     C_R   0.471818 0.532916 0.125766 -0.005965
C69   C     C_R   0.039991 0.525065 0.369875 -0.011397
C70   C     C_R   0.467075 0.938892 0.125766 -0.005957
C71   C     C_R   0.474939 0.514913 0.369871 -0.011402
C72   C     C_R   0.528199 0.061152 0.625758 -0.005934
C73   C     C_R   0.960031 0.485073 0.869872 -0.011397
C74   C     C_R   0.532959 0.471784 0.625755 -0.005944
C75   C     C_R   0.525045 0.039989 0.869875 -0.011392
C76   C     C_R   0.938834 0.467042 0.625758 -0.005943
C77   C     C_R   0.544670 0.104649 0.677166 0.540829
C78   C     C_R   0.514940 0.474958 0.869875 -0.011398
C79   C     C_R   0.975297 0.590761 0.947634 -0.017236
C80   C     C_R   0.601278 0.006246 0.551827 -0.015348
C81   C     C_R   0.409249 0.384535 0.947632 -0.017234
C82   C     C_R   0.993739 0.595016 0.551827 -0.015348
C83   C     C_R   0.615464 0.024717 0.947635 -0.017230
C84   C     C_R   0.404988 0.398706 0.551821 -0.015347
C85   C     C_R   0.590733 0.975229 0.447639 -0.017289
C86   C     C_R   0.006302 0.601314 0.051824 -0.015294
C87   C     C_R   0.384499 0.409268 0.447636 -0.017286
C88   C     C_R   0.456058 0.557233 0.321830 0.543958
C89   C     C_R   0.595005 0.993685 0.051823 -0.015293
C90   C     C_R   0.024790 0.615504 0.447641 -0.017283
C91   C     C_R   0.398680 0.404988 0.051820 -0.015301
C92   C     C_R   0.010807 0.422017 0.892562 -0.126119
C93   C     C_R   0.444536 0.074861 0.596583 -0.113576
C94   C     C_R   0.578023 0.588784 0.892571 -0.126126
C95   C     C_R   0.925123 0.369674 0.596585 -0.113582
C96   C     C_R   0.411220 0.989253 0.892571 -0.126122
C97   C     C_R   0.630329 0.555435 0.596581 -0.113581
C98   C     C_R   0.422123 0.010914 0.392549 -0.126125
C99   C     C_R   0.440020 0.895348 0.177166 0.540848
C100  C     C_R   0.074725 0.444441 0.096596 -0.113611
C101  C     C_R   0.588793 0.577883 0.392551 -0.126128
C102  C     C_R   0.369751 0.925347 0.096605 -0.113631
C103  C     C_R   0.989137 0.411217 0.392556 -0.126132
C104  C     C_R   0.555602 0.630234 0.096607 -0.113632
C105  C     C_R   0.036046 0.435818 0.943007 0.014483
C106  C     C_R   0.442664 0.061921 0.545669 0.012193
C107  C     C_R   0.564224 0.600217 0.943017 0.014475
C108  C     C_R   0.938077 0.380737 0.545672 0.012193
C109  C     C_R   0.399783 0.964020 0.943016 0.014471
C110  C     C_R   0.101178 0.543943 0.321830 0.543954
C111  C     C_R   0.619268 0.557312 0.545667 0.012192
C112  C     C_R   0.435941 0.036171 0.442993 0.014506
C113  C     C_R   0.061777 0.442550 0.045683 0.012180
C114  C     C_R   0.600243 0.564054 0.442993 0.014502
C115  C     C_R   0.380795 0.938291 0.045691 0.012182
C116  C     C_R   0.963865 0.399768 0.442999 0.014493
C117  C     C_R   0.557495 0.619192 0.045693 0.012181
C118  C     C_R   0.086400 0.365398 0.017253 -0.115885
C119  C     C_R   0.364473 0.076810 0.466113 -0.116395
C120  C     C_R   0.634660 0.720967 0.017270 -0.115889
Cr1   Cr    Cr6+3 0.487630 0.241180 0.750000 1.035022
Cr2   Cr    Cr6+3 0.753550 0.512370 0.750000 1.035026
Cr3   Cr    Cr6+3 0.758820 0.246450 0.750000 1.035024
Cr4   Cr    Cr6+3 0.241180 0.487630 0.250000 1.035006
Cr5   Cr    Cr6+3 0.512370 0.753550 0.250000 1.035010
Cr6   Cr    Cr6+3 0.246450 0.758820 0.250000 1.035009
H1    H     H_    0.017234 0.670773 0.126518 0.138559
H2    H     H_    0.712308 0.088330 0.878326 0.151400
H3    H     H_    0.982842 0.653532 0.626521 0.138567
H4    H     H_    0.376018 0.287701 0.878321 0.151400
H5    H     H_    0.103822 0.385237 0.113035 0.150372
H6    H     H_    0.355165 0.022047 0.371830 0.143643
H7    H     H_    0.614833 0.718504 0.113053 0.150411
H8    H     H_    0.978018 0.333128 0.371839 0.143658
H9    H     H_    0.281476 0.896295 0.113048 0.150411
H10   H     H_    0.666883 0.644844 0.371834 0.143654
H11   H     H_    0.385383 0.104025 0.613017 0.150385
H12   H     H_    0.623870 0.911522 0.378343 0.151433
H13   H     H_    0.021869 0.355005 0.871852 0.143671
H14   H     H_    0.718636 0.614576 0.613017 0.150398
H15   H     H_    0.333149 0.978209 0.871864 0.143685
H16   H     H_    0.895950 0.281366 0.613019 0.150398
H17   H     H_    0.645048 0.666855 0.871866 0.143683
H18   H     H_    0.112806 0.305560 0.034692 0.142306
H19   H     H_    0.305296 0.097865 0.444738 0.151225
H20   H     H_    0.694497 0.807209 0.034711 0.142335
H21   H     H_    0.902179 0.207432 0.444746 0.151240
H22   H     H_    0.192780 0.887288 0.034707 0.142339
H23   H     H_    0.329150 0.346504 0.126501 0.138567
H24   H     H_    0.792585 0.694676 0.444742 0.151231
H25   H     H_    0.305824 0.113148 0.534662 0.142242
H26   H     H_    0.097544 0.305021 0.944768 0.151285
H27   H     H_    0.807336 0.694134 0.534664 0.142243
H28   H     H_    0.207493 0.902552 0.944784 0.151306
H29   H     H_    0.886857 0.192675 0.534669 0.142255
H30   H     H_    0.695030 0.792508 0.944789 0.151301
H31   H     H_    0.088523 0.712378 0.378347 0.151430
H32   H     H_    0.653496 0.982657 0.126506 0.138571
H33   H     H_    0.287625 0.376149 0.378343 0.151433
H34   H     H_    0.670682 0.017126 0.626526 0.138561
H35   H     H_    0.911661 0.623965 0.878329 0.151403
H36   H     H_    0.346471 0.329300 0.626515 0.138565
N1    N     N_1   0.923292 0.822773 0.079877 -0.262378
N2    N     N_1   0.916209 0.084254 0.931674 -0.270964
N3    N     N_1   0.076931 0.899537 0.579897 -0.262396
N4    N     N_1   0.168011 0.083798 0.931662 -0.270975
N5    N     N_1   0.831766 0.915408 0.431715 -0.271077
N6    N     N_1   0.177208 0.100504 0.079862 -0.262368
N7    N     N_1   0.084531 0.916331 0.431709 -0.271053
N8    N     N_1   0.899472 0.076645 0.079869 -0.262328
N9    N     N_1   0.083666 0.168194 0.431699 -0.271085
N10   N     N_1   0.822563 0.923014 0.579901 -0.262399
N11   N     N_1   0.915757 0.831966 0.931680 -0.270985
N12   N     N_1   0.100450 0.177443 0.579890 -0.262419
O1    O     O_R   0.460870 0.120930 0.805240 -0.511904
O2    O     O_R   0.120930 0.460870 0.194760 -0.513447
O3    O     O_R   0.539130 0.660060 0.305240 -0.511887
O4    O     O_R   0.339940 0.879070 0.194760 -0.513452
O5    O     O_R   0.498910 0.350470 0.801870 -0.500349
O6    O     O_R   0.851560 0.501090 0.698130 -0.500733
O7    O     O_R   0.649530 0.148440 0.801870 -0.500348
O8    O     O_R   0.498910 0.350470 0.698130 -0.500729
O9    O     O_R   0.851560 0.501090 0.801870 -0.500354
O10   O     O_R   0.649530 0.148440 0.698130 -0.500730
O11   O     O_R   0.350470 0.498910 0.301870 -0.500364
O12   O     O_R   0.660060 0.539130 0.694760 -0.513419
O13   O     O_R   0.501090 0.851560 0.198130 -0.500720
O14   O     O_R   0.148440 0.649530 0.301870 -0.500357
O15   O     O_R   0.350470 0.498910 0.198130 -0.500721
O16   O     O_R   0.501090 0.851560 0.301870 -0.500355
O17   O     O_R   0.148440 0.649530 0.198130 -0.500715
O18   O     O_3   0.666667 0.333333 0.750000 -0.244316
O19   O     O_3   0.333333 0.666667 0.250000 -0.244296
O20   O     O_R   0.879070 0.339940 0.805240 -0.511898
O21   O     O_R   0.460870 0.120930 0.694760 -0.513420
O22   O     O_R   0.660060 0.539130 0.805240 -0.511903
O23   O     O_R   0.879070 0.339940 0.694760 -0.513420
O24   O     O_R   0.120930 0.460870 0.305240 -0.511900
O25   O     O_R   0.539130 0.660060 0.194760 -0.513455
O26   O     O_R   0.339940 0.879070 0.305240 -0.511885

loop_
_geom_bond_atom_site_label_1
_geom_bond_atom_site_label_2
_ccdc_geom_bond_type
C36   C89   A    
C66   O9    A    
C71   C88   S    
C3    H21   S    
C56   C76   A    
C13   O26   A    
C5    C114  A    
C110  O24   A    
C43   C83   A    
C4    C115  A    
C10   C108  A    
C42   C82   A    
C44   O1    A    
C57   H2    S    
C99   O13   A    
C100  H5    S    
C88   O3    A    
C14   C46   S    
C37   C116  A    
C18   N9    T    
C34   C113  A    
Cr2   O6    S    
C110  O14   A    
C33   O23   A    
Cr3   O10   S    
C23   C42   S    
C37   C90   A    
C94   H17   S    
C64   C68   A    
C103  H8    S    
C16   C50   S    
C22   C43   S    
C2    C68   S    
C3    C116  A    
C61   H33   S    
C76   C95   A    
Cr4   O11   S    
C97   C111  A    
Cr2   O12   S    
C29   C37   A    
C28   C107  A    
C4    H22   S    
C62   C89   A    
Cr4   O24   S    
C120  H20   S    
C77   O10   A    
C62   C70   A    
C35   C114  A    
C34   C86   A    
C55   O12   A    
C30   C83   A    
C102  H9    S    
Cr2   O22   S    
C102  C115  A    
C61   C87   A    
C67   C98   A    
C51   C91   A    
C96   H15   S    
C23   N3    T    
C38   C117  A    
C35   C87   A    
C16   N7    T    
C26   C34   A    
C63   C69   A    
Cr4   O19   S    
C40   C80   A    
C29   C108  A    
Cr5   O16   S    
C15   C51   S    
C52   C79   A    
C53   C72   A    
C97   H14   S    
C56   H3    S    
C52   H35   S    
C46   C85   A    
C59   C67   A    
C61   C71   A    
C71   C101  A    
C33   O6    A    
C101  C114  A    
C55   C74   S    
C7    C118  A    
Cr1   O18   S    
C12   C47   S    
C11   C120  A    
C26   C105  A    
Cr4   O15   S    
C66   O20   A    
C50   C90   A    
C75   C96   A    
C74   C97   A    
C21   C45   S    
C69   C103  A    
C9    C109  A    
C54   H4    S    
C94   C107  A    
C98   C112  A    
C104  H7    S    
C30   C109  A    
C1    C78   S    
C2    O25   A    
C47   C86   A    
C53   C80   A    
Cr5   O19   S    
C19   N10   T    
C65   C100  A    
C99   O4    A    
Cr1   O5    S    
C52   C73   A    
C19   C40   S    
C117  C120  A    
C17   C49   S    
C20   C39   S    
C60   C86   A    
C17   N8    T    
C43   C49   A    
C27   C106  A    
C66   C73   S    
C38   C91   A    
C31   C84   A    
C7    H26   S    
C5    H24   S    
C39   C79   A    
C44   C75   S    
C40   C46   A    
C59   C85   A    
C72   C77   S    
C2    O15   A    
C58   C84   A    
C93   C106  A    
C5    C8    A    
C22   N2    T    
C69   C110  S    
C33   C76   S    
C20   N11   T    
C28   C38   A    
C41   C81   A    
C1    O22   A    
C57   C83   A    
C6    C106  A    
C48   C87   A    
Cr3   O20   S    
Cr2   O18   S    
C8    H27   S    
C92   H13   S    
C24   C65   S    
C42   C50   A    
Cr3   O18   S    
C6    H25   S    
C11   H30   S    
C101  H10   S    
Cr2   O9    S    
C60   C65   A    
C27   C80   A    
Cr5   O3    S    
C31   C35   A    
C15   N6    T    
C8    C111  A    
C45   C84   A    
C63   H31   S    
C25   C41   S    
C58   H36   S    
C6    C119  A    
C70   C99   S    
C58   C74   A    
C39   C47   A    
C104  C117  A    
C13   C67   S    
C45   C48   A    
Cr6   O26   S    
C88   O11   A    
C53   H34   S    
C32   C112  A    
C27   C32   A    
Cr3   O23   S    
C60   H1    S    
C100  C113  A    
C68   C104  A    
C73   C92   A    
C49   C89   A    
C18   C48   S    
C10   H29   S    
C9    H28   S    
C112  C119  A    
C70   C102  A    
C56   C82   A    
Cr4   O2    S    
C41   C51   A    
C25   N4    T    
C119  H19   S    
C96   C109  A    
C118  H18   S    
C26   C79   A    
C59   H12   S    
C30   C36   A    
C64   H23   S    
Cr5   O13   S    
C57   C75   A    
Cr6   O14   S    
C103  C116  A    
C14   N5    T    
C28   C81   A    
C29   C82   A    
Cr3   O7    S    
C3    C10   A    
C12   N1    T    
C11   C107  A    
C1    O5    A    
Cr6   O19   S    
Cr1   O1    S    
C78   C94   A    
C32   C85   A    
C63   C90   A    
C55   O8    A    
C72   C93   A    
C62   H32   S    
Cr6   O4    S    
C24   O17   A    
C77   O21   A    
Cr6   O17   S    
C93   H11   S    
C95   C108  A    
C13   O16   A    
C113  C118  A    
C92   C105  A    
Cr5   O25   S    
C95   H16   S    
C21   N12   T    
C7    C105  A    
C98   H6    S    
C31   C111  A    
C64   C91   A    
C4    C9    A    
C36   C115  A    
C44   O7    A    
Cr1   O21   S    
C54   C81   A    
Cr1   O8    S    
C54   C78   A    
C24   O2    A    
