data_mof_unit_35371.cif
_audit_creation_date              2012-10-26T18:52:10-0400
_audit_creation_method            fapswitch 2.2
_symmetry_space_group_name_H-M    P1
_symmetry_Int_Tables_number       1
_space_group_crystal_system       triclinic
_cell_length_a                    13.873481
_cell_length_b                    14.705763
_cell_length_c                    14.720605
_cell_angle_alpha                 114.800786
_cell_angle_beta                  105.865748
_cell_angle_gamma                 72.445702
_cell_volume                      2561.65160654

loop_
_atom_site_label
_atom_site_type_symbol
_atom_type_description
_atom_site_fract_x
_atom_site_fract_y
_atom_site_fract_z
_atom_type_partial_charge
C1    C     C_R   0.516198 0.118487 0.687962 0.544826
C2    C     C_R   0.461508 0.513103 0.871823 -0.140341
C3    C     C_R   0.493226 0.388532 0.093715 -0.137580
C4    C     C_R   0.447464 0.618020 0.898786 -0.136746
C5    C     C_R   0.343780 0.284938 0.313474 -0.031711
C6    C     C_R   0.656949 0.714604 0.686013 -0.031263
C7    C     C_R   0.366475 0.206083 0.351147 0.059942
C8    C     C_R   0.634705 0.793156 0.647997 0.059585
C9    C     C_R   0.481051 0.289336 0.493265 0.029010
C10   C     C_R   0.517410 0.711666 0.507804 0.029509
C11   C     C_R   0.460655 0.374081 0.463019 -0.006139
C12   C     C_R   0.482647 0.881575 0.311966 0.545717
C13   C     C_R   0.536679 0.627575 0.538770 -0.006332
C14   C     C_R   0.391323 0.370308 0.370876 0.038106
C15   C     C_R   0.606755 0.630880 0.630407 0.037960
C16   C     C_R   0.686964 0.986927 0.503955 0.551252
C17   C     C_R   0.313037 0.013077 0.496053 0.551157
C18   C     C_R   0.508417 0.460681 0.519760 0.025096
C19   C     C_R   0.487687 0.541748 0.482856 0.026448
C20   C     C_R   0.418879 0.534152 0.390968 -0.143206
C21   C     C_R   0.575991 0.469052 0.612457 -0.143767
C22   C     C_R   0.371845 0.451385 0.337118 -0.139021
C23   C     C_R   0.496350 0.361294 0.919663 0.032745
C24   C     C_R   0.624228 0.551078 0.665513 -0.135262
C25   C     C_1   0.207669 0.020482 0.493656 -0.019368
C26   C     C_1   0.792339 0.979531 0.506378 -0.019710
C27   C     C_2   0.013099 0.033929 0.489270 -0.122693
C28   C     C_2   0.986918 0.966096 0.510808 -0.123033
C29   C     C_1   0.881205 0.972959 0.508542 -0.053247
C30   C     C_1   0.118808 0.027059 0.491516 -0.053062
C31   C     C_R   0.518385 0.185911 0.795112 -0.002381
C32   C     C_R   0.470490 0.814966 0.204165 -0.002625
C33   C     C_R   0.515887 0.216116 0.969078 -0.136741
C34   C     C_R   0.469269 0.642402 0.076554 0.031499
C35   C     C_R   0.441553 0.788554 0.026130 -0.136403
C36   C     C_R   0.523118 0.148457 0.869686 -0.140141
C37   C     C_R   0.449661 0.854332 0.127529 -0.139700
C38   C     C_R   0.508624 0.290884 0.821229 -0.131673
C39   C     C_R   0.480448 0.709941 0.178294 -0.135693
C40   C     C_3   0.272047 0.278435 0.212498 -0.277812
C41   C     C_3   0.228933 0.180587 0.154643 -0.311287
C42   C     C_3   0.160787 0.182456 0.054337 -0.444277
C43   C     C_3   0.731427 0.719504 0.785253 -0.278073
C44   C     C_3   0.779963 0.814127 0.839657 -0.311508
C45   C     C_R   0.502084 0.321974 0.994484 0.049612
C46   C     C_3   0.852212 0.809953 0.937499 -0.443856
C47   C     C_R   0.452502 0.683017 0.000195 0.049786
C48   C     C_R   0.479229 0.469172 0.945742 0.031445
C49   C     C_R   0.477376 0.535524 0.048999 0.032143
C50   C     C_R   0.481665 0.493147 0.120868 -0.138295
Cu1   Cu    Cu3+1 0.526370 0.916390 0.524860 0.928790
Cu2   Cu    Cu3+1 0.473630 0.083610 0.475140 0.929848
H1    H     H_    0.044604 0.905197 0.530195 0.134768
H2    H     H_    0.530813 0.067360 0.850976 0.123861
H3    H     H_    0.519565 0.185850 0.025880 0.104561
H4    H     H_    0.427523 0.820078 0.967909 0.104528
H5    H     H_    0.473135 0.539030 0.198645 0.099460
H6    H     H_    0.454940 0.469069 0.791542 0.105275
H7    H     H_    0.319954 0.452196 0.267567 0.104009
H8    H     H_    0.675526 0.550686 0.735459 0.105158
H9    H     H_    0.462127 0.718067 0.442366 0.121109
H10   H     H_    0.536115 0.283279 0.558953 0.120579
H11   H     H_    0.669552 0.858878 0.687330 0.130072
H12   H     H_    0.955413 0.094826 0.469880 0.135369
H13   H     H_    0.332864 0.139603 0.310915 0.129795
H14   H     H_    0.094923 0.249249 0.068306 0.155166
H15   H     H_    0.205489 0.187037 0.004813 0.155610
H16   H     H_    0.130641 0.111152 0.014386 0.145101
H17   H     H_    0.293023 0.112149 0.137736 0.152606
H18   H     H_    0.182304 0.174063 0.201333 0.159543
H19   H     H_    0.206197 0.345317 0.227274 0.148849
H20   H     H_    0.314909 0.283910 0.161852 0.143992
H21   H     H_    0.809647 0.808241 0.990457 0.155652
H22   H     H_    0.915366 0.740752 0.920598 0.155084
H23   H     H_    0.399296 0.591154 0.357420 0.087423
H24   H     H_    0.886077 0.879033 0.975063 0.145721
H25   H     H_    0.824678 0.817489 0.789347 0.159871
H26   H     H_    0.718859 0.884989 0.859388 0.154895
H27   H     H_    0.689498 0.717617 0.838724 0.146161
H28   H     H_    0.794589 0.650134 0.768803 0.148899
H29   H     H_    0.593530 0.413295 0.647268 0.089620
H30   H     H_    0.495662 0.359506 0.151142 0.112273
H31   H     H_    0.433849 0.648323 0.839669 0.113197
H32   H     H_    0.500060 0.682131 0.239326 0.119539
H33   H     H_    0.511615 0.315552 0.763040 0.112932
H34   H     H_    0.441389 0.935458 0.145921 0.120769
N1    N     N_R   0.433980 0.209250 0.437830 -0.245108
N2    N     N_R   0.566020 0.790750 0.562170 -0.245490
O1    O     O_R   0.534760 0.019630 0.662610 -0.512134
O2    O     O_R   0.465240 0.980370 0.337390 -0.512060
O3    O     O_R   0.490220 0.160840 0.620610 -0.509872
O4    O     O_R   0.509780 0.839160 0.379390 -0.510368
O5    O     O_R   0.663260 0.919400 0.523940 -0.494867
O6    O     O_R   0.336740 0.080600 0.476060 -0.494415
O7    O     O_R   0.618720 0.060610 0.481950 -0.493795
O8    O     O_R   0.381280 0.939390 0.518050 -0.494869

loop_
_geom_bond_atom_site_label_1
_geom_bond_atom_site_label_2
_ccdc_geom_bond_type
C33   H3    S    
C11   C18   A    
C40   C41   S    
C23   C45   A    
C40   H19   S    
C18   C21   A    
C33   C45   A    
C41   C42   S    
Cu2   O2    S    
C19   C20   A    
C35   C47   A    
C46   H24   S    
C10   N2    A    
C16   O5    A    
C12   O2    A    
C28   C29   S    
C35   C37   A    
C39   H32   S    
C11   C14   A    
C43   H27   S    
C1    C31   S    
C33   C36   A    
Cu2   O7    S    
C18   C19   A    
C32   C39   A    
C6    C15   A    
C7    N1    A    
C34   C49   A    
Cu2   O6    S    
Cu1   O8    S    
C1    O3    A    
C12   C32   S    
C27   C30   S    
C42   H16   S    
C3    C50   A    
C44   C46   S    
C16   C26   S    
C13   C19   A    
C38   H33   S    
C9    H10   S    
C37   H34   S    
C22   H7    S    
C5    C7    A    
C6    C8    A    
C2    C48   A    
C43   H28   S    
C3    C45   A    
C34   C39   A    
C20   H23   S    
C8    N2    A    
C2    C4    A    
C43   C44   S    
Cu1   O4    S    
C7    H13   S    
C24   H8    S    
C3    H30   S    
C17   O8    A    
C32   C37   A    
C9    C11   A    
C5    C14   A    
Cu1   O5    S    
C15   C24   A    
C21   H29   S    
C6    C43   S    
C13   C15   A    
C42   H15   S    
C21   C24   A    
C10   H9    S    
C46   H22   S    
C41   H17   S    
C25   C30   T    
C48   C49   A    
C16   O7    A    
C1    O1    A    
C23   C48   A    
C40   H20   S    
C35   H4    S    
C50   H5    S    
C12   O4    A    
Cu2   N1    S    
C20   C22   A    
C10   C13   A    
Cu1   N2    S    
C28   H1    S    
C2    H6    S    
C17   O6    A    
C23   C38   A    
C44   H25   S    
C31   C38   A    
C17   C25   S    
C14   C22   A    
C44   H26   S    
Cu1   Cu2   S    
Cu1   O1    S    
C4    H31   S    
C36   H2    S    
C27   H12   S    
C8    H11   S    
C26   C29   T    
C49   C50   A    
C5    C40   S    
C27   C28   D    
C42   H14   S    
C31   C36   A    
Cu2   O3    S    
C34   C47   A    
C46   H21   S    
C9    N1    A    
C41   H18   S    
C4    C47   A    
