data_mof_unit_40767.cif
_audit_creation_date              2012-12-10T16:57:06-0500
_audit_creation_method            fapswitch 2.2
_symmetry_space_group_name_H-M    P1
_symmetry_Int_Tables_number       1
_space_group_crystal_system       triclinic
_cell_length_a                    7.756577
_cell_length_b                    8.646569
_cell_length_c                    16.496908
_cell_angle_alpha                 92.112822
_cell_angle_beta                  79.694056
_cell_angle_gamma                 93.581537
_cell_volume                      1086.06269136

loop_
_atom_site_label
_atom_site_type_symbol
_atom_type_description
_atom_site_fract_x
_atom_site_fract_y
_atom_site_fract_z
_atom_type_partial_charge
C1    C     C_R   0.545597 0.794310 0.497591 0.930616
C2    C     C_R   0.454444 0.205662 0.502261 0.935022
C3    C     C_2   0.565176 0.956500 0.507369 -0.102687
C4    C     C_2   0.435046 0.043432 0.492289 -0.104782
C5    C     C_R   0.475959 0.507100 0.655571 0.875144
C6    C     C_R   0.525684 0.504889 0.344978 0.882501
C7    C     C_R   0.464236 0.544775 0.744032 -0.096906
C8    C     C_R   0.553180 0.560233 0.260839 -0.053794
C9    C     C_R   0.616799 0.541386 0.777746 -0.266921
C10   C     C_R   0.444165 0.673658 0.243926 -0.260045
C11   C     C_R   0.619395 0.595513 0.857264 -0.189149
C12   C     C_R   0.476794 0.744823 0.168708 -0.227590
C13   C     C_R   0.471544 0.660592 0.904424 0.141876
C14   C     C_R   0.616727 0.701465 0.108063 0.175915
C15   C     C_R   0.316067 0.668322 0.871433 0.090820
C16   C     C_R   0.733073 0.593534 0.124874 0.082079
C17   C     C_R   0.309450 0.602259 0.792306 0.095279
C18   C     C_R   0.701029 0.521695 0.201982 0.045474
C19   C     C_2   0.470580 0.693438 0.992216 -0.246582
C20   C     C_2   0.615232 0.738369 0.022540 -0.210053
H1    H     H_    0.735429 0.496066 0.742578 0.172945
H2    H     H_    0.334238 0.709426 0.289504 0.179721
H3    H     H_    0.386927 0.828040 0.155894 0.150372
H4    H     H_    0.737070 0.581999 0.882419 0.156817
H5    H     H_    0.023519 0.379442 0.439259 0.190712
H6    H     H_    0.976465 0.620491 0.560787 0.191439
N1    N     N_2   0.953500 0.457650 0.478520 -0.168251
N2    N     N_2   0.046500 0.542350 0.521480 -0.167925
O1    O     O_R   0.388470 0.738640 0.505270 -0.587411
O2    O     O_R   0.611530 0.261360 0.494730 -0.584622
O3    O     O_R   0.679650 0.711510 0.491500 -0.641886
O4    O     O_R   0.320350 0.288490 0.508500 -0.640020
O5    O     O_R   0.337210 0.515200 0.623500 -0.593913
O6    O     O_R   0.662790 0.484800 0.376500 -0.588751
O7    O     O_R   0.628380 0.488060 0.609730 -0.624719
O8    O     O_R   0.371620 0.511940 0.390270 -0.633697
Zn1   Zn    Zn3+2 0.305580 0.518120 0.509190 0.945288
Zn2   Zn    Zn3+2 0.694420 0.481880 0.490810 0.950481
N3    N     N_3   0.814212 0.407473 0.220137 -0.452185
H7    H     H_    0.814504 0.315992 0.176925 0.173811
H8    H     H_    0.941581 0.457892 0.215109 0.186987
N4    N     N_3   0.147390 0.592216 0.760468 -0.436247
H9    H     H_    0.105471 0.475006 0.758836 0.183370
H10   H     H_    0.046420 0.647830 0.798427 0.187367
H11   H     H_    0.738232 0.769097 0.982101 0.172871
H12   H     H_    0.352218 0.655350 0.034243 0.160234
N5    N     N_3   0.165224 0.743674 0.916057 -0.481080
H13   H     H_    0.186844 0.793298 0.972138 0.181934
H14   H     H_    0.145625 0.838024 0.881537 0.176750
N6    N     N_3   0.876611 0.551760 0.061800 -0.474688
H15   H     H_    0.862167 0.433264 0.047978 0.184168
H16   H     H_    0.993748 0.573918 0.084215 0.177724
N7    N     N_3   0.712981 0.019680 0.542369 -0.432953
H17   H     H_    0.711126 0.966619 0.598507 0.172477
H18   H     H_    0.828207 0.992113 0.502470 0.192330
N8    N     N_3   0.287513 0.980192 0.457100 -0.437120
H19   H     H_    0.289813 0.033038 0.400867 0.168136
H20   H     H_    0.172090 0.007852 0.496818 0.193319

loop_
_geom_bond_atom_site_label_1
_geom_bond_atom_site_label_2
_ccdc_geom_bond_type
C1    C3    S    
C2    C4    S    
C18   N3    S    
C15   C17   A    
C14   C16   A    
C14   C20   S    
N5    H14   S    
C11   C13   A    
H6    N2    S    
C20   H11   S    
O3    Zn2   S    
C15   N5    S    
C2    O2    A    
C19   C20   D    
C1    O1    A    
N6    H15   S    
C12   C14   A    
C19   H12   S    
N3    H8    S    
O6    Zn2   S    
N7    H17   S    
C10   H2    S    
C9    C11   A    
C12   H3    S    
C9    H1    S    
N4    H10   S    
N2    Zn1   S    
C5    O7    A    
C2    O4    A    
O8    Zn1   S    
C6    O8    A    
C10   C12   A    
N7    H18   S    
C13   C15   A    
C16   N6    S    
O5    Zn1   S    
H5    N1    S    
N4    H9    S    
C13   C19   S    
N1    Zn2   S    
C3    C4    D    
N3    H7    S    
N5    H13   S    
C7    C9    A    
C11   H4    S    
C1    O3    A    
O7    Zn2   S    
N8    H19   S    
O2    Zn2   S    
C16   C18   A    
O1    Zn1   S    
N6    H16   S    
C5    C7    S    
C17   N4    S    
C4    N8    S    
C6    C8    S    
C3    N7    S    
C7    C17   A    
O4    Zn1   S    
C8    C10   A    
C8    C18   A    
C6    O6    A    
N8    H20   S    
N1    N2    D    
C5    O5    A    
