data_mof_unit_30932.cif
_audit_creation_date              2012-12-10T16:32:39-0500
_audit_creation_method            fapswitch 2.2
_symmetry_space_group_name_H-M    P1
_symmetry_Int_Tables_number       1
_space_group_crystal_system       triclinic
_cell_length_a                    16.896599
_cell_length_b                    16.908987
_cell_length_c                    16.902567
_cell_angle_alpha                 65.494964
_cell_angle_beta                  65.527716
_cell_angle_gamma                 65.513057
_cell_volume                      3823.85315039

loop_
_atom_site_label
_atom_site_type_symbol
_atom_type_description
_atom_site_fract_x
_atom_site_fract_y
_atom_site_fract_z
_atom_type_partial_charge
C1    C     C_R   0.589232 0.035898 0.590098 -0.017203
C2    C     C_R   0.821093 0.563565 0.035126 0.970615
C3    C     C_R   0.436760 0.964174 0.178908 0.973690
C4    C     C_R   0.563240 0.035825 0.821092 0.973689
C5    C     C_R   0.563265 0.821099 0.035796 0.973080
C6    C     C_R   0.436735 0.178901 0.964204 0.973080
C7    C     C_R   0.035106 0.563586 0.821099 0.970037
C8    C     C_R   0.964894 0.436414 0.178901 0.970036
C9    C     C_R   0.821084 0.035124 0.563565 0.971422
C10   C     C_R   0.178916 0.964876 0.436435 0.971422
C11   C     C_R   0.543171 0.017623 0.544135 -0.297551
C12   C     C_R   0.410768 0.964102 0.409902 -0.017203
C13   C     C_R   0.456829 0.982377 0.455864 -0.297553
C14   C     C_R   0.017579 0.544153 0.543200 -0.283813
C15   C     C_R   0.982421 0.455847 0.456800 -0.283815
C16   C     C_R   0.543132 0.544184 0.017620 -0.298052
C17   C     C_R   0.456868 0.455816 0.982381 -0.298051
C18   C     C_R   0.525761 0.079844 0.462447 0.598340
C19   C     C_R   0.474239 0.920156 0.537553 0.598340
C20   C     C_R   0.079791 0.462451 0.525942 0.586752
C21   C     C_R   0.920209 0.537549 0.474058 0.586754
C22   C     C_R   0.517032 0.581317 0.937545 0.578778
C23   C     C_R   0.035818 0.590144 0.589282 -0.015117
C24   C     C_R   0.482968 0.418682 0.062455 0.578777
C25   C     C_R   0.482716 0.062524 0.418777 0.589350
C26   C     C_R   0.517284 0.937475 0.581223 0.589349
C27   C     C_R   0.474031 0.537604 0.920233 0.592294
C28   C     C_R   0.525969 0.462395 0.079768 0.592296
C29   C     C_R   0.062518 0.418772 0.482878 0.570446
C30   C     C_R   0.937482 0.581228 0.517122 0.570445
C31   C     C_R   0.547435 0.041021 0.679021 0.614074
C32   C     C_R   0.452565 0.958979 0.320979 0.614074
C33   C     C_R   0.040921 0.679081 0.547494 0.606135
C34   C     C_R   0.964182 0.409856 0.410718 -0.015116
C35   C     C_R   0.959079 0.320919 0.452506 0.606135
C36   C     C_R   0.678791 0.548672 0.039223 0.604460
C37   C     C_R   0.321208 0.451327 0.960778 0.604460
C38   C     C_R   0.321196 0.960788 0.451366 0.612116
C39   C     C_R   0.678804 0.039212 0.548634 0.612115
C40   C     C_R   0.452551 0.320914 0.959058 0.610924
C41   C     C_R   0.547450 0.679086 0.040942 0.610923
C42   C     C_R   0.960840 0.451327 0.321147 0.602074
C43   C     C_R   0.039160 0.548673 0.678853 0.602074
C44   C     C_R   0.593867 0.054935 0.723273 -0.323616
C45   C     C_R   0.589217 0.590158 0.035865 -0.016265
C46   C     C_R   0.406133 0.945065 0.276727 -0.323617
C47   C     C_R   0.054879 0.723306 0.593906 -0.324405
C48   C     C_R   0.945121 0.276694 0.406094 -0.324405
C49   C     C_R   0.723234 0.594382 0.053967 -0.317355
C50   C     C_R   0.276766 0.405617 0.946033 -0.317356
C51   C     C_R   0.276770 0.946043 0.405627 -0.319123
C52   C     C_R   0.723230 0.053957 0.594373 -0.319123
C53   C     C_R   0.406102 0.276699 0.945121 -0.325069
C54   C     C_R   0.593898 0.723301 0.054878 -0.325070
C55   C     C_R   0.946070 0.405598 0.276744 -0.318643
C56   C     C_R   0.410783 0.409841 0.964136 -0.016265
C57   C     C_R   0.053930 0.594402 0.723256 -0.318643
C58   C     C_R   0.675114 0.075763 0.675141 0.231669
C59   C     C_R   0.324886 0.924237 0.324859 0.231669
C60   C     C_R   0.075766 0.675153 0.675122 0.231420
C61   C     C_R   0.924234 0.324847 0.324878 0.231420
C62   C     C_R   0.675133 0.675141 0.075758 0.231476
C63   C     C_R   0.324867 0.324859 0.924242 0.231476
C64   C     C_R   0.964208 0.178891 0.436732 0.972753
C65   C     C_R   0.035792 0.821109 0.563268 0.972753
C66   C     C_R   0.178907 0.436435 0.964874 0.970615
Cl1   Cl    Cl    0.714691 0.131160 0.714321 -0.439615
Cl2   Cl    Cl    0.285309 0.868840 0.285679 -0.439615
Cl3   Cl    Cl    0.131274 0.714287 0.714644 -0.411932
Cl4   Cl    Cl    0.868726 0.285713 0.285356 -0.411931
Cl5   Cl    Cl    0.714711 0.714273 0.131207 -0.424755
Cl6   Cl    Cl    0.285289 0.285727 0.868793 -0.424755
F1    F     F_    0.535355 0.875143 0.658860 -0.501576
F2    F     F_    0.534870 0.659036 0.875255 -0.504890
F3    F     F_    0.841955 0.574163 0.450484 -0.515261
F4    F     F_    0.158045 0.425837 0.549515 -0.515261
F5    F     F_    0.462430 0.031293 0.721987 -0.547339
F6    F     F_    0.537570 0.968707 0.278013 -0.547339
F7    F     F_    0.031169 0.722079 0.462502 -0.554923
F8    F     F_    0.968831 0.277921 0.537497 -0.554923
F9    F     F_    0.722956 0.466043 0.024012 -0.559642
F10   F     F_    0.277043 0.533955 0.975992 -0.559644
F11   F     F_    0.277023 0.976039 0.533997 -0.552562
F12   F     F_    0.464645 0.124857 0.341140 -0.501577
F13   F     F_    0.722977 0.023961 0.466003 -0.552562
F14   F     F_    0.537557 0.277917 0.968815 -0.551001
F15   F     F_    0.462444 0.722083 0.031183 -0.551000
F16   F     F_    0.976082 0.533963 0.276952 -0.561914
F17   F     F_    0.023918 0.466037 0.723048 -0.561914
F18   F     F_    0.875132 0.658861 0.535039 -0.529308
F19   F     F_    0.124868 0.341139 0.464961 -0.529308
F20   F     F_    0.549584 0.425725 0.157991 -0.500004
F21   F     F_    0.450416 0.574275 0.842010 -0.500005
F22   F     F_    0.450822 0.841869 0.574158 -0.497773
F23   F     F_    0.549178 0.158131 0.425841 -0.497772
F24   F     F_    0.465130 0.340963 0.124745 -0.504890
O1    O     O_R   0.982940 0.138950 0.510160 -0.549104
O2    O     O_R   0.982940 0.510160 0.138950 -0.552356
O3    O     O_R   0.861050 0.017060 0.489840 -0.548958
O4    O     O_R   0.138950 0.982940 0.510160 -0.548958
O5    O     O_R   0.867700 0.025880 0.612340 -0.595146
O6    O     O_R   0.132300 0.974120 0.387660 -0.595146
O7    O     O_R   0.025880 0.612340 0.867700 -0.593918
O8    O     O_R   0.974120 0.387660 0.132300 -0.593918
O9    O     O_R   0.612340 0.867700 0.025880 -0.596398
O10   O     O_R   0.387660 0.132300 0.974120 -0.596398
O11   O     O_R   0.387660 0.974120 0.132300 -0.596297
O12   O     O_R   0.017060 0.861050 0.489840 -0.549104
O13   O     O_R   0.612340 0.025880 0.867700 -0.596297
O14   O     O_R   0.132300 0.387660 0.974120 -0.593780
O15   O     O_R   0.867700 0.612340 0.025880 -0.593780
O16   O     O_R   0.974120 0.132300 0.387660 -0.595258
O17   O     O_R   0.025880 0.867700 0.612340 -0.595258
O18   O     O_R   0.138950 0.510160 0.982940 -0.552037
O19   O     O_R   0.861050 0.489840 0.017060 -0.552037
O20   O     O_R   0.510160 0.982940 0.138950 -0.546106
O21   O     O_R   0.489840 0.017060 0.861050 -0.546106
O22   O     O_R   0.489840 0.861050 0.017060 -0.546457
O23   O     O_R   0.510160 0.138950 0.982940 -0.546457
O24   O     O_R   0.017060 0.489840 0.861050 -0.552356
Zn1   Zn    Zn3+2 0.004880 0.004880 0.583590 1.227863
Zn2   Zn    Zn3+2 0.995120 0.995120 0.416410 1.227863
Zn3   Zn    Zn3+2 0.004880 0.583590 0.004880 1.222806
Zn4   Zn    Zn3+2 0.995120 0.416410 0.995120 1.222806
Zn5   Zn    Zn3+2 0.583590 0.004880 0.004880 1.231953
Zn6   Zn    Zn3+2 0.416410 0.995120 0.995120 1.231952

loop_
_geom_bond_atom_site_label_1
_geom_bond_atom_site_label_2
_ccdc_geom_bond_type
C61   Cl4   S    
C16   C28   A    
C4    O13   A    
C11   C18   A    
C50   C63   A    
C38   F11   S    
C40   C56   A    
C34   C42   A    
C30   F18   S    
O7    Zn3   S    
C5    O9    A    
C18   C25   A    
C43   F17   S    
C34   C35   A    
C3    O20   A    
C24   F24   S    
C59   Cl2   S    
C48   C64   S    
C10   C51   S    
C15   C34   S    
C35   F8    S    
C1    C31   A    
C26   F1    S    
C23   C43   A    
C20   F4    S    
O4    Zn1   S    
C40   F14   S    
C19   C26   A    
C8    O2    A    
O1    Zn1   S    
O14   Zn4   S    
C47   C60   A    
C37   C56   A    
C44   C58   A    
C23   C33   A    
C1    C11   S    
C25   F12   S    
C15   C29   A    
C49   C62   A    
O21   Zn6   S    
C65   O12   A    
C39   C52   A    
C9    O3    A    
C7    O7    A    
C12   C32   A    
C18   F23   S    
C13   C25   A    
C9    C52   S    
C32   C46   A    
C14   C30   A    
C35   C48   A    
C8    C55   S    
C31   F5    S    
C20   C29   A    
O2    Zn3   S    
C41   F15   S    
C2    O15   A    
C17   C24   A    
C31   C44   A    
C13   C19   A    
O15   Zn3   S    
C17   C27   A    
C14   C20   A    
C5    C54   S    
C10   O6    A    
C1    C39   A    
C33   F7    S    
C57   C60   A    
C38   C51   A    
C4    C44   S    
C11   C26   A    
C3    O11   A    
O5    Zn1   S    
C14   C23   S    
O16   Zn2   S    
C2    C49   S    
C42   C55   A    
C39   F13   S    
C8    O8    A    
C2    O19   A    
C36   F9    S    
C6    O10   A    
O17   Zn1   S    
C36   C45   A    
C28   F20   S    
C66   O14   A    
C10   O4    A    
C50   C66   S    
C17   C56   S    
C19   F22   S    
C52   C58   A    
O3    Zn2   S    
O18   Zn3   S    
O23   Zn5   S    
O13   Zn5   S    
C64   O1    A    
O20   Zn5   S    
C33   C47   A    
C37   F10   S    
C27   F21   S    
C51   C59   A    
C22   F2    S    
C6    C53   S    
C6    O23   A    
C29   F19   S    
O10   Zn6   S    
C16   C22   A    
O19   Zn4   S    
C66   O18   A    
C65   O17   A    
C7    O24   A    
C24   C28   A    
O11   Zn6   S    
O12   Zn2   S    
C16   C45   S    
O8    Zn4   S    
C54   C62   A    
C21   C30   A    
C21   F3    S    
C3    C46   S    
O9    Zn5   S    
C5    O22   A    
C22   C27   A    
C37   C50   A    
C53   C63   A    
C48   C61   A    
C60   Cl3   S    
C55   C61   A    
C63   Cl6   S    
C7    C57   S    
C62   Cl5   S    
C12   C38   A    
C4    O21   A    
C41   C54   A    
C64   O16   A    
C43   C57   A    
C32   F6    S    
C58   Cl1   S    
C15   C21   A    
C42   F16   S    
C12   C13   S    
C46   C59   A    
C9    O5    A    
C40   C53   A    
C41   C45   A    
O22   Zn6   S    
O6    Zn2   S    
C47   C65   S    
C36   C49   A    
O24   Zn4   S    
