data_mof_unit_24300.cif
_audit_creation_date              2012-12-10T16:32:39-0500
_audit_creation_method            fapswitch 2.2
_symmetry_space_group_name_H-M    P1
_symmetry_Int_Tables_number       1
_space_group_crystal_system       triclinic
_cell_length_a                    16.922841
_cell_length_b                    16.874876
_cell_length_c                    16.773045
_cell_angle_alpha                 65.187139
_cell_angle_beta                  65.247005
_cell_angle_gamma                 65.281725
_cell_volume                      3773.60020108

loop_
_atom_site_label
_atom_site_type_symbol
_atom_type_description
_atom_site_fract_x
_atom_site_fract_y
_atom_site_fract_z
_atom_type_partial_charge
C1    C     C_R   0.580297 0.052956 0.587112 -0.014436
C2    C     C_R   0.822418 0.568627 0.024551 0.937213
C3    C     C_R   0.439585 0.958713 0.179338 0.912257
C4    C     C_R   0.559951 0.042704 0.820812 0.876897
C5    C     C_R   0.560685 0.820719 0.040828 0.918308
C6    C     C_R   0.437421 0.179501 0.962419 0.871781
C7    C     C_R   0.042681 0.559685 0.820701 0.934747
C8    C     C_R   0.955850 0.440888 0.179057 0.880135
C9    C     C_R   0.820623 0.032517 0.565219 0.924424
C10   C     C_R   0.178780 0.970808 0.433551 0.892488
C11   C     C_R   0.534073 0.033951 0.541687 0.180856
C12   C     C_R   0.413219 0.972140 0.403385 -0.058513
C13   C     C_R   0.459247 0.992142 0.448190 0.089203
C14   C     C_R   0.010434 0.542100 0.549725 0.038668
C15   C     C_R   0.977129 0.464358 0.452155 0.238193
C16   C     C_R   0.544516 0.556867 0.997501 0.059313
C17   C     C_R   0.460726 0.465758 0.963563 0.143689
C18   C     C_R   0.527213 0.945689 0.568698 -0.124074
C19   C     C_R   0.466936 0.080178 0.420482 -0.101129
C20   C     C_R   0.078001 0.518528 0.472135 -0.172721
C21   C     C_R   0.909323 0.488397 0.529509 -0.076006
C22   C     C_R   0.497125 0.497567 0.070686 -0.175421
C23   C     C_R   0.026847 0.587569 0.597941 -0.094028
C24   C     C_R   0.507325 0.525702 0.890210 -0.166371
C25   C     C_R   0.489359 0.925090 0.522642 -0.186614
C26   C     C_R   0.503652 0.101162 0.467375 -0.055403
C27   C     C_R   0.455086 0.452767 0.053885 -0.105035
C28   C     C_R   0.548730 0.571304 0.907122 -0.185584
C29   C     C_R   0.061576 0.479602 0.423743 -0.090274
C30   C     C_R   0.925872 0.527131 0.578045 -0.170893
C31   C     C_R   0.534548 0.071274 0.672477 -0.089573
C32   C     C_R   0.461922 0.942825 0.324564 -0.082762
C33   C     C_R   0.003674 0.683227 0.570957 -0.055525
C34   C     C_R   0.962004 0.416995 0.404922 -0.009155
C35   C     C_R   0.986502 0.320615 0.433379 -0.130971
C36   C     C_R   0.686085 0.574688 0.995212 -0.061115
C37   C     C_R   0.325914 0.460528 0.940975 -0.093307
C38   C     C_R   0.319027 0.984179 0.439105 -0.077551
C39   C     C_R   0.674660 0.040688 0.550147 -0.090718
C40   C     C_R   0.458416 0.326823 0.943572 -0.057503
C41   C     C_R   0.539930 0.676338 0.053608 -0.048662
C42   C     C_R   0.930419 0.465502 0.326642 -0.086117
C43   C     C_R   0.060690 0.537218 0.674166 -0.041063
C44   C     C_R   0.586561 0.072441 0.720192 -0.183083
C45   C     C_R   0.590559 0.602665 0.016348 -0.104718
C46   C     C_R   0.412891 0.932780 0.279604 -0.077008
C47   C     C_R   0.036120 0.724946 0.604958 -0.102366
C48   C     C_R   0.959324 0.276584 0.396666 -0.150274
C49   C     C_R   0.726467 0.606442 0.031484 -0.095987
C50   C     C_R   0.279038 0.410214 0.935493 -0.088190
C51   C     C_R   0.276514 0.956720 0.400740 -0.152272
C52   C     C_R   0.721494 0.053403 0.595994 -0.135675
C53   C     C_R   0.409161 0.279529 0.936992 -0.173918
C54   C     C_R   0.587832 0.720955 0.065412 -0.076872
C55   C     C_R   0.926511 0.414510 0.279707 -0.187456
C56   C     C_R   0.415227 0.417478 0.947316 -0.065919
C57   C     C_R   0.069978 0.585936 0.720198 -0.080245
C58   C     C_R   0.672493 0.083426 0.673578 0.122950
C59   C     C_R   0.327875 0.920379 0.327416 0.056635
C60   C     C_R   0.079412 0.672246 0.673269 0.031394
C61   C     C_R   0.918476 0.327645 0.326318 0.120774
C62   C     C_R   0.673432 0.673946 0.075525 0.034878
C63   C     C_R   0.326748 0.326986 0.917382 0.067096
C64   C     C_2   0.433119 0.094742 0.710262 0.464950
C65   C     C_2   0.563016 0.921126 0.291718 0.453302
C66   C     C_2   0.942628 0.737037 0.511351 0.444395
C67   C     C_R   0.972930 0.178596 0.432069 0.881236
C68   C     C_2   0.044301 0.266429 0.496663 0.461807
C69   C     C_2   0.741203 0.513620 0.935452 0.435219
C70   C     C_2   0.286056 0.559469 0.934180 0.450846
C71   C     C_2   0.268159 0.022106 0.518409 0.471233
C72   C     C_2   0.721914 0.015879 0.462963 0.437896
C73   C     C_2   0.557292 0.285507 0.936296 0.464511
C74   C     C_2   0.438768 0.707010 0.077676 0.440223
C75   C     C_2   0.900305 0.567473 0.292754 0.442103
C76   C     C_2   0.084037 0.435773 0.705313 0.473696
C77   C     C_3   0.709170 0.129107 0.705878 -0.800154
C78   C     C_R   0.025985 0.821849 0.568295 0.956265
C79   C     C_3   0.294339 0.867998 0.299855 -0.743726
C80   C     C_3   0.133134 0.706094 0.698761 -0.758152
C81   C     C_3   0.868277 0.291684 0.298651 -0.769575
C82   C     C_3   0.705350 0.696922 0.133042 -0.758562
C83   C     C_3   0.293308 0.292589 0.870794 -0.736131
C84   C     C_R   0.179366 0.437856 0.961563 0.902142
H1    H     H_    0.509503 0.169219 0.445196 0.143429
H2    H     H_    0.493014 0.485895 0.140744 0.146744
H3    H     H_    0.844182 0.476179 0.552662 0.128175
H4    H     H_    0.143240 0.530510 0.449117 0.146844
H5    H     H_    0.397756 0.133629 0.759190 0.066779
H6    H     H_    0.596739 0.953878 0.305951 0.079791
H7    H     H_    0.952979 0.717260 0.453116 0.097177
H8    H     H_    0.100066 0.206631 0.483225 0.114765
H9    H     H_    0.719892 0.457067 0.945009 0.096072
H10   H     H_    0.294214 0.585804 0.978320 0.055536
H11   H     H_    0.235348 0.981175 0.584512 0.090536
H12   H     H_    0.483131 0.857141 0.545117 0.144784
H13   H     H_    0.769384 0.948718 0.462568 0.143972
H14   H     H_    0.601611 0.246286 0.888174 0.058019
H15   H     H_    0.404730 0.694013 0.044139 0.069280
H16   H     H_    0.860696 0.601572 0.244488 0.076228
H17   H     H_    0.054608 0.401625 0.687579 0.108484
H18   H     H_    0.652779 0.172699 0.747984 0.207754
H19   H     H_    0.755007 0.077288 0.747702 0.267077
H20   H     H_    0.746279 0.175269 0.645996 0.228839
H21   H     H_    0.352466 0.823253 0.260275 0.261001
H22   H     H_    0.258553 0.822281 0.361902 0.220407
H23   H     H_    0.872886 0.545787 0.637379 0.168180
H24   H     H_    0.248260 0.915574 0.256952 0.264272
H25   H     H_    0.177575 0.648181 0.739048 0.256234
H26   H     H_    0.178727 0.740936 0.635695 0.219141
H27   H     H_    0.086678 0.753310 0.740726 0.268276
H28   H     H_    0.824356 0.348469 0.257030 0.216302
H29   H     H_    0.917062 0.244565 0.257187 0.263453
H30   H     H_    0.822458 0.256159 0.360764 0.233229
H31   H     H_    0.646821 0.735943 0.178147 0.262742
H32   H     H_    0.738641 0.633213 0.179195 0.202043
H33   H     H_    0.752968 0.738632 0.088500 0.269484
H34   H     H_    0.114752 0.460587 0.364676 0.124461
H35   H     H_    0.255599 0.351118 0.824629 0.266384
H36   H     H_    0.351624 0.252979 0.826126 0.200962
H37   H     H_    0.248729 0.249405 0.922304 0.266285
H38   H     H_    0.584627 0.617284 0.849917 0.152586
H39   H     H_    0.418650 0.407296 0.111200 0.138317
H40   H     H_    0.443172 0.132742 0.363537 0.145744
H41   H     H_    0.551450 0.892911 0.625283 0.141941
H42   H     H_    0.511447 0.537051 0.820247 0.141834
O1    O     O_R   0.982940 0.138950 0.510160 -0.636822
O2    O     O_R   0.982940 0.510160 0.138950 -0.639105
O3    O     O_R   0.861050 0.017060 0.489840 -0.618343
O4    O     O_R   0.138950 0.982940 0.510160 -0.663287
O5    O     O_R   0.867700 0.025880 0.612340 -0.616506
O6    O     O_R   0.132300 0.974120 0.387660 -0.616758
O7    O     O_R   0.025880 0.612340 0.867700 -0.614301
O8    O     O_R   0.974120 0.387660 0.132300 -0.608579
O9    O     O_R   0.612340 0.867700 0.025880 -0.605762
O10   O     O_R   0.387660 0.132300 0.974120 -0.616781
O11   O     O_R   0.387660 0.974120 0.132300 -0.612980
O12   O     O_R   0.017060 0.861050 0.489840 -0.611611
O13   O     O_R   0.612340 0.025880 0.867700 -0.609532
O14   O     O_R   0.132300 0.387660 0.974120 -0.617073
O15   O     O_R   0.867700 0.612340 0.025880 -0.638826
O16   O     O_R   0.974120 0.132300 0.387660 -0.615958
O17   O     O_R   0.025880 0.867700 0.612340 -0.628062
O18   O     O_2   0.387794 0.071764 0.687961 -0.543712
O19   O     O_2   0.609962 0.863333 0.251615 -0.580998
O20   O     O_2   0.876990 0.800907 0.530389 -0.601855
O21   O     O_2   0.029232 0.286364 0.564778 -0.557640
O22   O     O_2   0.808324 0.528976 0.872046 -0.568689
O23   O     O_R   0.138950 0.510160 0.982940 -0.597408
O24   O     O_2   0.248079 0.613004 0.875666 -0.577685
O25   O     O_2   0.263959 0.098972 0.510368 -0.561427
O26   O     O_2   0.708217 0.071219 0.391004 -0.579914
O27   O     O_2   0.589821 0.293180 0.984397 -0.564708
O28   O     O_2   0.392227 0.744513 0.137729 -0.591251
O29   O     O_2   0.918530 0.614614 0.317480 -0.578489
O30   O     O_2   0.139155 0.388912 0.748447 -0.593426
O31   O     O_R   0.861050 0.489840 0.017060 -0.612636
O32   O     O_R   0.510160 0.982940 0.138950 -0.594538
O33   O     O_R   0.489840 0.017060 0.861050 -0.640462
O34   O     O_R   0.489840 0.861050 0.017060 -0.598030
O35   O     O_R   0.510160 0.138950 0.982940 -0.642328
O36   O     O_R   0.017060 0.489840 0.861050 -0.573271
Zn1   Zn    Zn3+2 0.004880 0.004880 0.583590 0.974172
Zn2   Zn    Zn3+2 0.995120 0.995120 0.416410 0.997441
Zn3   Zn    Zn3+2 0.004880 0.583590 0.004880 1.001452
Zn4   Zn    Zn3+2 0.995120 0.416410 0.995120 1.025487
Zn5   Zn    Zn3+2 0.583590 0.004880 0.004880 1.007080
Zn6   Zn    Zn3+2 0.416410 0.995120 0.995120 0.998638

loop_
_geom_bond_atom_site_label_1
_geom_bond_atom_site_label_2
_ccdc_geom_bond_type
O4    Zn1   S    
C16   C28   A    
C21   H3    S    
C11   C18   A    
C46   C59   A    
C70   O24   D    
C2    O15   A    
O6    Zn2   S    
C50   C84   S    
C40   C73   S    
C18   C25   A    
C79   H21   S    
C42   C75   S    
C70   H10   S    
C82   H31   S    
C7    O7    A    
O7    Zn3   S    
C2    O31   A    
C18   H41   S    
O16   Zn2   S    
C30   H23   S    
C28   H38   S    
C4    O33   A    
C71   H11   S    
C35   C48   A    
C55   C61   A    
C1    C31   A    
C23   C43   A    
O33   Zn6   S    
C74   O28   D    
C34   C35   A    
C83   H35   S    
C19   C26   A    
C6    O10   A    
C58   C77   S    
C41   C74   S    
O36   Zn4   S    
C37   C56   A    
C8    O2    A    
C71   O25   D    
C44   C58   A    
C23   C33   A    
C34   C42   A    
C81   H30   S    
O32   Zn5   S    
C3    O32   A    
O1    Zn1   S    
C39   C72   S    
C6    O35   A    
C3    O11   A    
C15   C34   S    
C72   H13   S    
C84   O23   A    
C22   H2    S    
C39   C52   A    
C62   C82   S    
C37   C70   S    
C12   C32   A    
C24   H42   S    
C50   C63   A    
C83   H36   S    
C13   C25   A    
C77   H18   S    
C65   H6    S    
C9    C52   S    
C64   H5    S    
C14   C30   A    
O9    Zn5   S    
C10   C51   S    
C78   O12   A    
C8    C55   S    
O17   Zn1   S    
C33   C66   S    
C15   C29   A    
C20   C29   A    
C9    O5    A    
O14   Zn4   S    
C73   H14   S    
C7    O36   A    
C19   H40   S    
C17   C24   A    
C72   O26   D    
C31   C44   A    
C13   C19   A    
C8    O8    A    
C17   C27   A    
C14   C20   A    
C5    C54   S    
O23   Zn3   S    
C74   H15   S    
C59   C79   S    
C27   H39   S    
C57   C60   A    
C38   C51   A    
C64   O18   D    
C11   C26   A    
C40   C56   A    
C54   C62   A    
C76   O30   D    
C79   H22   S    
C63   C83   S    
C14   C23   S    
C80   H25   S    
C10   O4    A    
C2    C49   S    
C67   O1    A    
C42   C55   A    
C1    C39   A    
C81   H28   S    
O5    Zn1   S    
C5    O34   A    
O8    Zn4   S    
C36   C45   A    
C83   H37   S    
O13   Zn5   S    
C17   C56   S    
C84   O14   A    
O35   Zn5   S    
C68   O21   D    
C52   C58   A    
O10   Zn6   S    
C22   C27   A    
O2    Zn3   S    
C33   C47   A    
C77   H19   S    
C51   C59   A    
C6    C53   S    
C65   O19   D    
C47   C60   A    
C36   C69   S    
C73   O27   D    
C29   H34   S    
C76   H17   S    
C5    O9    A    
C38   C71   S    
C60   C80   S    
C16   C22   A    
C49   C62   A    
C32   C46   A    
C31   C64   S    
C24   C28   A    
O31   Zn4   S    
C66   H7    S    
C9    O3    A    
C4    C44   S    
C21   C30   A    
C3    C46   S    
C69   H9    S    
C47   C78   S    
O15   Zn3   S    
C82   H32   S    
C61   C81   S    
C78   O17   A    
C4    O13   A    
C37   C50   A    
C53   C63   A    
C48   C61   A    
C35   C68   S    
C26   H1    S    
C20   H4    S    
C80   H27   S    
C75   H16   S    
C68   H8    S    
C79   H24   S    
O34   Zn6   S    
C48   C67   S    
C12   C38   A    
C10   O6    A    
C41   C54   A    
C66   O20   D    
C43   C57   A    
C16   C45   S    
C75   O29   D    
C15   C21   A    
C12   C13   S    
O3    Zn2   S    
C25   H12   S    
C80   H26   S    
C40   C53   A    
C81   H29   S    
C69   O22   D    
C41   C45   A    
C43   C76   S    
C77   H20   S    
O12   Zn2   S    
C1    C11   S    
C82   H33   S    
C67   O16   A    
C7    C57   S    
O11   Zn6   S    
C36   C49   A    
C32   C65   S    
