data_mof_unit_24316.cif
_audit_creation_date              2012-10-26T21:01:26-0400
_audit_creation_method            fapswitch 2.2
_symmetry_space_group_name_H-M    P1
_symmetry_Int_Tables_number       1
_space_group_crystal_system       triclinic
_cell_length_a                    15.85198
_cell_length_b                    12.994587
_cell_length_c                    11.780626
_cell_angle_alpha                 98.962236
_cell_angle_beta                  93.60447
_cell_angle_gamma                 92.24583
_cell_volume                      2389.36703824

loop_
_atom_site_label
_atom_site_type_symbol
_atom_type_description
_atom_site_fract_x
_atom_site_fract_y
_atom_site_fract_z
_atom_type_partial_charge
C1    C     C_R   0.498604 0.299445 0.479187 0.554710
C2    C     C_R   0.495012 0.969297 0.444700 0.044295
C3    C     C_R   0.404884 0.417535 0.030411 -0.044562
C4    C     C_R   0.595115 0.582465 0.969589 -0.044562
C5    C     C_R   0.421158 0.419782 0.149692 0.016473
C6    C     C_R   0.578842 0.580218 0.850308 0.016473
C7    C     C_R   0.538203 0.539938 0.155641 0.360207
C8    C     C_R   0.461797 0.460061 0.844359 0.360208
C9    C     C_R   0.534296 0.531262 0.032023 -0.020429
C10   C     C_R   0.465704 0.468738 0.967977 -0.020429
C11   C     C_R   0.339967 0.499589 0.500137 0.560071
C12   C     C_R   0.501396 0.700555 0.520813 0.554709
C13   C     C_R   0.660033 0.500411 0.499863 0.560072
C14   C     C_3   0.972592 0.428546 0.563022 -0.102188
C15   C     C_3   0.027408 0.571454 0.436978 -0.102188
C16   C     C_3   0.022261 0.404153 0.453187 -0.101020
C17   C     C_3   0.977739 0.595847 0.546813 -0.101020
C18   C     C_1   0.250212 0.499229 0.500037 -0.019563
C19   C     C_1   0.749788 0.500771 0.499962 -0.019562
C20   C     C_3   0.034164 0.523410 0.607208 0.028315
C21   C     C_3   0.965836 0.476590 0.392792 0.028315
C22   C     C_3   0.082819 0.499315 0.498641 0.038819
C23   C     C_R   0.486353 0.016834 0.346347 -0.135607
C24   C     C_3   0.917181 0.500685 0.501359 0.038819
C25   C     C_1   0.174577 0.499041 0.499034 -0.066986
C26   C     C_1   0.825423 0.500959 0.500966 -0.066986
C27   C     C_R   0.502551 0.813846 0.532704 0.005291
C28   C     C_R   0.497449 0.186154 0.467296 0.005291
C29   C     C_3   0.922766 0.449714 0.271396 -0.250348
C30   C     C_3   0.987499 0.430904 0.180171 -0.305544
C31   C     C_3   0.943416 0.397289 0.060372 -0.460375
C32   C     C_3   0.077234 0.550286 0.728604 -0.250348
C33   C     C_3   0.012501 0.569098 0.819829 -0.305544
C34   C     C_R   0.513647 0.983166 0.653653 -0.135607
C35   C     C_3   0.056584 0.602712 0.939628 -0.460374
C36   C     C_3   0.320940 0.365312 0.974505 -0.244094
C37   C     C_3   0.251404 0.345329 0.055345 -0.333219
C38   C     C_3   0.168853 0.304315 0.986481 -0.453392
C39   C     C_3   0.679060 0.634688 0.025495 -0.244094
C40   C     C_3   0.748596 0.654671 0.944654 -0.333219
C41   C     C_3   0.831147 0.695685 0.013518 -0.453392
C42   C     C_R   0.487548 0.124843 0.357561 -0.137837
C43   C     C_R   0.512452 0.875157 0.642439 -0.137837
C44   C     C_R   0.506170 0.138714 0.565837 -0.112565
C45   C     C_R   0.493830 0.861286 0.434163 -0.112565
C46   C     C_R   0.504988 0.030703 0.555300 0.044295
Cl1   Cl    Cl    0.395467 0.364437 0.755152 -0.653018
Cl2   Cl    Cl    0.604533 0.635563 0.244848 -0.653019
Cu1   Cu    Cu3+1 0.506200 0.507730 0.615930 1.005958
Cu2   Cu    Cu3+1 0.493800 0.492270 0.384070 1.005958
H1    H     H_    0.041645 0.326107 0.414022 0.102561
H2    H     H_    0.521346 0.029361 0.738904 0.112060
H3    H     H_    0.619059 0.622975 0.801725 0.134872
H4    H     H_    0.380941 0.377026 0.198275 0.134872
H5    H     H_    0.906564 0.322225 0.056703 0.155059
H6    H     H_    0.900139 0.457478 0.038433 0.152716
H7    H     H_    0.991234 0.386636 0.995273 0.141950
H8    H     H_    0.026925 0.503614 0.180519 0.158670
H9    H     H_    0.029726 0.368845 0.200065 0.160501
H10   H     H_    0.880799 0.378527 0.267568 0.148955
H11   H     H_    0.883113 0.515047 0.254291 0.152415
H12   H     H_    0.958355 0.673893 0.585978 0.102561
H13   H     H_    0.099861 0.542521 0.961567 0.152716
H14   H     H_    0.093437 0.677775 0.943297 0.155059
H15   H     H_    0.008767 0.613367 0.004727 0.141950
H16   H     H_    0.970275 0.631158 0.799934 0.160501
H17   H     H_    0.973073 0.496389 0.819481 0.158670
H18   H     H_    0.116887 0.484953 0.745709 0.152414
H19   H     H_    0.119201 0.621473 0.732431 0.148956
H20   H     H_    0.144980 0.362645 0.934412 0.149643
H21   H     H_    0.178803 0.230658 0.928131 0.164110
H22   H     H_    0.120524 0.288130 0.046386 0.141873
H23   H     H_    0.949067 0.370853 0.615362 0.100671
H24   H     H_    0.270758 0.285194 0.107956 0.153141
H25   H     H_    0.239714 0.418793 0.113170 0.166631
H26   H     H_    0.293358 0.417351 0.917038 0.198926
H27   H     H_    0.333843 0.288356 0.924845 0.203437
H28   H     H_    0.821196 0.769342 0.071869 0.164110
H29   H     H_    0.855020 0.637355 0.065587 0.149643
H30   H     H_    0.879475 0.711870 0.953614 0.141873
H31   H     H_    0.760286 0.581208 0.886829 0.166632
H32   H     H_    0.729241 0.714806 0.892044 0.153141
H33   H     H_    0.666156 0.711645 0.075155 0.203437
H34   H     H_    0.050933 0.629147 0.384638 0.100671
H35   H     H_    0.706642 0.582649 0.082962 0.198926
H36   H     H_    0.485970 0.814457 0.349215 0.159017
H37   H     H_    0.514030 0.185543 0.650784 0.159018
H38   H     H_    0.519417 0.839814 0.719700 0.131644
H39   H     H_    0.480583 0.160186 0.280300 0.131644
H40   H     H_    0.478654 0.970639 0.261095 0.112060
N1    N     N_R   0.515540 0.519350 0.790140 -0.228661
N2    N     N_R   0.484460 0.480650 0.209860 -0.228662
O1    O     O_R   0.504400 0.354460 0.582000 -0.446096
O2    O     O_R   0.495600 0.645540 0.418000 -0.446097
O3    O     O_R   0.493920 0.341410 0.386200 -0.526770
O4    O     O_R   0.506080 0.658590 0.613800 -0.526770
O5    O     O_R   0.384320 0.506520 0.597880 -0.436526
O6    O     O_R   0.615680 0.493480 0.402120 -0.436526
O7    O     O_R   0.373840 0.493460 0.402080 -0.524192
O8    O     O_R   0.626160 0.506540 0.597920 -0.524193

loop_
_geom_bond_atom_site_label_1
_geom_bond_atom_site_label_2
_ccdc_geom_bond_type
C37   H24   S    
C38   H20   S    
C11   C18   S    
C16   C21   S    
C16   H1    S    
C41   H30   S    
C2    C46   A    
Cu2   O7    S    
C29   C30   S    
C23   C42   A    
C43   H38   S    
C36   C37   S    
C24   C26   S    
C36   H27   S    
C30   C31   S    
Cu2   O3    S    
C35   H15   S    
C6    N1    A    
C17   C20   S    
C11   O7    A    
C14   C24   S    
C13   O6    A    
C19   C26   T    
C36   H26   S    
C15   C22   S    
C22   C25   S    
C1    C28   S    
C29   H10   S    
C35   H14   S    
C34   C46   A    
C31   H6    S    
C44   H37   S    
C9    C10   A    
C32   H18   S    
C27   C45   A    
C37   H25   S    
C12   O2    A    
C18   C25   T    
Cu1   N1    S    
C44   C46   A    
C33   H16   S    
C29   H11   S    
C2    C45   A    
C38   H22   S    
Cu2   O6    S    
C17   C24   S    
C13   C19   S    
C12   C27   S    
C14   H23   S    
C40   H32   S    
C5    H4    S    
C4    C6    A    
C39   C40   S    
Cu2   O2    S    
C21   C29   S    
C28   C44   A    
C37   C38   S    
C14   C20   S    
C17   H12   S    
C4    C39   S    
C1    O3    A    
C30   H9    S    
C23   H40   S    
C8    N1    A    
C15   H34   S    
Cu2   N2    S    
C40   C41   S    
C20   C22   S    
C14   C16   S    
C39   H35   S    
C6    H3    S    
C41   H28   S    
C33   H17   S    
C20   C32   S    
C7    C9    A    
C38   H21   S    
C16   C22   S    
C40   H31   S    
C8    C10   A    
C34   C43   A    
C3    C5    A    
C41   H29   S    
C15   C17   S    
C32   H19   S    
C34   H2    S    
C11   O5    A    
C42   H39   S    
C31   H5    S    
C32   C33   S    
C31   H7    S    
C13   O8    A    
C45   H36   S    
C8    Cl1   S    
C39   H33   S    
C3    C10   A    
C7    Cl2   S    
Cu1   O8    S    
C3    C36   S    
C7    N2    A    
C30   H8    S    
C28   C42   A    
C33   C35   S    
Cu1   O4    S    
C5    N2    A    
Cu1   O5    S    
C27   C43   A    
C15   C21   S    
C1    O1    A    
Cu1   Cu2   S    
C21   C24   S    
C2    C23   A    
C12   O4    A    
C35   H13   S    
Cu1   O1    S    
C4    C9    A    
