data_mof_unit_11381.cif
_audit_creation_date              2012-12-10T17:13:43-0500
_audit_creation_method            fapswitch 2.2
_symmetry_space_group_name_H-M    P1
_symmetry_Int_Tables_number       1
_space_group_crystal_system       triclinic
_cell_length_a                    26.878427
_cell_length_b                    10.711524
_cell_length_c                    10.062579
_cell_angle_alpha                 89.499957
_cell_angle_beta                  89.461053
_cell_angle_gamma                 91.028457
_cell_volume                      2896.39668555

loop_
_atom_site_label
_atom_site_type_symbol
_atom_type_description
_atom_site_fract_x
_atom_site_fract_y
_atom_site_fract_z
_atom_type_partial_charge
C1    C     C_R   0.496055 0.262492 0.500579 0.941497
C2    C     C_R   0.982640 0.421619 0.652464 0.171501
C3    C     C_R   0.983689 0.649304 0.612005 -0.187346
C4    C     C_R   0.405601 0.499901 0.500747 0.989024
C5    C     C_R   0.958183 0.531770 0.612812 0.027620
C6    C     C_R   0.959824 0.304212 0.621821 -0.110124
C7    C     C_R   0.908201 0.297413 0.596545 -0.154297
C8    C     C_R   0.881644 0.409494 0.578287 0.004347
C9    C     C_R   0.908193 0.524262 0.570747 -0.149137
C10   C     C_R   0.884565 0.631919 0.522296 -0.284577
C11   C     C_R   0.833692 0.624723 0.492613 0.712235
C12   C     C_R   0.274227 0.405224 0.581468 0.614423
C13   C     C_R   0.829492 0.411957 0.564323 0.658936
C14   C     C_R   0.729859 0.438546 0.418675 0.582163
C15   C     C_R   0.677796 0.429280 0.416353 -0.233517
C16   C     C_R   0.500531 0.737331 0.499043 0.961595
C17   C     C_R   0.674121 0.593893 0.585026 -0.211799
C18   C     C_R   0.725985 0.593792 0.592032 0.555646
C19   C     C_R   0.753792 0.517889 0.508436 0.046161
C20   C     C_R   0.031004 0.432721 0.707156 -0.161223
C21   C     C_R   0.056919 0.548532 0.698881 0.020302
C22   C     C_R   0.032108 0.659146 0.667052 0.088339
C23   C     C_R   0.253514 0.525108 0.598804 0.033265
C24   C     C_R   0.054127 0.334250 0.776533 0.554993
C25   C     C_R   0.108647 0.779777 0.712369 -0.107209
C26   C     C_R   0.961854 0.749789 0.543122 0.462023
C27   C     C_R   0.912596 0.742520 0.502653 0.643401
C28   C     C_R   0.594652 0.501267 0.499532 1.028829
C29   C     C_R   0.055852 0.774576 0.700940 -0.055696
C30   C     C_2   0.480954 0.931539 0.396970 0.464112
C31   C     C_2   0.503798 0.869522 0.494405 0.306598
C32   C     C_2   0.485325 0.065293 0.391344 0.686981
C33   C     C_2   0.479476 0.133715 0.502073 -0.340383
C34   C     C_R   0.108357 0.552965 0.721774 -0.138876
C35   C     C_2   0.489235 0.592851 0.929096 0.038505
C36   C     C_2   0.507910 0.596041 0.068751 0.194741
C37   C     C_R   0.185165 0.445008 0.746620 0.724328
C38   C     C_R   0.187860 0.657891 0.698988 0.609870
C39   C     C_R   0.276904 0.623828 0.523240 -0.166332
C40   C     C_R   0.327437 0.614872 0.489979 0.504683
C41   C     C_R   0.323542 0.393041 0.538447 -0.260964
C42   C     C_2   0.344148 0.266234 0.525435 0.541264
C43   C     C_2   0.248989 0.724056 0.455831 0.630483
C44   C     C_2   0.134400 0.902342 0.726320 0.703806
C45   C     C_R   0.133255 0.443400 0.756389 -0.301285
C46   C     C_2   0.647771 0.687617 0.666337 0.585335
C47   C     C_2   0.024406 0.878392 0.751507 0.532796
C48   C     C_2   0.452061 0.087298 0.623742 0.466613
C49   C     C_2   0.455379 0.690791 0.881835 0.401729
C50   C     C_2   0.538855 0.704423 0.109157 0.420256
C51   C     C_2   0.655255 0.331486 0.330657 0.602593
C52   C     C_2   0.884643 0.173105 0.571810 0.581774
C53   C     C_2   0.990481 0.194056 0.586882 0.609028
C54   C     C_R   0.105414 0.337369 0.796234 0.670345
C55   C     C_R   0.135394 0.666459 0.711511 -0.001064
C56   C     C_R   0.351461 0.501365 0.505715 -0.211751
C57   C     C_R   0.649373 0.508446 0.499392 -0.213906
F1    F     F_    0.988937 0.852583 0.505479 -0.626020
F2    F     F_    0.127501 0.235259 0.848441 -0.522212
F3    F     F_    0.757730 0.365613 0.338159 -0.606367
F4    F     F_    0.027187 0.237002 0.828723 -0.592868
F5    F     F_    0.352879 0.715128 0.438128 -0.616336
F6    F     F_    0.892872 0.844362 0.443109 -0.545887
F7    F     F_    0.749980 0.669605 0.679226 -0.628283
F8    F     F_    0.455209 0.872359 0.299229 -0.575421
F9    F     F_    0.532142 0.928370 0.587308 -0.635146
F10   F     F_    0.502515 0.115471 0.274490 -0.543523
F11   F     F_    0.245418 0.299944 0.590150 -0.604209
F12   F     F_    0.533746 0.421321 0.900431 -0.489935
F13   F     F_    0.470525 0.410866 0.101316 -0.466826
H1    H     H_    0.327831 0.188566 0.581619 0.159952
H2    H     H_    0.890734 0.096127 0.640216 0.062045
H3    H     H_    0.976577 0.099823 0.605050 0.099879
H4    H     H_    0.267569 0.811533 0.428690 0.145069
H5    H     H_    0.128274 0.975819 0.653659 0.115565
H6    H     H_    0.663507 0.718527 0.759653 0.129461
H7    H     H_    0.984947 0.862163 0.769453 0.064790
H8    H     H_    0.457908 0.132437 0.718578 0.158038
H9    H     H_    0.436304 0.680568 0.788210 0.132575
H10   H     H_    0.536692 0.792163 0.055065 0.138553
H11   H     H_    0.674745 0.302249 0.241571 0.137642
N1    N     N_R   0.208640 0.542806 0.681206 -0.326898
N2    N     N_R   0.806982 0.517650 0.519783 -0.332267
N3    N     N_2   0.500520 0.501330 0.852150 0.147699
N4    N     N_2   0.500540 0.501360 0.147810 0.195110
O1    O     O_R   0.499990 0.319060 0.613040 -0.612361
O2    O     O_R   0.571240 0.499960 0.613080 -0.575893
O3    O     O_R   0.571250 0.500000 0.386950 -0.573053
O4    O     O_2   0.211488 0.354308 0.805273 -0.384514
O5    O     O_2   0.378039 0.245997 0.447529 -0.559553
O6    O     O_2   0.205701 0.707448 0.423573 -0.549735
O7    O     O_2   0.160080 0.924314 0.823088 -0.419611
O8    O     O_2   0.609915 0.736429 0.627079 -0.522047
O9    O     O_2   0.041665 0.981253 0.777553 -0.487137
O10   O     O_2   0.421176 0.002481 0.618184 -0.525207
O11   O     O_2   0.446894 0.782184 0.949472 -0.485432
O12   O     O_2   0.801106 0.311953 0.600417 -0.474935
O13   O     O_2   0.569377 0.694931 0.197434 -0.523760
O14   O     O_2   0.616356 0.277771 0.361542 -0.527297
O15   O     O_2   0.860355 0.154528 0.471712 -0.402464
O16   O     O_2   0.030943 0.207882 0.531930 -0.508273
O17   O     O_2   0.217479 0.760167 0.706105 -0.513538
O18   O     O_2   0.810589 0.724354 0.440379 -0.402446
O19   O     O_R   0.500010 0.319100 0.386900 -0.479023
O20   O     O_R   0.428750 0.500000 0.613050 -0.683287
O21   O     O_R   0.428760 0.500040 0.386920 -0.534694
O22   O     O_R   0.499990 0.680900 0.613100 -0.633491
O23   O     O_R   0.500010 0.680940 0.386960 -0.596229
Zn1   Zn    Zn3+2 0.499990 0.499970 0.650990 1.091428
Zn2   Zn    Zn3+2 0.500010 0.500030 0.349010 1.225717

loop_
_geom_bond_atom_site_label_1
_geom_bond_atom_site_label_2
_ccdc_geom_bond_type
C10   C27   A    
C31   F9    S    
C30   C32   S    
C24   F4    S    
C23   N1    S    
C15   C57   A    
C41   C42   S    
C35   C36   S    
C46   H6    S    
C1    C33   S    
C7    C8    A    
C28   C57   S    
C16   C31   S    
C5    C9    A    
C12   F11   S    
C12   C23   A    
C26   C27   A    
C8    C13   A    
C29   C47   S    
C22   C29   A    
C7    C52   S    
C30   C31   D    
C24   C54   A    
C40   F5    S    
C18   C19   A    
C48   H8    S    
C16   O22   A    
C38   C55   A    
C20   C24   A    
C53   O16   D    
C8    C9    A    
C40   C56   A    
C35   C49   S    
C15   C51   S    
C9    C10   A    
C51   H11   S    
C44   O7    D    
O3    Zn2   S    
C43   H4    S    
C34   C55   A    
C21   C22   A    
C4    C56   S    
C25   C29   A    
O22   Zn1   S    
C2    C6    A    
C19   N2    S    
C25   C44   S    
C54   F2    S    
C51   O14   D    
C50   O13   D    
C2    C20   A    
O1    Zn1   S    
C17   C46   S    
N4    Zn2   S    
C48   O10   D    
C39   C40   A    
C39   C43   S    
C21   C34   A    
C11   N2    A    
C4    O21   A    
C52   O15   D    
C43   O6    D    
C49   H9    S    
C42   O5    D    
C44   H5    S    
C41   C56   A    
C28   O3    A    
C12   C41   A    
C52   H2    S    
C28   O2    A    
C17   C18   A    
C34   C45   A    
C26   F1    S    
C1    O19   A    
C27   F6    S    
C32   F10   S    
C45   C54   A    
C37   N1    A    
C2    C5    A    
C47   H7    S    
C6    C53   S    
C37   C45   A    
C36   C50   S    
O21   Zn2   S    
C1    O1    A    
O20   Zn1   S    
C14   C19   A    
C3    C26   A    
C53   H3    S    
C25   C55   A    
C3    C5    A    
C50   H10   S    
C35   N3    D    
C6    C7    A    
O2    Zn1   S    
C36   N4    D    
C14   F3    S    
C4    O20   A    
C13   N2    A    
N3    Zn1   S    
C37   O4    S    
C32   C33   D    
C38   O17   S    
F12   N3    S    
O19   Zn2   S    
C18   F7    S    
C46   O8    D    
C23   C39   A    
C42   H1    S    
C47   O9    D    
O23   Zn2   S    
C49   O11   D    
C13   O12   S    
C30   F8    S    
C10   C11   A    
C16   O23   A    
C20   C21   A    
C33   C48   S    
C14   C15   A    
C3    C22   A    
C11   O18   S    
F13   N4    S    
C38   N1    A    
C17   C57   A    
