data_mof_unit_58431.cif
_audit_creation_date              2012-12-11T14:42:08-0500
_audit_creation_method            fapswitch 2.2
_symmetry_space_group_name_H-M    P1
_symmetry_Int_Tables_number       1
_space_group_crystal_system       triclinic
_cell_length_a                    19.164547
_cell_length_b                    10.986617
_cell_length_c                    18.761804
_cell_angle_alpha                 89.949452
_cell_angle_beta                  89.717619
_cell_angle_gamma                 89.969483
_cell_volume                      3950.31414355

loop_
_atom_site_label
_atom_site_type_symbol
_atom_type_description
_atom_site_fract_x
_atom_site_fract_y
_atom_site_fract_z
_atom_type_partial_charge
C1    C     C_R   0.725021 0.959614 0.854684 0.601986
C2    C     C_R   0.273250 0.955310 0.146761 0.592582
C3    C     C_R   0.225018 0.459622 0.854685 0.600410
C4    C     C_R   0.773266 0.455360 0.146738 0.596286
C5    C     C_R   0.691677 0.433466 0.044162 0.240618
C6    C     C_R   0.301343 0.393238 0.952583 0.234010
C7    C     C_R   0.191655 0.933325 0.044202 0.240228
C8    C     C_R   0.801359 0.893291 0.952593 0.233769
C9    C     C_R   0.758077 0.419956 0.073985 -0.019140
C10   C     C_R   0.237007 0.435311 0.928924 -0.025773
C11   C     C_R   0.258057 0.919847 0.074018 -0.018954
C12   C     C_R   0.737011 0.935292 0.928921 -0.025775
C13   C     C_R   0.815820 0.396185 0.030752 -0.184600
C14   C     C_R   0.183912 0.466553 0.977144 -0.181681
C15   C     C_R   0.315798 0.896066 0.030781 -0.183527
C16   C     C_R   0.683900 0.966478 0.977132 -0.182344
C17   C     C_R   0.810772 0.395229 0.957538 0.218003
C18   C     C_R   0.192622 0.448885 0.049853 0.201146
C19   C     C_R   0.310751 0.895136 0.957567 0.217299
C20   C     C_R   0.692608 0.948834 0.049843 0.201071
C21   C     C_R   0.744415 0.404835 0.926516 0.041181
C22   C     C_R   0.256481 0.404002 0.074223 0.037818
C23   C     C_R   0.244398 0.904773 0.926542 0.041473
C24   C     C_R   0.756475 0.903996 0.074223 0.038252
C25   C     C_R   0.481673 0.269469 0.539507 0.239609
C26   C     C_R   0.500574 0.273835 0.468437 0.234450
C27   C     C_R   0.065703 0.764413 0.514553 0.197659
C28   C     C_R   0.054330 0.753833 0.441622 0.218607
C29   C     C_R   0.497220 0.165215 0.428614 -0.025682
C30   C     C_R   0.494380 0.161296 0.576331 -0.018884
C31   C     C_R   0.014682 0.657117 0.416681 0.002802
C32   C     C_R   0.046591 0.668254 0.560411 -0.017372
C33   C     C_R   0.498072 0.051237 0.463715 0.153811
C34   C     C_R   0.497447 0.049389 0.539465 0.151101
C35   C     C_R   0.006807 0.551831 0.458223 0.160852
C36   C     C_R   0.017889 0.559825 0.532065 0.165567
C37   C     C_R   0.816889 0.385469 0.544136 -0.186180
C38   C     C_R   0.177625 0.410788 0.450408 -0.141715
C39   C     C_R   0.321701 0.898359 0.547455 -0.138576
C40   C     C_R   0.689900 0.932440 0.453050 -0.193495
C41   C     C_R   0.825049 0.410062 0.473229 -0.189188
C42   C     C_R   0.170138 0.429339 0.522679 -0.175173
C43   C     C_R   0.329737 0.919380 0.475384 -0.169757
C44   C     C_R   0.681396 0.948609 0.525303 -0.202854
C45   C     C_R   0.529761 0.178205 0.850367 0.567899
C46   C     C_R   0.470634 0.177623 0.149558 0.595925
C47   C     C_R   0.029775 0.678208 0.850376 0.586655
C48   C     C_R   0.970655 0.677623 0.149573 0.588743
C49   C     C_R   0.778188 0.485626 0.437716 -0.005133
C50   C     C_R   0.221855 0.488995 0.561452 -0.018192
C51   C     C_R   0.281749 0.990330 0.438309 -0.021876
C52   C     C_R   0.738338 0.939157 0.571338 0.030366
C53   C     C_R   0.725445 0.548496 0.477195 0.286174
C54   C     C_R   0.279391 0.542326 0.524114 0.284355
C55   C     C_R   0.230491 0.054374 0.477636 0.311712
C56   C     C_R   0.805744 0.927373 0.544330 0.252888
C57   C     C_R   0.718713 0.524027 0.551754 0.230926
C58   C     C_R   0.287317 0.517572 0.449808 0.204349
C59   C     C_R   0.220927 0.029476 0.551275 0.280611
C60   C     C_R   0.814651 0.901825 0.471846 0.243655
C61   C     C_R   0.759870 0.430949 0.582128 -0.005440
C62   C     C_R   0.240471 0.437743 0.416215 0.022084
C63   C     C_R   0.261672 0.937062 0.583379 -0.011409
C64   C     C_R   0.755627 0.904199 0.426447 0.052681
C65   C     C_R   0.737274 0.362575 0.853354 0.604351
C66   C     C_R   0.262448 0.363251 0.147274 0.620891
C67   C     C_R   0.237268 0.862557 0.853364 0.599860
C68   C     C_R   0.762447 0.863250 0.147273 0.616919
C69   C     C_R   0.725777 0.960558 0.645857 0.595136
C70   C     C_R   0.290754 0.003124 0.360093 0.572853
C71   C     C_R   0.210438 0.501623 0.639528 0.555043
C72   C     C_R   0.789763 0.501643 0.360307 0.588177
C73   C     C_R   0.528281 0.174816 0.645574 0.569244
C74   C     C_R   0.470144 0.175565 0.355893 0.569169
C75   C     C_R   0.061341 0.679746 0.636631 0.603437
C76   C     C_R   0.972765 0.674431 0.353041 0.601385
C77   C     C_R   0.741158 0.367076 0.648408 0.536487
C78   C     C_R   0.258688 0.368744 0.351060 0.575264
C79   C     C_R   0.241504 0.868596 0.648663 0.550438
C80   C     C_R   0.761800 0.860162 0.354242 0.583878
C81   C     C_2   0.497744 0.173244 0.920423 -0.067480
C82   C     C_2   0.502081 0.168274 0.078695 -0.052616
C83   C     C_2   0.997774 0.673254 0.920442 -0.066764
C84   C     C_2   0.002117 0.668285 0.078720 -0.052220
C85   C     C_2   0.482985 0.076300 0.035872 -0.160806
C86   C     C_2   0.499164 0.072469 0.959735 -0.138739
C87   C     C_2   0.983034 0.576310 0.035895 -0.159493
C88   C     C_2   0.999213 0.572486 0.959758 -0.139795
C89   C     C_R   0.684031 0.420062 0.969878 0.183348
C90   C     C_R   0.309999 0.371678 0.025794 0.182687
C91   C     C_R   0.184011 0.919986 0.969909 0.184235
C92   C     C_R   0.810005 0.871710 0.025802 0.181664
Cr1   Cr    Cr6+3 0.769270 0.163730 0.750710 1.033132
Cr2   Cr    Cr6+3 0.230730 0.163730 0.249290 1.030719
Cr3   Cr    Cr6+3 0.269270 0.663730 0.750710 1.040046
Cr4   Cr    Cr6+3 0.730730 0.663730 0.249290 1.048944
Cr5   Cr    Cr6+3 0.612620 0.009790 0.748780 1.059550
Cr6   Cr    Cr6+3 0.387380 0.009790 0.251220 1.043924
Cr7   Cr    Cr6+3 0.112620 0.509790 0.748780 1.057786
Cr8   Cr    Cr6+3 0.887380 0.509790 0.251220 1.036382
Cr9   Cr    Cr6+3 0.614160 0.322500 0.747710 1.072377
Cr10  Cr    Cr6+3 0.385840 0.322500 0.252290 1.068790
Cr11  Cr    Cr6+3 0.114160 0.822500 0.747710 1.056450
Cr12  Cr    Cr6+3 0.885840 0.822500 0.252290 1.092527
H1    H     H_    0.455302 0.999451 0.057533 0.135805
H2    H     H_    0.512737 0.985576 0.936020 0.155474
H3    H     H_    0.955365 0.499446 0.057555 0.136387
H4    H     H_    0.012797 0.485597 0.936044 0.154759
H5    H     H_    0.867374 0.364743 0.445755 0.196524
H6    H     H_    0.123954 0.393762 0.548549 0.197491
H7    H     H_    0.372889 0.877100 0.448097 0.185101
H8    H     H_    0.630320 0.970195 0.545572 0.164740
H9    H     H_    0.531494 0.245061 0.058010 0.133099
H10   H     H_    0.482962 0.259040 0.944345 0.113680
H11   H     H_    0.031525 0.745082 0.058039 0.132870
H12   H     H_    0.982984 0.759049 0.944361 0.111803
H13   H     H_    0.866490 0.383365 0.053837 0.140806
H14   H     H_    0.135933 0.506353 0.958153 0.147732
H15   H     H_    0.366470 0.883235 0.053862 0.141141
H16   H     H_    0.635909 0.006235 0.958136 0.148345
H17   H     H_    0.853980 0.324340 0.568053 0.133061
H18   H     H_    0.135930 0.366290 0.422304 0.163258
H19   H     H_    0.360692 0.844816 0.574309 0.206446
H20   H     H_    0.644866 0.936153 0.418455 0.177215
O1    O     O_R   0.784320 0.290430 0.830510 -0.488222
O2    O     O_R   0.215680 0.290430 0.169490 -0.538811
O3    O     O_R   0.284320 0.790430 0.830510 -0.490585
O4    O     O_R   0.715680 0.790430 0.169490 -0.538443
O5    O     O_R   0.554640 0.080370 0.673500 -0.456622
O6    O     O_R   0.445360 0.080370 0.326500 -0.461236
O7    O     O_R   0.054640 0.580370 0.673500 -0.440810
O8    O     O_R   0.945360 0.580370 0.326500 -0.467561
O9    O     O_R   0.543920 0.282180 0.666790 -0.471198
O10   O     O_R   0.456080 0.282180 0.333210 -0.493044
O11   O     O_R   0.043920 0.782180 0.666790 -0.490784
O12   O     O_R   0.956080 0.782180 0.333210 -0.441165
O13   O     O_R   0.679040 0.374160 0.674430 -0.486787
O14   O     O_R   0.320960 0.374160 0.325570 -0.506162
O15   O     O_R   0.179040 0.874160 0.674430 -0.493509
O16   O     O_R   0.820960 0.874160 0.325570 -0.461503
O17   O     O_3   0.665350 0.165340 0.749070 -0.291821
O18   O     O_3   0.334650 0.165340 0.250930 -0.292929
O19   O     O_3   0.165350 0.665340 0.749070 -0.324693
O20   O     O_3   0.834650 0.665340 0.250930 -0.297716
O21   O     O_R   0.762640 0.040960 0.825200 -0.498114
O22   O     O_R   0.237360 0.040960 0.174800 -0.473047
O23   O     O_R   0.262640 0.540960 0.825200 -0.500598
O24   O     O_R   0.737360 0.540960 0.174800 -0.470744
O25   O     O_R   0.667400 0.923970 0.829950 -0.522723
O26   O     O_R   0.332600 0.923970 0.170050 -0.536192
O27   O     O_R   0.167400 0.423970 0.829950 -0.522554
O28   O     O_R   0.832600 0.423970 0.170050 -0.539024
O29   O     O_R   0.553960 0.081340 0.821780 -0.506012
O30   O     O_R   0.446040 0.081340 0.178220 -0.520258
O31   O     O_R   0.053960 0.581340 0.821780 -0.500814
O32   O     O_R   0.946040 0.581340 0.178220 -0.525515
O33   O     O_R   0.543180 0.283240 0.826740 -0.499072
O34   O     O_R   0.456820 0.283240 0.173260 -0.466473
O35   O     O_R   0.043180 0.783240 0.826740 -0.491632
O36   O     O_R   0.956820 0.783240 0.173260 -0.469593
O37   O     O_R   0.678360 0.375140 0.822710 -0.452309
O38   O     O_R   0.321640 0.375140 0.177290 -0.456102
O39   O     O_R   0.178360 0.875140 0.822710 -0.456164
O40   O     O_R   0.821640 0.875140 0.177290 -0.463901
O41   O     O_R   0.785050 0.289380 0.670560 -0.536122
O42   O     O_R   0.214950 0.289380 0.329440 -0.498117
O43   O     O_R   0.285050 0.789380 0.670560 -0.487318
O44   O     O_R   0.714950 0.789380 0.329440 -0.488947
O45   O     O_R   0.763320 0.039990 0.676930 -0.482297
O46   O     O_R   0.236680 0.039990 0.323070 -0.489292
O47   O     O_R   0.263320 0.539990 0.676930 -0.467709
O48   O     O_R   0.736680 0.539990 0.323070 -0.474444
O49   O     O_R   0.668130 0.922920 0.670000 -0.502746
O50   O     O_R   0.331870 0.922920 0.330000 -0.496381
O51   O     O_R   0.168130 0.422920 0.670000 -0.500535
O52   O     O_R   0.831870 0.422920 0.330000 -0.509292
O53   O     O_3   0.687906 0.639285 0.442129 -0.548698
C93   C     C_3   0.618907 0.656116 0.467439 -0.064206
H21   H     H_    0.617349 0.729241 0.507939 0.176420
H22   H     H_    0.594817 0.572558 0.489873 0.178387
H23   H     H_    0.586009 0.686539 0.422320 0.129013
O54   O     O_3   0.322801 0.621951 0.561119 -0.553006
C94   C     C_3   0.393310 0.620474 0.538084 -0.079155
H24   H     H_    0.403314 0.694381 0.499370 0.139546
H25   H     H_    0.409512 0.533853 0.513272 0.196989
H26   H     H_    0.427360 0.636964 0.584727 0.150362
O55   O     O_3   0.197153 0.151386 0.445792 -0.546935
C95   C     C_3   0.125233 0.128288 0.439496 -0.062116
H27   H     H_    0.096615 0.168204 0.485379 0.134772
H28   H     H_    0.113629 0.031168 0.433798 0.202026
H29   H     H_    0.105666 0.172067 0.390238 0.129414
O56   O     O_3   0.862498 0.943836 0.588324 -0.580270
C96   C     C_3   0.884606 0.065807 0.580501 -0.133466
H30   H     H_    0.840747 0.130333 0.587153 0.156991
H31   H     H_    0.909018 0.081286 0.527421 0.100093
H32   H     H_    0.923415 0.086855 0.622373 0.132306
O57   O     O_3   0.675209 0.594446 0.593744 -0.704691
H33   H     H_    0.691203 0.590577 0.643829 0.341183
O58   O     O_3   0.334253 0.582145 0.408978 -0.704782
H34   H     H_    0.372462 0.525188 0.396542 0.348848
O59   O     O_3   0.175621 0.101347 0.590093 -0.694282
H35   H     H_    0.185598 0.091160 0.641485 0.330198
O60   O     O_3   0.879524 0.871134 0.445040 -0.673949
H36   H     H_    0.911176 0.850194 0.484716 0.335662
O61   O     O_3   0.618643 0.416698 0.939203 -0.687948
H37   H     H_    0.583432 0.395247 0.975844 0.332499
O62   O     O_3   0.367836 0.311309 0.050769 -0.692260
H38   H     H_    0.387084 0.261738 0.011521 0.347567
O63   O     O_3   0.118627 0.916691 0.939224 -0.688942
H39   H     H_    0.083400 0.895308 0.975860 0.332284
O64   O     O_3   0.867850 0.811367 0.050782 -0.692092
H40   H     H_    0.887117 0.761827 0.011530 0.347736
O65   O     O_3   0.634523 0.451101 0.088435 -0.565287
C97   C     C_3   0.609118 0.570667 0.079328 -0.092896
H41   H     H_    0.651809 0.638539 0.072180 0.130716
H42   H     H_    0.579144 0.595916 0.127825 0.131570
H43   H     H_    0.572803 0.576202 0.033576 0.114631
O66   O     O_3   0.352511 0.361392 0.903691 -0.572987
C98   C     C_3   0.402697 0.455122 0.901091 -0.127705
H44   H     H_    0.379773 0.540871 0.880790 0.134454
H45   H     H_    0.444136 0.429022 0.862784 0.170388
H46   H     H_    0.427638 0.470164 0.953815 0.119813
O67   O     O_3   0.134501 0.950864 0.088491 -0.567496
C99   C     C_3   0.109095 0.070453 0.079486 -0.093578
H47   H     H_    0.151768 0.138326 0.072219 0.131539
H48   H     H_    0.079273 0.095696 0.128083 0.130679
H49   H     H_    0.072645 0.076010 0.033847 0.114493
O68   O     O_3   0.852568 0.861574 0.903719 -0.565609
C100  C     C_3   0.902733 0.955348 0.901222 -0.120231
H50   H     H_    0.879819 0.041044 0.880833 0.134263
H51   H     H_    0.944277 0.929263 0.863032 0.174541
H52   H     H_    0.927552 0.970464 0.954000 0.115948
O69   O     O_3   0.870408 0.387796 0.915052 -0.528451
C101  C     C_3   0.911501 0.285806 0.934011 -0.101058
H53   H     H_    0.879651 0.207356 0.952964 0.101681
H54   H     H_    0.949749 0.310744 0.975688 0.080091
H55   H     H_    0.941362 0.255741 0.886385 0.140465
O70   O     O_3   0.140928 0.483065 0.097609 -0.549413
C102  C     C_3   0.087516 0.394562 0.097740 -0.108986
H56   H     H_    0.066814 0.376253 0.043547 0.084071
H57   H     H_    0.044562 0.426660 0.132544 0.151100
H58   H     H_    0.104625 0.308623 0.121872 0.129234
O71   O     O_3   0.370390 0.887732 0.915083 -0.531494
C103  C     C_3   0.411474 0.785715 0.934011 -0.101487
H59   H     H_    0.379616 0.707244 0.952922 0.102748
H60   H     H_    0.449717 0.810603 0.975703 0.080550
H61   H     H_    0.441342 0.755701 0.886378 0.141360
O72   O     O_3   0.640908 0.983028 0.097588 -0.547381
C104  C     C_3   0.587490 0.894537 0.097720 -0.105735
H62   H     H_    0.566822 0.876151 0.043522 0.082718
H63   H     H_    0.544513 0.926689 0.132475 0.153303
H64   H     H_    0.604581 0.808650 0.121927 0.129917
O73   O     O_3   0.464540 0.375728 0.575095 -0.546288
C105  C     C_3   0.401180 0.357811 0.613080 -0.098864
H65   H     H_    0.404778 0.285195 0.654109 0.122900
H66   H     H_    0.357659 0.337144 0.575964 0.115910
H67   H     H_    0.388260 0.442329 0.642398 0.179285
O74   O     O_3   0.514225 0.385826 0.437250 -0.548173
C106  C     C_3   0.581193 0.381854 0.404916 -0.092284
H68   H     H_    0.586581 0.309174 0.364159 0.122519
H69   H     H_    0.622416 0.369897 0.445848 0.110517
H70   H     H_    0.590354 0.468549 0.376213 0.161195
O75   O     O_3   0.092302 0.871475 0.541454 -0.536581
C107  C     C_3   0.036079 0.953392 0.549672 -0.084549
H71   H     H_    0.992437 0.912369 0.580171 0.177293
H72   H     H_    0.016150 0.984356 0.497257 0.123631
H73   H     H_    0.053328 0.033862 0.580196 0.169056
O76   O     O_3   0.075443 0.844690 0.395660 -0.571368
C108  C     C_3   0.132603 0.801306 0.355334 -0.092102
H74   H     H_    0.120185 0.715756 0.326262 0.111327
H75   H     H_    0.179020 0.787657 0.389875 0.150812
H76   H     H_    0.145885 0.870237 0.314379 0.177776
O77   O     O_3   0.501252 0.947020 0.422388 -0.705421
H77   H     H_    0.489579 0.874278 0.450746 0.305584
O78   O     O_3   0.498705 0.943096 0.579067 -0.698889
H78   H     H_    0.524425 0.879070 0.553099 0.307573
O79   O     O_3   0.988216 0.443942 0.425767 -0.710270
H79   H     H_    0.008897 0.375360 0.452718 0.301714
O80   O     O_3   0.998217 0.466344 0.577334 -0.685714
H80   H     H_    0.963363 0.414086 0.553806 0.325279

loop_
_geom_bond_atom_site_label_1
_geom_bond_atom_site_label_2
_ccdc_geom_bond_type
C2    O26   A    
C79   O15   A    
C58   C62   A    
C56   O56   S    
C15   C19   A    
Cr2   O22   S    
C23   C91   A    
C55   C59   A    
C48   C84   S    
O59   H35   S    
C14   C18   A    
C5    C89   A    
C1    O21   A    
C35   C36   A    
C84   C87   D    
C17   O69   S    
C93   H23   S    
C91   O63   S    
C106  H70   S    
C43   C51   A    
C99   H47   S    
Cr10  O34   S    
C32   C75   S    
Cr6   O30   S    
C93   H21   S    
C76   O12   A    
O75   C107  S    
Cr6   O26   S    
C21   C89   A    
O65   C97   S    
Cr8   O28   S    
Cr3   O19   S    
C48   O36   A    
Cr1   O45   S    
C104  H62   S    
C50   C54   A    
C101  H54   S    
C95   H29   S    
C32   C36   A    
Cr7   O19   S    
C56   C60   A    
C102  H56   S    
C77   O13   A    
C38   C42   A    
C100  H52   S    
C67   O3    A    
C94   H25   S    
C31   C76   S    
C85   C86   S    
O73   C105  S    
Cr6   O50   S    
C75   O11   A    
C98   H45   S    
C25   O73   S    
C77   O41   A    
O71   C103  S    
C4    O24   A    
C29   C33   A    
C39   H19   S    
C103  H59   S    
C66   O38   A    
C95   H28   S    
Cr10  O14   S    
C23   C67   S    
C99   H48   S    
C9    C13   A    
O54   C94   S    
C22   C66   S    
C105  H66   S    
C52   C69   S    
C46   C82   S    
Cr9   O17   S    
C49   C53   A    
C89   O61   S    
C20   C24   A    
C61   C77   S    
C107  H71   S    
C96   H31   S    
C49   C72   S    
Cr7   O31   S    
C81   H10   S    
Cr8   O52   S    
O80   H80   S    
C54   O54   S    
Cr1   O21   S    
C26   C29   A    
C8    C92   A    
C51   C70   S    
Cr5   O29   S    
C8    C12   A    
Cr12  O12   S    
O69   C101  S    
C68   O4    A    
C81   C86   D    
Cr12  O40   S    
Cr10  O38   S    
C57   O57   S    
Cr8   O32   S    
C11   C15   A    
Cr2   O2    S    
C83   C88   D    
C48   O32   A    
Cr9   O33   S    
O58   H34   S    
C41   H5    S    
C108  H74   S    
Cr6   O18   S    
C64   C80   S    
Cr2   O42   S    
C86   H2    S    
C1    C12   S    
C69   O49   A    
Cr12  O36   S    
C85   H1    S    
C2    C11   S    
C24   C92   A    
C15   H15   S    
C41   C49   A    
O68   C100  S    
C75   O7    A    
O63   H39   S    
Cr1   O1    S    
C68   O40   A    
C8    O68   S    
Cr4   O24   S    
C73   O5    A    
C58   O58   S    
C104  H63   S    
Cr5   O49   S    
C30   C34   A    
C52   C56   A    
O62   H38   S    
Cr2   O18   S    
C33   O77   S    
C12   C16   A    
Cr3   O23   S    
O67   C99   S    
Cr8   O20   S    
C94   H26   S    
C98   H44   S    
C30   C73   S    
Cr9   O13   S    
C97   H41   S    
C47   O35   A    
C29   C74   S    
C105  H67   S    
C14   H14   S    
C25   C26   A    
C6    C90   A    
Cr7   O27   S    
Cr7   O7    S    
C17   C21   A    
C66   O2    A    
Cr3   O43   S    
C95   H27   S    
C101  H55   S    
C65   O1    A    
C7    C11   A    
C94   H24   S    
Cr10  O10   S    
C36   O80   S    
C5    C9    A    
C100  H50   S    
Cr11  O15   S    
Cr4   O20   S    
Cr4   O4    S    
C7    O67   S    
C59   O59   S    
C60   O60   S    
C13   H13   S    
O64   H40   S    
C26   O74   S    
C20   O72   S    
C16   C20   A    
C96   H32   S    
C27   O75   S    
Cr6   O6    S    
Cr4   O44   S    
C33   C34   A    
C22   C90   A    
C45   O33   A    
C102  H57   S    
C50   C71   S    
C69   O45   A    
C4    O28   A    
C1    O25   A    
C70   O50   A    
Cr5   O17   S    
C38   H18   S    
C78   O42   A    
C42   C50   A    
C37   H17   S    
C44   H8    S    
C46   O30   A    
O78   H78   S    
C73   O9    A    
O53   C93   S    
C84   H11   S    
Cr9   O9    S    
C108  H75   S    
C10   C14   A    
C71   O47   A    
C59   C63   A    
C45   O29   A    
C101  H53   S    
Cr4   O48   S    
C106  H68   S    
C99   H49   S    
C72   O48   A    
C7    C91   A    
Cr1   O17   S    
C37   C61   A    
C19   C23   A    
C40   H20   S    
C54   C58   A    
C46   O34   A    
C25   C30   A    
O61   H37   S    
O70   C102  S    
C104  H64   S    
C53   C57   A    
C35   O79   S    
C16   H16   S    
C21   C65   S    
C27   C32   A    
C18   C22   A    
C3    O27   A    
C83   H12   S    
C62   C78   S    
C28   C31   A    
C45   C81   S    
C82   H9    S    
C47   C83   S    
C106  H69   S    
C97   H43   S    
C53   O53   S    
C44   C52   A    
C6    C10   A    
C93   H22   S    
C55   O55   S    
Cr8   O8    S    
C57   C61   A    
C63   C79   S    
C19   O71   S    
C2    O22   A    
C82   C85   D    
C39   C63   A    
C34   O78   S    
Cr11  O39   S    
C28   O76   S    
C103  H61   S    
C13   C17   A    
C60   C64   A    
O56   C96   S    
C6    O66   S    
C105  H65   S    
C74   O6    A    
O74   C106  S    
C42   H6    S    
C97   H42   S    
Cr5   O5    S    
O55   C95   S    
C100  H51   S    
C3    C10   S    
C80   O16   A    
C3    O23   A    
C78   O14   A    
C98   H46   S    
Cr11  O19   S    
C76   O8    A    
Cr11  O35   S    
O66   C98   S    
C47   O31   A    
C107  H73   S    
C88   H4    S    
C5    O65   S    
C74   O10   A    
C31   C35   A    
Cr9   O37   S    
O72   C104  S    
C103  H60   S    
C102  H58   S    
C51   C55   A    
C92   O64   S    
C72   O52   A    
C37   C41   A    
O57   H33   S    
Cr11  O11   S    
C71   O51   A    
Cr7   O51   S    
Cr12  O20   S    
C24   C68   S    
Cr1   O41   S    
C90   O62   S    
C43   H7    S    
C67   O39   A    
Cr3   O3    S    
C40   C44   A    
C87   H3    S    
O76   C108  S    
C39   C43   A    
C87   C88   S    
C107  H72   S    
C96   H30   S    
C70   O46   A    
C108  H76   S    
C65   O37   A    
C27   C28   A    
Cr5   O25   S    
C40   C64   A    
Cr10  O18   S    
O60   H36   S    
C79   O43   A    
C4    C9    S    
O79   H79   S    
Cr3   O47   S    
C80   O44   A    
Cr2   O46   S    
C18   O70   S    
Cr12  O16   S    
C38   C62   A    
O77   H77   S    
