data_mof_unit_35935.cif
_audit_creation_date              2012-12-10T18:43:05-0500
_audit_creation_method            fapswitch 2.2
_symmetry_space_group_name_H-M    P1
_symmetry_Int_Tables_number       1
_space_group_crystal_system       triclinic
_cell_length_a                    8.749351
_cell_length_b                    19.387704
_cell_length_c                    18.151605
_cell_angle_alpha                 89.987428
_cell_angle_beta                  97.999784
_cell_angle_gamma                 90.822126
_cell_volume                      3048.77130758

loop_
_atom_site_label
_atom_site_type_symbol
_atom_type_description
_atom_site_fract_x
_atom_site_fract_y
_atom_site_fract_z
_atom_type_partial_charge
C1    C     C_R   0.499191 0.367944 0.499950 0.894843
C2    C     C_R   0.497022 0.632531 0.499741 0.874596
C3    C     C_R   0.407229 0.965675 0.552449 0.369740
C4    C     C_R   0.584253 0.036614 0.457487 0.360624
C5    C     C_R   0.416626 0.037933 0.554373 0.363862
C6    C     C_R   0.583627 0.964305 0.459324 0.372229
C7    C     C_R   0.499964 0.073374 0.504865 -0.149348
C8    C     C_R   0.490818 0.928821 0.504778 -0.158840
C9    C     C_R   0.401983 0.456584 0.714376 0.637513
C10   C     C_R   0.594919 0.545514 0.286484 0.641182
C11   C     C_R   0.401118 0.454303 0.792036 0.270668
C12   C     C_R   0.603674 0.546205 0.208799 0.249493
C13   C     C_R   0.498501 0.499262 0.838727 -0.108528
C14   C     C_R   0.508435 0.500423 0.161923 -0.060476
C15   C     C_R   0.596674 0.544141 0.805997 0.423982
C16   C     C_R   0.411764 0.454258 0.194020 0.416475
C17   C     C_R   0.599408 0.542734 0.728103 0.418591
C18   C     C_R   0.406299 0.455497 0.271571 0.410477
C19   C     C_R   0.632365 0.477694 0.968638 0.468502
C20   C     C_R   0.375517 0.521006 0.031651 0.490296
C21   C     C_R   0.639288 0.479676 0.047480 0.307954
C22   C     C_R   0.371870 0.521857 0.953752 0.345895
C23   C     C_R   0.203856 0.499940 0.481104 0.797310
C24   C     C_R   0.796134 0.499769 0.518869 0.797672
C25   C     C_R   0.508416 0.500582 0.079054 -0.046515
C26   C     C_R   0.500215 0.499416 0.921582 -0.096588
C27   C     C_2   0.038872 0.501279 0.470521 0.263305
C28   C     C_2   0.961095 0.498065 0.529354 0.273502
C29   C     C_R   0.428012 0.744911 0.434603 0.403747
C30   C     C_R   0.358081 0.256342 0.479235 0.373370
C31   C     C_R   0.424967 0.817348 0.436115 0.404528
C32   C     C_R   0.358587 0.183874 0.479321 0.378668
C33   C     C_R   0.481794 0.852935 0.502623 -0.096758
C34   C     C_R   0.497825 0.149099 0.502449 -0.087968
C35   C     C_R   0.536653 0.815863 0.566961 0.628539
C36   C     C_R   0.635059 0.186698 0.523837 0.644988
C37   C     C_R   0.538277 0.744315 0.565421 -0.350046
C38   C     C_R   0.634232 0.258361 0.522716 -0.377315
C39   C     C_R   0.487566 0.708220 0.499489 -0.311718
C40   C     C_R   0.497068 0.293093 0.499910 -0.251937
Cu1   Cu    Cu3+1 0.499960 0.500000 0.573360 1.056768
Cu2   Cu    Cu3+1 0.500040 0.500000 0.426640 1.080812
H1    H     H_    0.584060 0.717114 0.615640 0.245238
H2    H     H_    0.740744 0.286935 0.539582 0.184485
N1    N     N_R   0.499980 0.500020 0.683620 -0.313561
N2    N     N_R   0.500020 0.499980 0.316380 -0.312297
O1    O     O_R   0.499930 0.400180 0.561970 -0.563014
O2    O     O_R   0.500070 0.599820 0.438030 -0.495754
O3    O     O_R   0.500010 0.400190 0.438070 -0.529056
O4    O     O_R   0.499990 0.599810 0.561930 -0.560343
O5    O     O_R   0.274810 0.500000 0.547650 -0.507383
O6    O     O_R   0.725190 0.500000 0.452350 -0.512236
O7    O     O_R   0.274880 0.500000 0.423750 -0.559811
O8    O     O_R   0.725120 0.500000 0.576250 -0.551576
F1    F     F_    0.966769 0.507040 0.399275 -0.682223
F2    F     F_    0.033218 0.492112 0.600549 -0.648776
F3    F     F_    0.684673 0.590834 0.849371 -0.633891
F4    F     F_    0.326814 0.406837 0.150300 -0.632101
O9    O     O_3   0.692415 0.588321 0.695131 -0.550043
C41   C     C_3   0.849630 0.575365 0.720039 -0.077777
H3    H     H_    0.919289 0.597293 0.678852 0.178996
H4    H     H_    0.875084 0.519214 0.724784 0.192044
H5    H     H_    0.888255 0.601892 0.773646 0.198639
O10   O     O_3   0.315045 0.408656 0.303833 -0.514233
C42   C     C_3   0.157515 0.421867 0.280201 -0.094437
H6    H     H_    0.131753 0.478047 0.277778 0.131472
H7    H     H_    0.118210 0.397135 0.225617 0.192667
H8    H     H_    0.088889 0.398342 0.320937 0.207858
F5    F     F_    0.751193 0.451669 0.937116 -0.633019
F6    F     F_    0.249021 0.541215 0.061206 -0.656292
O11   O     O_3   0.764656 0.454503 0.094945 -0.585041
C43   C     C_3   0.905904 0.482536 0.078356 0.002180
H9    H     H_    0.895485 0.535897 0.055455 0.174932
H10   H     H_    0.956988 0.447897 0.039995 0.250181
H11   H     H_    0.988452 0.485113 0.130500 0.142447
O12   O     O_3   0.238792 0.541348 0.908922 -0.496893
C44   C     C_3   0.244046 0.613473 0.899556 -0.174562
H12   H     H_    0.344795 0.629747 0.872083 0.155679
H13   H     H_    0.246192 0.640911 0.953557 0.190004
H14   H     H_    0.138184 0.629199 0.862920 0.180705
O13   O     O_3   0.382743 0.710888 0.367916 -0.501998
C45   C     C_3   0.227729 0.688592 0.365123 -0.193380
H15   H     H_    0.207810 0.658277 0.415107 0.118615
H16   H     H_    0.198355 0.654342 0.316081 0.182027
H17   H     H_    0.148356 0.732940 0.357884 0.147641
O14   O     O_3   0.223836 0.291139 0.454229 -0.568392
C46   C     C_3   0.139567 0.299755 0.514288 -0.191940
H18   H     H_    0.099953 0.249279 0.534467 0.223403
H19   H     H_    0.035411 0.330283 0.494871 0.165760
H20   H     H_    0.207825 0.328819 0.560770 0.205565
O15   O     O_3   0.379890 0.852181 0.370144 -0.495613
C47   C     C_3   0.233440 0.881469 0.371341 -0.287282
H21   H     H_    0.244605 0.932397 0.399578 0.138816
H22   H     H_    0.152994 0.847288 0.397481 0.109944
H23   H     H_    0.180099 0.890435 0.313119 0.204389
O16   O     O_3   0.220255 0.147803 0.463431 -0.519220
C48   C     C_3   0.196706 0.129989 0.387419 -0.231446
H24   H     H_    0.269949 0.085775 0.376861 0.115391
H25   H     H_    0.217047 0.174392 0.350813 0.172758
H26   H     H_    0.074712 0.113066 0.372312 0.208793
F7    F     F_    0.595167 0.849178 0.630716 -0.620047
F8    F     F_    0.769093 0.153899 0.547378 -0.623787
O17   O     O_3   0.326172 0.931026 0.601666 -0.504297
C49   C     C_3   0.169380 0.926920 0.570905 -0.241988
H27   H     H_    0.153191 0.892866 0.521222 0.105743
H28   H     H_    0.120304 0.978701 0.556854 0.197103
H29   H     H_    0.103233 0.903559 0.612696 0.203777
O18   O     O_3   0.678140 0.071006 0.413757 -0.518296
C50   C     C_3   0.594704 0.081791 0.342634 -0.234758
H30   H     H_    0.511390 0.124208 0.344379 0.136010
H31   H     H_    0.534555 0.034086 0.318805 0.176924
H32   H     H_    0.677085 0.098105 0.304526 0.193318
O19   O     O_3   0.337543 0.074033 0.602464 -0.528281
C51   C     C_3   0.435794 0.083503 0.670221 -0.190876
H33   H     H_    0.540938 0.114071 0.662323 0.157173
H34   H     H_    0.468640 0.033228 0.697072 0.200312
H35   H     H_    0.373003 0.112878 0.708712 0.180772
O20   O     O_3   0.667194 0.928226 0.413134 -0.511768
C52   C     C_3   0.817743 0.919152 0.450539 -0.250140
H36   H     H_    0.816854 0.890445 0.503625 0.153221
H37   H     H_    0.879494 0.969506 0.461019 0.190055
H38   H     H_    0.883171 0.888112 0.414608 0.168577
F9    F     F_    0.304581 0.414450 0.669891 -0.603851
F10   F     F_    0.678507 0.591680 0.332092 -0.602170
O21   O     O_3   0.299477 0.410496 0.821478 -0.491431
C53   C     C_3   0.370340 0.345969 0.834507 -0.178995
H39   H     H_    0.394882 0.321994 0.781755 0.165166
H40   H     H_    0.289859 0.310924 0.859095 0.194053
H41   H     H_    0.478103 0.350394 0.874929 0.162208
O22   O     O_3   0.691507 0.594863 0.176233 -0.549469
C54   C     C_3   0.845238 0.598252 0.212525 -0.132151
H42   H     H_    0.887399 0.548002 0.236689 0.158018
H43   H     H_    0.857695 0.639079 0.255866 0.216044
H44   H     H_    0.921512 0.613541 0.171191 0.152699

loop_
_geom_bond_atom_site_label_1
_geom_bond_atom_site_label_2
_ccdc_geom_bond_type
C24   O6    A    
C38   C40   A    
C46   H18   S    
C9    N1    A    
C53   H39   S    
Cu1   Cu2   S    
C22   O12   S    
C54   H44   S    
C49   H28   S    
C51   H33   S    
C28   F2    S    
C54   H43   S    
C44   H12   S    
C29   O13   S    
C4    O18   S    
C12   O22   S    
C21   O11   S    
C41   H5    S    
C41   H4    S    
C11   O21   S    
C17   N1    A    
C10   F10   S    
C50   H31   S    
Cu2   O7    S    
C27   F1    S    
C44   H14   S    
C20   C25   A    
C24   O8    A    
C48   H24   S    
O18   C50   S    
C36   F8    S    
Cu2   N2    S    
C19   C26   A    
O20   C52   S    
C2    O4    A    
C1    C40   S    
C33   C35   A    
C2    C39   S    
C42   H7    S    
C10   N2    A    
C31   C33   A    
C23   C27   S    
C30   O14   S    
C52   H37   S    
O9    C41   S    
C15   F3    S    
C20   F6    S    
C43   H11   S    
C18   N2    A    
C49   H27   S    
C48   H25   S    
C23   O7    A    
C44   H13   S    
O12   C44   S    
C43   H10   S    
C3    C8    A    
C50   H32   S    
O15   C47   S    
C5    C7    A    
O14   C46   S    
C1    O1    A    
C6    C8    A    
C53   H41   S    
C4    C7    A    
C47   H23   S    
O13   C45   S    
C41   H3    S    
C32   C34   A    
C37   H1    S    
C38   H2    S    
C23   O5    A    
C42   H8    S    
O16   C48   S    
C29   C39   A    
C47   H22   S    
Cu1   O1    S    
C30   C40   A    
C16   C18   A    
Cu2   O2    S    
C9    C11   A    
C10   C12   A    
C17   O9    S    
C4    C6    A    
C32   O16   S    
C12   C14   A    
C45   H15   S    
C16   F4    S    
C45   H16   S    
C13   C15   A    
O21   C53   S    
C7    C34   S    
C14   C16   A    
C13   C26   S    
C19   F5    S    
C54   H42   S    
C3    C5    A    
Cu1   O4    S    
O17   C49   S    
C48   H26   S    
C35   C37   A    
O19   C51   S    
C52   H38   S    
C3    O17   S    
C15   C17   A    
C21   C25   A    
C53   H40   S    
C5    O19   S    
C24   C28   S    
C20   C22   A    
C43   H9    S    
C35   F7    S    
C51   H34   S    
C52   H36   S    
C45   H17   S    
C31   O15   S    
C2    O2    A    
O10   C42   S    
C36   C38   A    
O22   C54   S    
O11   C43   S    
C37   C39   A    
C50   H30   S    
C30   C32   A    
C11   C13   A    
C18   O10   S    
C47   H21   S    
C9    F9    S    
C6    O20   S    
C34   C36   A    
C8    C33   S    
C14   C25   S    
Cu1   O8    S    
C51   H35   S    
Cu2   O3    S    
C29   C31   A    
C42   H6    S    
C22   C26   A    
C46   H20   S    
C27   C28   D    
C46   H19   S    
Cu1   N1    S    
C1    O3    A    
Cu1   O5    S    
C49   H29   S    
Cu2   O6    S    
C19   C21   A    
