data_mof_unit_61196.cif
_audit_creation_date              2012-12-11T17:44:28-0500
_audit_creation_method            fapswitch 2.2
_symmetry_space_group_name_H-M    P1
_symmetry_Int_Tables_number       1
_space_group_crystal_system       triclinic
_cell_length_a                    8.172786
_cell_length_b                    12.653678
_cell_length_c                    14.873033
_cell_angle_alpha                 96.871926
_cell_angle_beta                  97.50096
_cell_angle_gamma                 98.463185
_cell_volume                      1493.14005886

loop_
_atom_site_label
_atom_site_type_symbol
_atom_type_description
_atom_site_fract_x
_atom_site_fract_y
_atom_site_fract_z
_atom_type_partial_charge
Ba1   Ba    Ba6+2 0.843760 0.550230 0.455610 1.641678
Ba2   Ba    Ba6+2 0.346080 0.449860 0.544400 1.637314
C1    C     C_3   0.519905 0.911933 0.184855 -0.410855
C2    C     C_R   0.110496 0.469128 0.207134 0.055528
C3    C     C_R   0.921664 0.474837 0.765933 -0.304394
C4    C     C_3   0.070720 0.772521 0.203143 0.364655
C5    C     C_R   0.822391 0.436407 0.827924 0.017802
C6    C     C_R   0.886479 0.446063 0.920558 -0.119872
C7    C     C_R   0.052529 0.497631 0.954188 -0.001128
C8    C     C_R   0.148579 0.545514 0.890953 -0.022184
C9    C     C_R   0.124697 0.505068 0.048721 0.005289
C10   C     C_R   0.291875 0.560217 0.078063 -0.023307
C11   C     C_R   0.379696 0.609556 0.015029 -0.106354
C12   C     C_3   0.583314 0.831034 0.242870 0.334362
C13   C     C_R   0.308263 0.604658 0.924419 -0.042997
C14   C     C_R   0.037752 0.457986 0.114994 -0.127097
C15   C     C_R   0.272836 0.523943 0.234051 -0.293386
C16   C     C_3   0.032697 0.800311 0.106663 -0.360123
C17   C     C_R   0.081727 0.532824 0.795800 0.040454
C18   C     C_R   0.772831 0.181061 0.535708 -0.273012
C19   C     C_R   0.420832 0.808630 0.462216 -0.284327
C20   C     C_R   0.389112 0.986870 0.429607 -0.105065
C21   C     C_R   0.323148 0.878671 0.424956 -0.012416
C22   C     C_R   0.580097 0.847534 0.511993 0.068190
C23   C     C_3   0.413103 0.284526 0.265113 0.304686
C24   C     C_R   0.646810 0.959398 0.521322 -0.062703
C25   C     C_R   0.550218 0.029082 0.477708 -0.060491
C26   C     C_R   0.615658 0.139860 0.485184 0.044543
C27   C     C_R   0.871757 0.113369 0.575184 -0.011660
C28   C     C_3   0.263485 0.780349 0.651390 0.282619
C29   C     C_R   0.807344 0.003857 0.571060 -0.095633
C30   C     C_3   0.277502 0.902025 0.670504 -0.338060
C31   C     C_3   0.930711 0.218468 0.346955 0.279940
C32   C     C_3   0.913460 0.096677 0.325885 -0.343917
C33   C     C_3   0.774857 0.698879 0.731607 0.309482
C34   C     C_3   0.369106 0.252024 0.161923 -0.384602
C35   C     C_3   0.810900 0.732731 0.834917 -0.388909
C36   C     C_3   0.126434 0.229787 0.797914 0.327100
C37   C     C_3   0.170561 0.205351 0.895080 -0.297096
C38   C     C_3   0.607701 0.171009 0.760588 0.398960
C39   C     C_3   0.656811 0.084876 0.817082 0.456304
C40   C     C_R   0.366304 0.566189 0.170562 -0.005241
F1    F     F_    0.782845 0.130612 0.888221 -0.722669
H1    H     H_    0.684954 0.873863 0.297658 0.077670
H2    H     H_    0.889300 0.677478 0.707226 0.011618
H3    H     H_    0.673308 0.627796 0.716284 0.064797
H4    H     H_    0.474290 0.975346 0.228632 0.104648
H5    H     H_    0.916214 0.801569 0.852385 0.134542
H6    H     H_    0.844967 0.664897 0.870007 0.054906
H7    H     H_    0.698131 0.757384 0.860121 0.123607
H8    H     H_    0.478287 0.796035 0.276323 -0.047945
H9    H     H_    0.415671 0.870086 0.131217 0.112305
H10   H     H_    0.300369 0.305896 0.292216 0.017661
H11   H     H_    0.514177 0.355983 0.278754 0.061994
H12   H     H_    0.377190 0.934184 0.729121 0.084620
H13   H     H_    0.264897 0.182406 0.146049 0.133080
H14   H     H_    0.329822 0.320435 0.129217 0.060255
H15   H     H_    0.479762 0.229105 0.133127 0.138274
H16   H     H_    0.621657 0.950111 0.150783 0.142136
H17   H     H_    0.059625 0.735590 0.056152 0.067012
H18   H     H_    0.206507 0.306298 0.790952 0.085620
H19   H     H_    0.993403 0.240344 0.787447 0.007418
H20   H     H_    0.306055 0.202020 0.910338 0.133469
H21   H     H_    0.139918 0.269466 0.944837 0.089325
H22   H     H_    0.098947 0.126391 0.903318 0.174076
H23   H     H_    0.309053 0.939061 0.609961 0.082214
H24   H     H_    0.718577 0.203781 0.730438 -0.111294
H25   H     H_    0.506803 0.133274 0.703471 -0.014133
H26   H     H_    0.701154 0.020887 0.773216 -0.029937
H27   H     H_    0.988021 0.696046 0.207584 0.094120
H28   H     H_    0.547723 0.048481 0.846712 0.029401
H29   H     H_    0.329394 0.529716 0.304773 0.074436
H30   H     H_    0.505383 0.653466 0.034732 0.104964
H31   H     H_    0.913876 0.411494 0.097529 0.098754
H32   H     H_    0.869718 0.465260 0.694145 0.072969
H33   H     H_    0.802516 0.413720 0.964277 0.096156
H34   H     H_    0.157029 0.923536 0.687321 0.141980
H35   H     H_    0.382375 0.647107 0.880922 0.102356
H36   H     H_    0.310087 0.037119 0.397456 0.100731
H37   H     H_    0.885758 0.954988 0.605364 0.104285
H38   H     H_    0.822688 0.265900 0.539756 0.062630
H39   H     H_    0.203093 0.760630 0.215058 -0.075279
H40   H     H_    0.368404 0.724099 0.457164 0.069996
H41   H     H_    0.898853 0.808208 0.090962 0.155441
H42   H     H_    0.111186 0.877718 0.100328 0.115838
H43   H     H_    0.382553 0.759820 0.633264 0.003448
H44   H     H_    0.161100 0.750393 0.593276 0.075757
H45   H     H_    0.814294 0.240025 0.367907 0.000065
H46   H     H_    0.035878 0.246969 0.403709 0.076919
H47   H     H_    0.809922 0.065890 0.268784 0.119498
H48   H     H_    0.886098 0.058845 0.386747 0.083132
H49   H     H_    0.031632 0.074505 0.306032 0.142288
O1    O     O_2   0.827930 0.435360 0.277760 -0.458389
O2    O     O_2   0.211021 0.118314 0.566500 -0.479159
O3    O     O_3   0.154196 0.144347 0.735221 -0.606144
O4    O     O_3   0.100310 0.439010 0.391180 -0.501442
O5    O     O_3   0.587770 0.631830 0.546230 -0.489815
O6    O     O_2   0.332600 0.233710 0.456170 -0.468002
O7    O     O_3   0.466099 0.197646 0.304510 -0.650287
O8    O     O_2   0.483836 0.445440 0.826244 -0.496844
O9    O     O_3   0.547364 0.249071 0.817195 -0.589423
O10   O     O_3   0.625610 0.634200 0.333270 -0.474889
O11   O     O_2   0.707896 0.556586 0.173719 -0.493683
O12   O     O_3   0.727450 0.785758 0.690615 -0.641636
O13   O     O_3   0.958205 0.262740 0.267529 -0.626824
O14   O     O_3   0.647974 0.754568 0.186801 -0.599371
O15   O     O_2   0.857120 0.766320 0.543890 -0.474304
O16   O     O_3   0.056570 0.691100 0.379020 -0.488842
O17   O     O_2   0.987031 0.882611 0.436322 -0.484758
O18   O     O_3   0.041327 0.856687 0.266560 -0.598969
O19   O     O_2   0.361790 0.564680 0.722290 -0.469024
O20   O     O_3   0.089410 0.561080 0.608830 -0.498942
O21   O     O_3   0.564100 0.365890 0.666740 -0.473834
O22   O     O_3   0.232325 0.737452 0.730971 -0.638908
O23   O     O_3   0.601940 0.368260 0.453780 -0.478795
O24   O     O_3   0.133140 0.308990 0.620990 -0.487474
P1    P     P_3+3 0.998770 0.403620 0.291990 0.986572
P2    P     P_3+3 0.687370 0.751000 0.571300 0.969993
P3    P     P_3+3 0.102870 0.829054 0.377449 0.948907
P4    P     P_3+3 0.190950 0.596470 0.708020 0.969151
P5    P     P_3+3 0.091095 0.169945 0.623808 0.948983
P6    P     P_3+3 0.586782 0.625485 0.214419 0.952313
P7    P     P_3+3 0.507297 0.233097 0.423662 0.934329
P8    P     P_3+3 0.604385 0.376391 0.785575 0.980282

loop_
_geom_bond_atom_site_label_1
_geom_bond_atom_site_label_2
_ccdc_geom_bond_type
C2    C14   A    
C4    H39   S    
C4    O18   S    
C5    P8    S    
Ba1   O16   S    
C26   P7    S    
C5    C6    A    
C37   H21   S    
Ba2   O20   S    
C24   C25   A    
C14   H31   S    
C12   H1    S    
C33   C35   S    
C31   H45   S    
C22   C24   A    
C20   H36   S    
C34   H15   S    
C8    C13   A    
Ba1   O20   S    
C21   P3    S    
C36   C37   S    
Ba2   O21   S    
C13   H35   S    
C6    H33   S    
Ba1   Ba2   S    
Ba2   O23   S    
C1    H4    S    
O5    P2    S    
C32   H48   S    
C10   C40   A    
C38   O9    S    
C15   C40   A    
Ba2   O24   S    
C23   O7    S    
C19   H40   S    
Ba2   O5    S    
C6    C7    A    
C38   H24   S    
C27   P5    S    
C36   O3    S    
C16   H41   S    
C3    C5    A    
C28   H43   S    
C7    C8    A    
C30   H12   S    
C39   H28   S    
C36   H18   S    
O3    P5    S    
C30   H34   S    
C24   C29   A    
C18   H38   S    
C39   F1    S    
O16   P3    S    
O13   P1    S    
O1    P1    D    
O12   P2    S    
C18   C27   A    
O6    P7    D    
C4    C16   S    
Ba2   O19   S    
O9    P8    S    
O23   P7    S    
O24   P5    S    
C16   H42   S    
O4    P1    S    
C29   H37   S    
C31   O13   S    
C23   H11   S    
C34   H14   S    
Ba1   O5    S    
O20   P4    S    
Ba2   P4    S    
C18   C26   A    
O19   P4    D    
O8    P8    D    
C3    H32   S    
C32   H47   S    
C34   H13   S    
C31   H46   S    
C35   H6    S    
C9    C14   A    
C12   H8    S    
C8    C17   A    
C9    C10   A    
O14   P6    S    
C31   C32   S    
C40   P6    S    
Ba1   P1    S    
C35   H5    S    
C7    C9    A    
C1    C12   S    
Ba1   O15   S    
C2    C15   A    
C16   H17   S    
C38   C39   S    
C11   H30   S    
C17   P4    S    
C33   O12   S    
C20   C25   A    
C19   C21   A    
C2    P1    S    
C33   H2    S    
O17   P3    D    
C30   H23   S    
C28   O22   S    
O7    P7    S    
C4    H27   S    
O15   P2    D    
C39   H26   S    
C23   H10   S    
O18   P3    S    
C1    H9    S    
C3    C17   A    
C37   H20   S    
C37   H22   S    
C22   P2    S    
C11   C13   A    
C27   C29   A    
C28   C30   S    
C35   H7    S    
O11   P6    D    
O21   P8    S    
Ba1   O4    S    
Ba2   O4    S    
Ba1   P2    S    
C32   H49   S    
C23   C34   S    
O2    P5    D    
C12   O14   S    
C10   C11   A    
Ba2   O6    S    
C15   H29   S    
Ba1   O1    S    
C38   H25   S    
C19   C22   A    
C25   C26   A    
C20   C21   A    
Ba1   O23   S    
C28   H44   S    
O10   P6    S    
C33   H3    S    
Ba1   O10   S    
O22   P4    S    
C36   H19   S    
C1    H16   S    
