data_mof_unit_58981.cif
_audit_creation_date              2012-12-11T14:17:35-0500
_audit_creation_method            fapswitch 2.2
_symmetry_space_group_name_H-M    P1
_symmetry_Int_Tables_number       1
_space_group_crystal_system       triclinic
_cell_length_a                    6.9458
_cell_length_b                    13.654541
_cell_length_c                    20.391332
_cell_angle_alpha                 102.166178
_cell_angle_beta                  89.096484
_cell_angle_gamma                 91.129575
_cell_volume                      1890.01238869

loop_
_atom_site_label
_atom_site_type_symbol
_atom_type_description
_atom_site_fract_x
_atom_site_fract_y
_atom_site_fract_z
_atom_type_partial_charge
O1    O     O_R   0.506860 0.599390 0.449240 -0.541337
O2    O     O_R   0.180220 0.594600 0.586780 -0.506811
O3    O     O_R   0.004500 0.400610 0.550760 -0.535068
C1    C     C_R   0.347365 0.615065 0.614060 0.780963
O4    O     O_R   0.177490 0.611290 0.451970 -0.543977
O5    O     O_R   0.001750 0.417420 0.414990 -0.542673
C2    C     C_R   0.348291 0.637989 0.435340 0.686744
O6    O     O_R   0.509610 0.582580 0.585010 -0.550422
O7    O     O_3   0.337420 0.436370 0.488020 -0.378942
V1    V     V_3+5 0.064680 0.511800 0.502220 1.467617
O8    O     O_R   0.671710 0.405400 0.413220 -0.548306
C3    C     C_R   0.840337 0.384094 0.386549 0.732811
O9    O     O_R   0.674440 0.388710 0.548030 -0.545344
C4    C     C_R   0.841096 0.361488 0.564483 0.706565
V2    V     V_3+5 0.564010 0.488200 0.497780 1.418219
O10   O     O_3   0.841140 0.563630 0.511980 -0.365622
C5    C     C_R   0.731587 0.118224 0.615873 -0.158705
H1    H     H_    0.713403 0.170795 0.524328 0.105137
H2    H     H_    0.678457 0.998812 0.701680 0.122884
H3    H     H_    0.668562 0.045823 0.593606 0.110554
C6    C     C_R   0.840009 0.282636 0.603365 -0.040200
C7    C     C_R   0.950231 0.308687 0.924035 -0.159466
C8    C     C_R   0.995643 0.379043 0.885841 -0.117556
C9    C     C_R   0.970469 0.356084 0.816695 -0.167194
C10   C     C_R   0.891501 0.262409 0.783956 0.078261
C11   C     C_R   0.844558 0.190407 0.823607 0.070122
C12   C     C_R   0.857940 0.237785 0.713310 0.068724
C13   C     C_R   0.777127 0.142271 0.684251 0.146657
C14   C     C_R   0.738172 0.072094 0.723758 -0.205930
C15   C     C_R   0.771721 0.095479 0.792233 -0.205415
C16   C     C_R   0.895135 0.305757 0.670643 -0.224717
C17   C     C_R   0.758532 0.188814 0.576172 -0.169312
C18   C     C_R   0.876863 0.214119 0.893752 -0.081074
H4    H     H_    0.957976 0.378970 0.688548 0.121866
H5    H     H_    0.979146 0.326755 0.977350 0.103147
H6    H     H_    0.017208 0.412963 0.790416 0.115080
H7    H     H_    0.056028 0.451207 0.909796 0.116229
H8    H     H_    0.737460 0.038508 0.820469 0.127668
C19   C     C_2   0.006079 0.288896 0.284369 -0.136062
C20   C     C_2   0.843158 0.315663 0.319827 -0.308737
H9    H     H_    0.143473 0.317611 0.305677 0.133005
H10   H     H_    0.704408 0.287387 0.300104 0.126823
C21   C     C_2   0.013316 0.220736 0.216736 -0.131215
C22   C     C_2   0.857667 0.183298 0.180416 -0.310355
H11   H     H_    0.156043 0.201531 0.196065 0.133301
H12   H     H_    0.713516 0.201681 0.199363 0.125454
C23   C     C_2   0.206341 0.787570 0.784226 -0.264683
C24   C     C_2   0.364192 0.810653 0.821788 -0.361358
H13   H     H_    0.074999 0.827249 0.801379 0.135443
H14   H     H_    0.497101 0.771750 0.806226 0.127372
C25   C     C_2   0.198713 0.703631 0.722812 0.464655
C26   C     C_2   0.352380 0.687534 0.679776 -0.383077
H15   H     H_    0.483660 0.731887 0.691209 0.100457
C27   C     C_R   0.444022 0.883940 0.385784 -0.157478
H16   H     H_    0.442845 0.833462 0.478538 0.102341
H17   H     H_    0.485885 0.006799 0.301691 0.122207
H18   H     H_    0.485657 0.959738 0.409923 0.110552
C28   C     C_R   0.364296 0.714610 0.395171 -0.028998
C29   C     C_R   0.297969 0.687847 0.072508 -0.167038
C30   C     C_R   0.272056 0.613124 0.108789 -0.117712
C31   C     C_R   0.294013 0.634649 0.178176 -0.156824
C32   C     C_R   0.343550 0.732692 0.213360 0.076951
C33   C     C_R   0.372759 0.808703 0.175603 0.067302
C34   C     C_R   0.364874 0.757866 0.284594 0.071227
C35   C     C_R   0.418004 0.857677 0.316090 0.142423
C36   C     C_R   0.445916 0.930566 0.277942 -0.203222
C37   C     C_R   0.423047 0.906772 0.208913 -0.196376
C38   C     C_R   0.336368 0.687462 0.325903 -0.215186
C39   C     C_R   0.419063 0.812516 0.424979 -0.172820
C40   C     C_R   0.348797 0.785226 0.105108 -0.074212
H19   H     H_    0.295636 0.610522 0.306001 0.094485
H20   H     H_    0.277738 0.669779 0.018680 0.100513
H21   H     H_    0.271062 0.572667 0.202558 0.107123
H22   H     H_    0.233335 0.537806 0.082961 0.115960
H23   H     H_    0.445895 0.966273 0.181815 0.120991
O11   O     O_R   0.203230 0.917310 0.915020 -0.537375
O12   O     O_R   0.535500 0.888690 0.048040 -0.541061
O13   O     O_R   0.711080 0.082610 0.085000 -0.544729
C41   C     C_R   0.364777 0.862277 0.064930 0.687847
O14   O     O_R   0.532630 0.905370 0.913230 -0.552039
O15   O     O_R   0.708190 0.099410 0.949230 -0.541157
C42   C     C_R   0.365161 0.883929 0.886558 0.770834
O16   O     O_R   0.206120 0.900510 0.050790 -0.538500
O17   O     O_3   0.375360 0.063570 0.011990 -0.372968
V3    V     V_3+5 0.648170 0.988200 0.997780 1.405652
O18   O     O_R   0.038240 0.111390 0.951940 -0.540111
C43   C     C_R   0.872189 0.136905 0.934196 0.687583
O19   O     O_R   0.041120 0.094710 0.086750 -0.541528
C44   C     C_R   0.871947 0.115722 0.113530 0.746088
V4    V     V_3+5 0.148810 0.011930 0.002180 1.420231
O20   O     O_3   0.871750 0.936430 0.988010 -0.372764
O21   O     O_3   0.036457 0.640593 0.707312 -0.543524
C45   C     C_3   0.886383 0.660199 0.755684 0.088408
H24   H     H_    0.817069 0.731974 0.753087 0.110407
H25   H     H_    0.939567 0.662449 0.807246 0.121885
C46   C     C_3   0.734320 0.577070 0.740715 -0.719402
H26   H     H_    0.699562 0.560005 0.686647 0.243358
H27   H     H_    0.786989 0.508446 0.754532 0.201547
H28   H     H_    0.601615 0.599811 0.770589 0.176909

loop_
_geom_bond_atom_site_label_1
_geom_bond_atom_site_label_2
_ccdc_geom_bond_type
C45   H24   S    
C1    O6    A    
O14   V3    S    
V3    O20   S    
C19   H9    S    
C27   C35   A    
C7    H5    S    
C6    C16   A    
C9    H6    S    
C1    C26   S    
C34   C38   A    
C4    C6    S    
C13   C14   A    
O5    C3    A    
V2    O10   S    
C46   H28   S    
C5    H3    S    
C15   H8    S    
C30   H22   S    
O16   V4    S    
C32   C34   A    
O8    V2    S    
C46   H27   S    
C8    C9    A    
O1    V2    S    
C14   C15   A    
O7    V1    S    
C2    C28   S    
C29   H20   S    
C20   H10   S    
C36   C37   A    
O12   V3    S    
C29   C30   A    
C45   H25   S    
O9    C4    A    
O17   V4    S    
C22   H12   S    
O12   C41   A    
O13   C44   A    
C6    C17   A    
C33   C37   A    
C12   C16   A    
C25   C26   D    
C9    C10   A    
C23   H13   S    
O18   V4    S    
O11   C42   A    
C19   C20   D    
O4    C2    A    
O18   C43   A    
C23   C25   S    
O6    V2    S    
C31   H21   S    
C10   C11   A    
C8    H7    S    
C30   C31   A    
C3    C20   S    
O2    C1    A    
C21   C22   D    
C32   C33   A    
C25   O21   S    
C11   C18   A    
C23   C24   D    
C33   C40   A    
C46   H26   S    
C16   H4    S    
H16   C39   S    
O17   V3    S    
C21   H11   S    
O15   C43   A    
O3    C4    A    
O13   V3    S    
C28   C38   A    
O19   V4    S    
C11   C15   A    
C45   C46   S    
O9    V2    S    
C37   H23   S    
O2    V1    S    
C26   H15   S    
C7    C18   A    
C40   C41   S    
O1    C2    A    
C5    C13   A    
O5    V1    S    
C19   C21   S    
O8    C3    A    
C28   C39   A    
C10   C12   A    
C34   C35   A    
O7    V2    S    
O4    V1    S    
O3    V1    S    
V1    O10   S    
C41   O16   A    
V4    O20   S    
C27   C39   A    
C38   H19   S    
H17   C36   S    
C24   H14   S    
O21   C45   S    
O14   C42   A    
C24   C42   S    
C18   C43   S    
C31   C32   A    
C29   C40   A    
H1    C17   S    
O19   C44   A    
C35   C36   A    
C12   C13   A    
C5    C17   A    
C7    C8    A    
O15   V3    S    
C22   C44   S    
O11   V4    S    
C27   H18   S    
H2    C14   S    
