data_mof_unit_39750.cif
_audit_creation_date              2012-12-11T15:17:40-0500
_audit_creation_method            fapswitch 2.2
_symmetry_space_group_name_H-M    P1
_symmetry_Int_Tables_number       1
_space_group_crystal_system       triclinic
_cell_length_a                    15.680618
_cell_length_b                    15.680607
_cell_length_c                    34.353406
_cell_angle_alpha                 90.021569
_cell_angle_beta                  90.021558
_cell_angle_gamma                 119.484091
_cell_volume                      7352.93463811

loop_
_atom_site_label
_atom_site_type_symbol
_atom_type_description
_atom_site_fract_x
_atom_site_fract_y
_atom_site_fract_z
_atom_type_partial_charge
C1    C     C_R   0.578391 0.441715 0.554888 0.555962
C2    C     C_R   0.558588 0.136711 0.554978 0.557373
C3    C     C_R   0.862775 0.421356 0.555176 0.567589
C4    C     C_R   0.441715 0.578392 0.054888 0.555962
C5    C     C_R   0.136711 0.558588 0.054978 0.557375
C6    C     C_R   0.421356 0.862775 0.055175 0.567591
C7    C     C_R   0.967306 0.500806 0.714062 0.333152
C8    C     C_R   0.493061 0.484252 0.710627 0.329397
C9    C     C_R   0.469023 0.933795 0.700161 0.334333
C10   C     C_R   0.500818 0.967327 0.214059 0.333151
C11   C     C_R   0.484248 0.493064 0.210628 0.329397
C12   C     C_R   0.933813 0.469039 0.200164 0.334324
C13   C     C_R   0.023502 0.443773 0.849162 -0.036256
C14   C     C_R   0.558636 0.579926 0.849692 -0.036823
C15   C     C_R   0.334973 0.818621 0.834691 -0.039388
C16   C     C_R   0.443783 0.023519 0.349159 -0.036255
C17   C     C_R   0.579917 0.558640 0.349694 -0.036816
C18   C     C_R   0.818665 0.334981 0.334693 -0.039387
C19   C     C_R   0.061267 0.455943 0.886823 -0.105066
C20   C     C_R   0.548206 0.600626 0.888411 -0.105760
C21   C     C_R   0.325095 0.805762 0.875075 -0.112074
C22   C     C_R   0.455949 0.061277 0.386821 -0.105067
C23   C     C_R   0.600619 0.548209 0.388412 -0.105759
C24   C     C_R   0.805801 0.325101 0.375077 -0.112065
C25   C     C_R   0.046427 0.601202 0.895734 -0.120745
C26   C     C_R   0.387754 0.456365 0.891537 -0.103017
C27   C     C_R   0.494731 0.846432 0.880591 -0.097290
C28   C     C_R   0.601209 0.046438 0.395732 -0.120733
C29   C     C_R   0.456366 0.387752 0.391537 -0.103016
C30   C     C_R   0.846374 0.494711 0.380589 -0.097300
C31   C     C_R   0.006071 0.588964 0.858495 0.137663
C32   C     C_R   0.396748 0.433816 0.853063 0.155813
C33   C     C_R   0.506663 0.860910 0.840419 0.154141
C34   C     C_R   0.588974 0.006088 0.358492 0.137673
C35   C     C_R   0.433814 0.396746 0.353063 0.155812
C36   C     C_R   0.860853 0.506644 0.340416 0.154146
C37   C     C_R   0.998333 0.512777 0.834311 0.063011
C38   C     C_R   0.480568 0.497327 0.831330 0.062208
C39   C     C_R   0.427519 0.849770 0.817169 0.062648
C40   C     C_R   0.512789 0.998352 0.334308 0.063023
C41   C     C_R   0.497322 0.480570 0.331331 0.062211
C42   C     C_R   0.849766 0.427516 0.317169 0.062659
C43   C     C_R   0.077230 0.536709 0.909561 -0.023464
C44   C     C_R   0.461389 0.541918 0.908851 -0.022649
C45   C     C_R   0.405093 0.822340 0.898308 -0.023120
C46   C     C_R   0.536713 0.077236 0.409560 -0.023456
C47   C     C_R   0.541916 0.461389 0.408852 -0.022649
C48   C     C_R   0.822333 0.405088 0.398307 -0.023128
C49   C     C_R   0.578178 0.442115 0.445375 0.544028
C50   C     C_R   0.557934 0.135787 0.445374 0.544287
C51   C     C_R   0.808988 0.391864 0.440724 0.567007
C52   C     C_R   0.442115 0.578178 0.945375 0.544030
C53   C     C_R   0.135786 0.557934 0.945374 0.544284
C54   C     C_R   0.391865 0.808990 0.940724 0.567002
C55   C     C_R   0.914358 0.454066 0.592653 0.009980
C56   C     C_R   0.543513 0.463860 0.591142 0.010262
C57   C     C_R   0.532623 0.070985 0.588848 0.009294
C58   C     C_R   0.454070 0.914364 0.092651 0.009981
C59   C     C_R   0.463860 0.543515 0.091143 0.010263
C60   C     C_R   0.070986 0.532623 0.088849 0.009293
C61   C     C_R   0.936877 0.391432 0.613965 -0.107191
C62   C     C_R   0.603893 0.551435 0.611062 -0.106111
C63   C     C_R   0.435521 0.022012 0.602246 -0.100703
C64   C     C_R   0.391438 0.936888 0.113963 -0.107188
C65   C     C_R   0.551433 0.603897 0.111064 -0.106110
C66   C     C_R   0.022035 0.435526 0.102253 -0.100701
C67   C     C_R   0.962469 0.409393 0.653333 -0.000643
C68   C     C_R   0.584014 0.563894 0.649634 -0.001415
C69   C     C_R   0.411366 0.970742 0.637521 -0.001167
C70   C     C_R   0.409402 0.962486 0.153330 -0.000641
C71   C     C_R   0.563890 0.584019 0.149635 -0.001414
C72   C     C_R   0.970770 0.411375 0.137529 -0.001167
C73   C     C_R   0.964222 0.491170 0.671613 0.057933
C74   C     C_R   0.502036 0.486916 0.668343 0.059556
C75   C     C_R   0.486268 0.968647 0.659741 0.054590
C76   C     C_R   0.491181 0.964241 0.171610 0.057935
C77   C     C_R   0.486913 0.502040 0.168344 0.059559
C78   C     C_R   0.968657 0.486276 0.159744 0.054597
C79   C     C_R   0.951717 0.558907 0.649290 -0.126877
C80   C     C_R   0.436171 0.404190 0.647150 -0.122238
C81   C     C_R   0.581699 0.010967 0.644768 -0.122423
C82   C     C_R   0.558916 0.951732 0.149287 -0.126877
C83   C     C_R   0.404189 0.436173 0.147150 -0.122239
C84   C     C_R   0.010954 0.581699 0.144764 -0.122423
C85   C     C_R   0.926826 0.540500 0.610070 -0.134678
C86   C     C_R   0.456849 0.392503 0.608741 -0.132868
C87   C     C_R   0.604871 0.062045 0.609603 -0.135766
C88   C     C_R   0.540505 0.926835 0.110068 -0.134677
C89   C     C_R   0.392503 0.456849 0.108742 -0.132868
C90   C     C_R   0.062028 0.604868 0.109598 -0.135764
C91   C     C_R   0.977963 0.512775 0.792580 0.378003
C92   C     C_R   0.481654 0.484271 0.789050 0.371946
C93   C     C_R   0.442653 0.878277 0.775807 0.370352
C94   C     C_R   0.512787 0.977985 0.292577 0.378007
C95   C     C_R   0.484266 0.481656 0.289051 0.371947
C96   C     C_R   0.878284 0.442660 0.275808 0.370353
Cr1   Cr    Cr6+3 0.522350 0.263930 0.500020 1.022361
Cr2   Cr    Cr6+3 0.736070 0.258420 0.500020 1.026011
Cr3   Cr    Cr6+3 0.741580 0.477650 0.500020 1.026688
Cr4   Cr    Cr6+3 0.263930 0.522350 0.000020 1.022362
Cr5   Cr    Cr6+3 0.258420 0.736070 0.000020 1.026016
Cr6   Cr    Cr6+3 0.477650 0.741580 0.000020 1.026689
H1    H     H_    0.929630 0.325553 0.600586 0.133058
H2    H     H_    0.669820 0.608187 0.597421 0.133890
H3    H     H_    0.378840 0.026494 0.585817 0.133354
H4    H     H_    0.325559 0.929640 0.100584 0.133059
H5    H     H_    0.608183 0.669825 0.097423 0.133890
H6    H     H_    0.026531 0.378846 0.085829 0.133356
H7    H     H_    0.910671 0.590496 0.594158 0.132028
H8    H     H_    0.408562 0.324730 0.593806 0.134657
H9    H     H_    0.680169 0.098549 0.599676 0.131497
H10   H     H_    0.590499 0.910676 0.094157 0.132029
H11   H     H_    0.324732 0.408561 0.093806 0.134654
H12   H     H_    0.098515 0.680161 0.099667 0.131497
H13   H     H_    0.084042 0.405231 0.897517 0.153314
H14   H     H_    0.605748 0.666353 0.901887 0.152862
H15   H     H_    0.254631 0.782920 0.888584 0.139698
H16   H     H_    0.405235 0.084050 0.397515 0.153313
H17   H     H_    0.666344 0.605753 0.401888 0.152860
H18   H     H_    0.782995 0.254646 0.388587 0.139714
H19   H     H_    0.954114 0.622448 0.662862 0.133389
H20   H     H_    0.372850 0.345096 0.661256 0.136811
H21   H     H_    0.639663 0.009618 0.661462 0.138248
H22   H     H_    0.622457 0.954130 0.162859 0.133386
H23   H     H_    0.345095 0.372851 0.161256 0.136807
H24   H     H_    0.009590 0.639661 0.161454 0.138234
H25   H     H_    0.056546 0.662860 0.913313 0.155498
H26   H     H_    0.320719 0.409502 0.907164 0.159312
H27   H     H_    0.556616 0.856573 0.898017 0.165554
H28   H     H_    0.662865 0.056554 0.413311 0.155490
H29   H     H_    0.409505 0.320714 0.407163 0.159312
H30   H     H_    0.856476 0.556585 0.398013 0.165550
N1    N     N_R   0.910173 0.429544 0.774885 -0.214327
N2    N     N_R   0.561543 0.489956 0.771424 -0.217323
N3    N     N_R   0.414201 0.941600 0.762367 -0.216548
N4    N     N_R   0.429558 0.910193 0.274882 -0.214334
N5    N     N_R   0.489947 0.561544 0.271425 -0.217329
N6    N     N_R   0.941666 0.414277 0.262377 -0.216543
N7    N     N_R   0.904699 0.423798 0.736291 -0.211810
N8    N     N_R   0.567124 0.489906 0.732854 -0.207848
N9    N     N_R   0.427083 0.968785 0.725284 -0.215821
N10   N     N_R   0.423811 0.904718 0.236288 -0.211812
N11   N     N_R   0.489897 0.567124 0.232855 -0.207849
N12   N     N_R   0.968856 0.427163 0.225294 -0.215812
N13   N     N_R   0.032409 0.585579 0.731657 -0.224000
N14   N     N_R   0.411793 0.475714 0.728090 -0.210371
N15   N     N_R   0.499438 0.871736 0.713598 -0.215334
N16   N     N_R   0.585590 0.032432 0.231654 -0.224001
N17   N     N_R   0.475714 0.411798 0.228091 -0.210363
N18   N     N_R   0.871695 0.499387 0.213594 -0.215325
N19   N     N_R   0.038168 0.591102 0.770324 -0.202616
N20   N     N_R   0.406632 0.476599 0.766740 -0.168902
N21   N     N_R   0.485859 0.843899 0.750805 -0.166943
N22   N     N_R   0.591113 0.038192 0.270320 -0.202605
N23   N     N_R   0.476599 0.406636 0.266740 -0.168889
N24   N     N_R   0.843853 0.485804 0.250800 -0.166944
O1    O     O_R   0.498680 0.159540 0.541860 -0.515952
O2    O     O_R   0.840460 0.339140 0.541860 -0.512880
O3    O     O_R   0.660860 0.501320 0.541860 -0.518369
O4    O     O_R   0.159540 0.498680 0.041860 -0.515954
O5    O     O_R   0.339140 0.840460 0.041860 -0.512880
O6    O     O_R   0.501320 0.660860 0.041860 -0.518369
O7    O     O_R   0.532760 0.358060 0.540030 -0.499447
O8    O     O_R   0.641940 0.174700 0.540030 -0.501880
O9    O     O_R   0.825300 0.467240 0.540030 -0.496550
O10   O     O_R   0.358060 0.532760 0.040030 -0.499448
O11   O     O_R   0.174700 0.641940 0.040030 -0.501880
O12   O     O_R   0.467240 0.825300 0.040030 -0.496551
O13   O     O_R   0.498590 0.161190 0.456930 -0.515156
O14   O     O_R   0.838810 0.337400 0.456930 -0.495629
O15   O     O_R   0.662600 0.501410 0.456930 -0.527107
O16   O     O_R   0.161190 0.498590 0.956930 -0.515154
O17   O     O_R   0.337400 0.838810 0.956930 -0.495615
O18   O     O_R   0.501410 0.662600 0.956930 -0.527099
O19   O     O_R   0.532680 0.359580 0.461300 -0.504081
O20   O     O_R   0.640420 0.173100 0.461300 -0.523984
O21   O     O_R   0.826900 0.467320 0.461300 -0.495012
O22   O     O_R   0.359580 0.532680 0.961300 -0.504080
O23   O     O_R   0.173100 0.640420 0.961300 -0.523985
O24   O     O_R   0.467320 0.826900 0.961300 -0.495020
O25   O     O_3   0.666667 0.333333 0.499990 -0.271539
O26   O     O_3   0.333333 0.666667 0.999990 -0.271539
C97   C     C_3   0.985006 0.338768 0.674667 -0.376156
H31   H     H_    0.018759 0.366652 0.703583 0.161078
H32   H     H_    0.916653 0.267657 0.678435 0.150833
H33   H     H_    0.038054 0.326495 0.657522 0.132757
C98   C     C_3   0.653462 0.658262 0.669938 -0.373296
H34   H     H_    0.626295 0.665449 0.698877 0.168351
H35   H     H_    0.725828 0.662562 0.673638 0.147830
H36   H     H_    0.662986 0.721367 0.652065 0.134811
C99   C     C_3   0.306147 0.919648 0.650918 -0.380017
H37   H     H_    0.283084 0.842756 0.659033 0.150518
H38   H     H_    0.297536 0.958455 0.676308 0.173503
H39   H     H_    0.256068 0.917871 0.627655 0.122407
C100  C     C_3   0.338780 0.985027 0.174664 -0.376156
H40   H     H_    0.366665 0.018781 0.203579 0.161078
H41   H     H_    0.326508 0.038074 0.157518 0.132758
H42   H     H_    0.267668 0.916675 0.178433 0.150831
C101  C     C_3   0.658256 0.653469 0.169941 -0.373292
H43   H     H_    0.665443 0.626302 0.198879 0.168359
H44   H     H_    0.721363 0.662997 0.152068 0.134811
H45   H     H_    0.662552 0.725833 0.173640 0.147829
C102  C     C_3   0.919704 0.306162 0.150935 -0.380023
H46   H     H_    0.842807 0.283082 0.159049 0.150519
H47   H     H_    0.917942 0.256079 0.127677 0.122410
H48   H     H_    0.958521 0.297579 0.176328 0.173496
C103  C     C_3   0.017672 0.361047 0.824656 -0.357154
H49   H     H_    0.047166 0.319005 0.840211 0.159954
H50   H     H_    0.940169 0.309090 0.817210 0.177462
H51   H     H_    0.061091 0.390561 0.797582 0.161345
C104  C     C_3   0.650053 0.651013 0.828011 -0.339153
H52   H     H_    0.699239 0.715154 0.846238 0.166099
H53   H     H_    0.691967 0.614151 0.819218 0.191095
H54   H     H_    0.630210 0.679105 0.801853 0.176090
C105  C     C_3   0.245736 0.797200 0.810920 -0.351133
H55   H     H_    0.178036 0.760436 0.828620 0.173924
H56   H     H_    0.251849 0.866214 0.799610 0.186229
H57   H     H_    0.237702 0.747843 0.786313 0.166150
C106  C     C_3   0.361059 0.017693 0.324653 -0.357158
H58   H     H_    0.319017 0.047185 0.340207 0.159957
H59   H     H_    0.390576 0.061116 0.297579 0.161351
H60   H     H_    0.309102 0.940191 0.317205 0.177451
C107  C     C_3   0.650997 0.650062 0.328015 -0.339137
H61   H     H_    0.715136 0.699252 0.346242 0.166112
H62   H     H_    0.679092 0.630227 0.301855 0.176124
H63   H     H_    0.614128 0.691971 0.319223 0.191086
C108  C     C_3   0.797301 0.245756 0.310924 -0.351156
H64   H     H_    0.760573 0.178056 0.328625 0.173949
H65   H     H_    0.747931 0.237686 0.286317 0.166167
H66   H     H_    0.866335 0.251917 0.299615 0.186204
Br1   Br    Br    0.963518 0.678750 0.841592 -0.501453
Br2   Br    Br    0.290711 0.316625 0.831271 -0.468143
Br3   Br    Br    0.634865 0.902546 0.819570 -0.485549
Br4   Br    Br    0.678757 0.963531 0.341589 -0.501489
Br5   Br    Br    0.316627 0.290706 0.331271 -0.468164
Br6   Br    Br    0.902418 0.634828 0.319563 -0.485605

loop_
_geom_bond_atom_site_label_1
_geom_bond_atom_site_label_2
_ccdc_geom_bond_type
C25   C31   A    
C7    N7    A    
C102  H46   S    
C32   Br2   S    
C26   C32   A    
Cr1   O19   S    
Cr3   O3    S    
Cr4   O16   S    
Cr6   O24   S    
C6    C58   S    
C36   C42   A    
C107  H61   S    
C79   C85   A    
Cr2   O14   S    
C105  H55   S    
Cr4   O22   S    
C69   C99   S    
Cr6   O12   S    
C107  H63   S    
C26   C44   A    
C7    C73   S    
C80   H20   S    
C27   C33   A    
C7    N13   A    
C79   H19   S    
C28   C46   A    
C33   C39   A    
N16   N22   A    
C14   C104  S    
C29   C47   A    
C18   C24   A    
C54   O17   A    
C30   C48   A    
C61   H1    S    
C1    C56   S    
Cr3   O21   S    
C85   H7    S    
C18   C42   A    
N2    N8    A    
C98   H35   S    
C82   C88   A    
C87   H9    S    
C77   C83   A    
C68   C74   A    
C22   C46   A    
C101  H45   S    
C38   C92   S    
C50   O20   A    
Cr1   O13   S    
C16   C106  S    
Cr4   O10   S    
C59   C89   A    
Cr5   O11   S    
Cr4   O4    S    
C36   Br6   S    
C39   C93   S    
C98   H36   S    
C80   C86   A    
C11   C77   S    
C53   O16   A    
C10   C76   S    
C11   N17   A    
C48   C51   S    
C66   C72   A    
C63   C69   A    
C68   C98   S    
C19   C43   A    
C70   C100  S    
Cr1   O7    S    
C31   Br1   S    
C92   N20   A    
C103  H51   S    
N4    N10   A    
C13   C103  S    
C57   C87   A    
C10   N10   A    
C67   C73   A    
C32   C38   A    
C63   H3    S    
Cr4   O26   S    
C13   C37   A    
C105  H56   S    
Cr6   O6    S    
C100  H42   S    
C66   H6    S    
C44   C52   S    
C90   H12   S    
N5    N11   A    
C28   C34   A    
C101  H43   S    
N18   N24   A    
C84   H24   S    
C25   C43   A    
C84   C90   A    
C83   H23   S    
C30   C36   A    
C53   O23   A    
C82   H22   S    
C20   C44   A    
C43   C53   S    
C46   C50   S    
C57   C63   A    
C21   C45   A    
C71   C101  S    
C58   C64   A    
C83   C89   A    
C102  H48   S    
C89   H11   S    
C24   H18   S    
C17   C41   A    
C95   N5    A    
Cr5   O17   S    
C37   C91   S    
C103  H49   S    
Cr6   O26   S    
C12   N18   A    
C1    O3    A    
C23   C47   A    
C8    N14   A    
C15   C105  S    
C97   H33   S    
C76   C82   A    
C106  H58   S    
C20   H14   S    
C9    N9    A    
C75   C81   A    
C96   N6    A    
C26   H26   S    
C65   C71   A    
C9    N15   A    
C62   H2    S    
C12   N12   A    
C31   C37   A    
Cr1   O1    S    
C55   C85   A    
C12   C78   S    
C97   H31   S    
C99   H38   S    
C104  H52   S    
C17   C107  S    
C14   C20   A    
Cr5   O23   S    
C3    O2    A    
C97   H32   S    
C102  H47   S    
C61   C67   A    
C24   C48   A    
C56   C86   A    
C108  H64   S    
C91   N1    A    
C6    O5    A    
C19   H13   S    
C94   N22   A    
C5    O4    A    
C104  H54   S    
C8    C74   S    
C73   C79   A    
C29   H29   S    
C54   O24   A    
C17   C23   A    
C64   H4    S    
C15   C39   A    
N13   N19   A    
C35   C41   A    
C67   C97   S    
C16   C40   A    
C72   C102  S    
N14   N20   A    
C4    O6    A    
C108  H65   S    
C81   H21   S    
C45   C54   S    
N1    N7    A    
C64   C70   A    
C70   C76   A    
C27   H27   S    
C42   C96   S    
C105  H57   S    
C35   Br5   S    
C96   N24   A    
C2    O8    A    
C14   C38   A    
C34   Br4   S    
C52   O18   A    
C101  H44   S    
C71   C77   A    
C33   Br3   S    
C3    O9    A    
C49   O15   A    
C2    C57   S    
C99   H37   S    
C104  H53   S    
C6    O12   A    
C22   H16   S    
C16   C22   A    
C5    C60   S    
C86   H8    S    
Cr2   O20   S    
C51   O14   A    
C92   N2    A    
C40   C94   S    
C93   N3    A    
C58   C88   A    
Cr2   O8    S    
C107  H62   S    
Cr1   O25   S    
C60   C90   A    
Cr6   O18   S    
C29   C35   A    
C3    C55   S    
C62   C68   A    
C8    N8    A    
Cr2   O25   S    
C93   N21   A    
N17   N23   A    
C99   H39   S    
C98   H34   S    
C56   C62   A    
C47   C49   S    
C59   C65   A    
C106  H60   S    
C91   N19   A    
C81   C87   A    
C28   H28   S    
C27   C45   A    
C41   C95   S    
C15   C21   A    
C2    O1    A    
C30   H30   S    
C55   C61   A    
C4    C59   S    
Cr5   O5    S    
C4    O10   A    
C69   C75   A    
C50   O13   A    
C95   N23   A    
C106  H59   S    
C5    O11   A    
C25   H25   S    
N15   N21   A    
C52   O22   A    
C78   C84   A    
Cr3   O25   S    
C21   H15   S    
C18   C108  S    
C60   C66   A    
C100  H40   S    
C88   H10   S    
Cr2   O2    S    
N3    N9    A    
C108  H66   S    
Cr3   O15   S    
C23   H17   S    
C1    O7    A    
C74   C80   A    
C72   C78   A    
C103  H50   S    
C13   C19   A    
C34   C40   A    
C94   N4    A    
N6    N12   A    
C9    C75   S    
C100  H41   S    
C51   O21   A    
C11   N11   A    
C65   H5    S    
Cr5   O26   S    
C10   N16   A    
Cr3   O9    S    
C49   O19   A    
