data_mof_unit_15842.cif
_audit_creation_date              2012-12-10T18:16:18-0500
_audit_creation_method            fapswitch 2.2
_symmetry_space_group_name_H-M    P1
_symmetry_Int_Tables_number       1
_space_group_crystal_system       triclinic
_cell_length_a                    12.780934
_cell_length_b                    12.897065
_cell_length_c                    27.625977
_cell_angle_alpha                 93.555659
_cell_angle_beta                  104.156174
_cell_angle_gamma                 81.109831
_cell_volume                      4361.04403799

loop_
_atom_site_label
_atom_site_type_symbol
_atom_type_description
_atom_site_fract_x
_atom_site_fract_y
_atom_site_fract_z
_atom_type_partial_charge
C1    C     C_R   0.438271 0.692080 0.494689 0.917829
C2    C     C_R   0.620922 0.478029 0.734067 0.419530
C3    C     C_R   0.523953 0.497158 0.750321 0.272585
C4    C     C_R   0.543633 0.498245 0.904093 -0.157682
C5    C     C_R   0.534004 0.594020 0.879942 -0.117038
C6    C     C_R   0.536199 0.688964 0.908163 0.376221
C7    C     C_R   0.555739 0.401470 0.877415 -0.077688
C8    C     C_R   0.512738 0.496308 0.648056 -0.080546
C9    C     C_R   0.489883 0.499825 0.352359 -0.093744
C10   C     C_R   0.503554 0.598091 0.029072 0.053079
C11   C     C_R   0.518819 0.405842 0.025240 0.051725
C12   C     C_R   0.503621 0.498684 0.594089 0.885710
C13   C     C_R   0.502226 0.502552 0.051297 0.064853
C14   C     C_R   0.470739 0.692793 0.053188 -0.255627
C15   C     C_R   0.455680 0.695218 0.101749 0.474144
C16   C     C_R   0.465721 0.599980 0.125960 -0.072358
C17   C     C_R   0.482014 0.503665 0.099556 -0.176320
C18   C     C_R   0.477982 0.408349 0.121389 0.004140
C19   C     C_R   0.472000 0.410695 0.171564 0.510689
C20   C     C_R   0.459243 0.597476 0.175909 0.542059
C21   C     C_R   0.577245 0.502185 0.283945 0.136100
C22   C     C_R   0.583980 0.501149 0.334935 -0.178242
C23   C     C_R   0.561892 0.308203 0.507559 0.916569
C24   C     C_R   0.388561 0.499344 0.318158 -0.199518
C25   C     C_R   0.381345 0.500916 0.267216 -0.106719
C26   C     C_R   0.475102 0.502590 0.250039 0.266752
C27   C     C_R   0.526865 0.596391 0.981293 -0.000000
C28   C     C_R   0.538541 0.499405 0.954669 -0.015667
C29   C     C_R   0.546855 0.403457 0.978566 0.004623
C30   C     C_R   0.544741 0.687438 0.960043 0.292781
C31   C     C_R   0.583607 0.306891 0.904193 0.124300
C32   C     C_R   0.495893 0.315522 0.044336 -0.296148
C33   C     C_R   0.479358 0.314741 0.092260 0.148290
C34   C     C_R   0.497195 0.499645 0.406005 0.892629
C35   C     C_R   0.586279 0.309073 0.955098 0.100035
C36   C     C_R   0.674278 0.081694 0.591605 0.075941
C37   C     C_R   0.601460 0.199082 0.521763 -0.355134
C38   C     C_R   0.306026 0.837318 0.450686 0.380763
C39   C     C_R   0.271107 0.945987 0.443866 -0.091923
C40   C     C_R   0.341286 0.017291 0.468833 0.487990
C41   C     C_R   0.439215 0.979409 0.503639 0.037548
C42   C     C_R   0.450994 0.878009 0.521851 -0.128218
C43   C     C_R   0.523109 0.041009 0.523119 0.047472
C44   C     C_R   0.596857 0.015374 0.569579 -0.055471
C45   C     C_R   0.525919 0.591189 0.828239 0.637115
C46   C     C_R   0.590480 0.924648 0.593417 -0.134260
C47   C     C_R   0.519198 0.855252 0.570056 0.128213
C48   C     C_R   0.538704 0.124088 0.496377 0.426901
C49   C     C_R   0.675641 0.174879 0.568243 0.351672
C50   C     C_R   0.395131 0.803845 0.490625 -0.195041
C51   C     C_R   0.086589 0.357571 0.422108 0.018368
C52   C     C_R   0.802085 0.622594 0.564468 -0.116057
C53   C     C_R   0.909461 0.640512 0.583306 0.413469
C54   C     C_R   0.989224 0.591366 0.559775 -0.189942
C55   C     C_R   0.963281 0.529097 0.515694 -0.133870
C56   C     C_R   0.544987 0.403998 0.825503 0.583257
C57   C     C_R   0.854648 0.504827 0.501070 0.173907
C58   C     C_R   0.042250 0.482989 0.488233 -0.063917
C59   C     C_R   0.011660 0.409265 0.448606 0.111062
C60   C     C_R   0.907412 0.384646 0.436292 -0.334386
C61   C     C_R   0.831418 0.426148 0.462984 0.430549
C62   C     C_R   0.150574 0.506106 0.496707 0.224423
C63   C     C_R   0.193925 0.373348 0.437698 -0.026268
C64   C     C_R   0.422370 0.515133 0.716393 0.074789
C65   C     C_R   0.417199 0.514775 0.665484 -0.305391
C66   C     C_R   0.615681 0.476292 0.682290 -0.039813
H1    H     H_    0.487583 0.244523 0.021933 0.148647
H2    H     H_    0.314756 0.498591 0.330698 0.175304
H3    H     H_    0.302995 0.500929 0.240994 0.149736
H4    H     H_    0.641274 0.906423 0.630304 0.180170
H5    H     H_    0.254483 0.333508 0.418954 0.157904
H6    H     H_    0.885496 0.326585 0.406964 0.182631
H7    H     H_    0.738985 0.658296 0.582528 0.126774
H8    H     H_    0.071205 0.599718 0.578723 0.161832
H9    H     H_    0.662919 0.500885 0.360753 0.180690
H10   H     H_    0.451717 0.766188 0.034082 0.202496
H11   H     H_    0.338092 0.529943 0.639661 0.170998
N1    N     N_R   0.529667 0.497595 0.802598 -0.328033
N2    N     N_R   0.466872 0.503753 0.197674 -0.378209
N3    N     N_R   0.222180 0.444690 0.474320 -0.105812
N4    N     N_R   0.776980 0.554780 0.525420 -0.119149
O1    O     O_R   0.366730 0.627160 0.487740 -0.541457
O2    O     O_2   0.448317 0.687169 0.203245 -0.467405
O3    O     O_2   0.548195 0.314686 0.797498 -0.573029
O4    O     O_2   0.474487 0.321126 0.194865 -0.518291
O5    O     O_R   0.544830 0.662520 0.504140 -0.626033
O6    O     O_R   0.410970 0.482310 0.563040 -0.627492
O7    O     O_R   0.589070 0.517670 0.579450 -0.606265
O8    O     O_R   0.455170 0.337480 0.495860 -0.575816
O9    O     O_R   0.633270 0.372840 0.512260 -0.540519
O10   O     O_R   0.410930 0.482330 0.420550 -0.618852
O11   O     O_R   0.589030 0.517690 0.436960 -0.560870
O12   O     O_2   0.514235 0.680629 0.803325 -0.472116
Zn1   Zn    Zn3+2 0.381080 0.476390 0.489050 1.001238
Zn2   Zn    Zn3+2 0.618920 0.523610 0.510950 0.989359
N5    N     N_3   0.712904 0.451337 0.664109 -0.399498
H12   H     H_    0.752976 0.377649 0.676896 0.227801
H13   H     H_    0.763627 0.508305 0.677486 0.184248
N6    N     N_3   0.324522 0.533856 0.734031 -0.435283
H14   H     H_    0.282467 0.607086 0.721507 0.217158
H15   H     H_    0.275863 0.476889 0.717683 0.203977
N7    N     N_3   0.617306 0.207597 0.882010 -0.414467
H16   H     H_    0.550995 0.183860 0.855704 0.240919
H17   H     H_    0.681238 0.214316 0.865479 0.241310
N8    N     N_3   0.461566 0.218632 0.110311 -0.368631
H18   H     H_    0.529105 0.162027 0.109273 0.196339
H19   H     H_    0.393291 0.193471 0.085922 0.188529
N9    N     N_3   0.646012 0.219055 0.983005 -0.432725
H20   H     H_    0.596983 0.159760 0.978704 0.192658
H21   H     H_    0.675921 0.238148 0.020654 0.201396
O13   O     O_3   0.746692 0.241801 0.592897 -0.768690
H22   H     H_    0.774467 0.273396 0.567680 0.367555
N10   N     N_3   0.749436 0.056028 0.638545 -0.440946
H23   H     H_    0.737376 0.116879 0.664316 0.235177
H24   H     H_    0.828642 0.051846 0.633743 0.225274
O14   O     O_3   0.717817 0.460931 0.770181 -0.754701
H25   H     H_    0.780805 0.452221 0.754818 0.334617
O15   O     O_3   0.494013 0.129766 0.445433 -0.727204
H26   H     H_    0.525386 0.183188 0.431291 0.324303
O16   O     O_3   0.255951 0.762849 0.419012 -0.743759
H27   H     H_    0.227041 0.792797 0.385380 0.342211
O17   O     O_3   0.310199 0.124360 0.464475 -0.728872
H28   H     H_    0.259784 0.138308 0.431481 0.341086
N11   N     N_3   0.165652 0.984904 0.412926 -0.465692
H29   H     H_    0.116960 0.925369 0.403253 0.213620
H30   H     H_    0.124724 0.037113 0.434967 0.196942
N12   N     N_3   0.506036 0.772595 0.599572 -0.448245
H31   H     H_    0.567888 0.710281 0.598595 0.198262
H32   H     H_    0.430035 0.747449 0.586353 0.175755
N13   N     N_3   0.053498 0.290533 0.379396 -0.462993
H33   H     H_    0.075717 0.318365 0.349130 0.198068
H34   H     H_    0.095629 0.215047 0.386760 0.190899
N14   N     N_3   0.184265 0.601255 0.520514 -0.397068
H35   H     H_    0.220356 0.589732 0.558317 0.170200
H36   H     H_    0.120574 0.663963 0.513894 0.189107
O18   O     O_3   0.532333 0.781966 0.885017 -0.694308
H37   H     H_    0.501887 0.841004 0.904559 0.338595
O19   O     O_3   0.939606 0.703047 0.625259 -0.759190
H38   H     H_    0.873704 0.731791 0.637351 0.329563
O20   O     O_3   0.739018 0.380638 0.454654 -0.728896
H39   H     H_    0.734336 0.327790 0.426797 0.308886
N15   N     N_3   0.674790 0.502133 0.267184 -0.455663
H40   H     H_    0.665745 0.569498 0.246523 0.210220
H41   H     H_    0.683699 0.436625 0.243503 0.198008
O21   O     O_3   0.428324 0.789795 0.125290 -0.686106
H42   H     H_    0.426514 0.848604 0.103478 0.331130
O22   O     O_3   0.581393 0.769431 0.990983 -0.786692
H43   H     H_    0.623530 0.808240 0.974431 0.356291

loop_
_geom_bond_atom_site_label_1
_geom_bond_atom_site_label_2
_ccdc_geom_bond_type
C10   C27   A    
C58   C62   A    
C21   C26   A    
C8    C66   A    
O1    Zn1   S    
C41   C42   A    
C54   C55   A    
O22   H43   S    
C45   O12   S    
O21   H42   S    
O19   H38   S    
C30   O22   S    
C53   C54   A    
O14   H25   S    
N8    H19   S    
C57   C61   A    
C22   H9    S    
C62   N14   S    
C62   N3    A    
C28   C29   A    
C7    C31   A    
C21   N15   S    
N11   H30   S    
C38   C39   A    
N4    Zn2   S    
C9    C22   A    
C60   H6    S    
C15   C16   A    
O6    Zn1   S    
C56   N1    A    
N9    H20   S    
C18   C19   A    
O8    Zn1   S    
C34   O10   A    
C6    O18   S    
C35   N9    S    
C54   H8    S    
C2    O14   S    
C64   N6    S    
O13   H22   S    
C16   C17   A    
N5    H13   S    
C23   O8    A    
C45   N1    A    
C43   C48   A    
C20   N2    A    
C8    C12   S    
C49   O13   S    
C38   O16   S    
O7    Zn2   S    
C59   C60   A    
C21   C22   A    
O15   H26   S    
C27   C30   A    
C41   C43   A    
N7    H16   S    
C7    C56   A    
C4    C7    A    
C36   N10   S    
C4    C28   A    
C51   N13   S    
C44   C46   A    
C56   O3    S    
C34   O11   A    
C63   N3    A    
C65   H11   S    
C12   O7    A    
C53   O19   S    
C31   N7    S    
O9    Zn2   S    
C33   N8    S    
O20   H39   S    
C52   H7    S    
C10   C14   A    
C39   C40   A    
C15   O21   S    
O18   H37   S    
C48   O15   S    
C19   O4    S    
C1    O1    A    
C23   C37   S    
C5    C45   A    
O11   Zn2   S    
C39   N11   S    
C60   C61   A    
C14   H10   S    
N13   H34   S    
C43   C44   A    
N12   H32   S    
C37   C49   A    
N6    H14   S    
C16   C20   A    
N5    H12   S    
C17   C18   A    
C23   O9    A    
C51   C63   A    
C9    C24   A    
C52   C53   A    
C24   C25   A    
C37   C48   A    
C19   N2    A    
C42   C50   A    
C32   H1    S    
C40   C41   A    
N6    H15   S    
C63   H5    S    
C11   C32   A    
C55   C57   A    
N14   H35   S    
C31   C35   A    
C36   C44   A    
C51   C59   A    
C18   C33   A    
N3    Zn1   S    
N12   H31   S    
O16   H27   S    
C66   N5    S    
N10   H23   S    
C1    C50   S    
C1    O5    A    
C46   C47   A    
C12   O6    A    
C6    C30   A    
C14   C15   A    
C4    C5    A    
C2    C66   A    
C10   C13   A    
C20   O2    S    
C61   O20   S    
C47   N12   S    
C38   C50   A    
C13   C17   A    
C40   O17   S    
N8    H18   S    
C29   C35   A    
C26   N2    S    
N7    H17   S    
C64   C65   A    
N13   H33   S    
C25   C26   A    
C32   C33   A    
O10   Zn1   S    
C11   C13   A    
C5    C6    A    
N9    H21   S    
C9    C34   S    
C2    C3    A    
N15   H41   S    
C42   C47   A    
C3    C64   A    
C52   N4    A    
C57   N4    A    
C58   C59   A    
C46   H4    S    
O5    Zn2   S    
C24   H2    S    
C8    C65   A    
C25   H3    S    
C11   C29   A    
C55   C58   A    
C27   C28   A    
N14   H36   S    
N15   H40   S    
O17   H28   S    
C3    N1    S    
C36   C49   A    
N11   H29   S    
N10   H24   S    
