data_mof_unit_46203.cif
_audit_creation_date              2012-10-26T20:31:20-0400
_audit_creation_method            fapswitch 2.2
_symmetry_space_group_name_H-M    P1
_symmetry_Int_Tables_number       1
_space_group_crystal_system       triclinic
_cell_length_a                    11.724475
_cell_length_b                    10.959279
_cell_length_c                    9.660815
_cell_angle_alpha                 92.163078
_cell_angle_beta                  89.633668
_cell_angle_gamma                 91.289628
_cell_volume                      1240.11761692

loop_
_atom_site_label
_atom_site_type_symbol
_atom_type_description
_atom_site_fract_x
_atom_site_fract_y
_atom_site_fract_z
_atom_type_partial_charge
C1    C     C_R   0.493190 0.262803 0.497231 0.554353
C2    C     C_R   0.404515 0.471897 0.074390 -0.019647
C3    C     C_R   0.403647 0.469501 0.926178 0.379439
C4    C     C_R   0.284284 0.499631 0.500374 0.503306
C5    C     C_R   0.598522 0.516690 0.926856 0.046791
C6    C     C_3   0.678324 0.623590 0.926284 -0.258529
C7    C     C_3   0.685669 0.617409 0.084984 0.482378
C8    C     C_R   0.493250 0.737182 0.501897 0.527258
C9    C     C_R   0.715720 0.500071 0.499889 0.536717
C10   C     C_1   0.162466 0.499089 0.501462 -0.069848
C11   C     C_1   0.059968 0.498637 0.502856 -0.080598
C12   C     C_R   0.476766 0.129631 0.492019 -0.054481
C13   C     C_1   0.940018 0.498717 0.502690 -0.060958
C14   C     C_1   0.837539 0.499301 0.500717 -0.020029
C15   C     C_R   0.474613 0.068421 0.613671 -0.137432
C16   C     C_3   0.306530 0.096249 0.219177 0.027463
C17   C     C_3   0.259352 0.208441 0.157246 -0.372081
C18   C     C_3   0.868235 0.660702 0.173623 0.018347
C19   C     C_3   0.985147 0.606260 0.186575 -0.398686
C20   C     C_3   0.663572 0.833113 0.122918 0.012006
C21   C     C_3   0.710053 0.917591 0.239546 -0.376022
C22   C     C_3   0.295225 0.806130 0.293547 0.022863
C23   C     C_R   0.449505 0.057963 0.370868 0.250275
C24   C     C_3   0.256828 0.725314 0.171141 -0.346871
C25   C     C_3   0.322601 0.805785 0.802654 0.015476
C26   C     C_3   0.195217 0.817998 0.834093 -0.424168
C27   C     C_3   0.684405 0.961591 0.777192 -0.056830
C28   C     C_3   0.763118 0.861895 0.722271 -0.390735
C29   C     C_3   0.263263 0.108052 0.746231 0.041765
C30   C     C_3   0.214980 0.197925 0.646023 -0.365646
C31   C     C_3   0.208260 0.482801 0.890766 -0.038023
C32   C     C_3   0.120193 0.398650 0.957465 -0.416583
C33   C     C_R   0.441728 0.927560 0.377709 0.236854
C34   C     C_R   0.471788 0.869404 0.501934 -0.089051
C35   C     C_R   0.472456 0.944726 0.620711 -0.096883
C36   C     C_3   0.477322 0.952579 0.777810 0.552365
C37   C     C_3   0.470280 0.094243 0.765218 0.255181
C38   C     C_R   0.599118 0.515198 0.072576 0.238155
Cu1   Cu    Cu3+1 0.499990 0.499980 0.640670 0.983276
Cu2   Cu    Cu3+1 0.500010 0.500020 0.359330 1.027779
H1    H     H_    0.633264 0.702603 0.887368 0.174412
H2    H     H_    0.035215 0.660889 0.264834 0.099245
H3    H     H_    0.978313 0.510267 0.218881 0.189481
H4    H     H_    0.581118 0.869085 0.088783 0.250363
H5    H     H_    0.724830 0.837523 0.035437 0.104866
H6    H     H_    0.670572 0.895331 0.340202 0.172679
H7    H     H_    0.803738 0.908730 0.248502 0.088063
H8    H     H_    0.692313 0.013999 0.217256 0.135977
H9    H     H_    0.230182 0.876487 0.314691 0.069900
H10   H     H_    0.296040 0.749351 0.386217 0.126406
H11   H     H_    0.326620 0.715062 0.093902 0.192909
H12   H     H_    0.252492 0.078529 0.312248 0.079624
H13   H     H_    0.231112 0.633485 0.205929 0.114907
H14   H     H_    0.182266 0.765415 0.121863 0.083549
H15   H     H_    0.355804 0.724330 0.852291 0.164429
H16   H     H_    0.328234 0.791123 0.689504 0.123529
H17   H     H_    0.152060 0.863794 0.749030 0.100986
H18   H     H_    0.153058 0.727407 0.842848 0.091907
H19   H     H_    0.181476 0.873314 0.930947 0.162944
H20   H     H_    0.728775 0.014922 0.861624 0.135138
H21   H     H_    0.673631 0.024415 0.691464 0.104097
H22   H     H_    0.715448 0.795337 0.653796 0.178801
H23   H     H_    0.296747 0.019886 0.140935 0.207878
H24   H     H_    0.833798 0.903258 0.661503 0.094203
H25   H     H_    0.801634 0.814149 0.808870 0.119022
H26   H     H_    0.199129 0.093885 0.829433 0.136229
H27   H     H_    0.270202 0.020309 0.687388 0.129438
H28   H     H_    0.130792 0.162768 0.608206 0.063765
H29   H     H_    0.270940 0.208508 0.554811 0.141688
H30   H     H_    0.202215 0.288314 0.696033 0.213063
H31   H     H_    0.545923 0.147080 0.804760 0.116301
H32   H     H_    0.327378 0.450341 0.129532 0.116806
H33   H     H_    0.171179 0.513119 0.793030 0.163793
H34   H     H_    0.310916 0.233551 0.065656 0.226721
H35   H     H_    0.220997 0.566136 0.957755 0.077075
H36   H     H_    0.132541 0.400276 0.071106 0.121540
H37   H     H_    0.032874 0.430406 0.936811 0.126783
H38   H     H_    0.126318 0.303580 0.915469 0.163627
H39   H     H_    0.759589 0.601596 0.872004 0.121838
H40   H     H_    0.169980 0.188761 0.124705 0.074778
H41   H     H_    0.259827 0.284107 0.236823 0.151206
H42   H     H_    0.842469 0.698688 0.277214 0.172733
H43   H     H_    0.876365 0.734167 0.097761 0.105590
H44   H     H_    0.029990 0.608696 0.085407 0.119310
N1    N     N_R   0.500710 0.500930 0.147930 -0.255377
N2    N     N_R   0.500710 0.500890 0.852020 -0.235393
O1    O     O_R   0.500000 0.319640 0.618810 -0.469350
O2    O     O_3   0.789345 0.568483 0.130436 -0.556377
O3    O     O_3   0.642455 0.714347 0.171768 -0.516324
O4    O     O_3   0.403599 0.859534 0.263179 -0.518618
O5    O     O_3   0.381588 0.911161 0.856566 -0.530777
O6    O     O_3   0.581619 0.909574 0.832133 -0.580298
O7    O     O_3   0.366731 0.151925 0.810348 -0.506369
O8    O     O_3   0.309682 0.419644 0.857196 -0.510708
O9    O     O_R   0.500010 0.319680 0.381230 -0.459766
O10   O     O_R   0.337190 0.499990 0.618790 -0.465477
O11   O     O_R   0.337200 0.500030 0.381210 -0.538741
O12   O     O_R   0.499990 0.680320 0.618770 -0.520248
O13   O     O_R   0.500000 0.680360 0.381190 -0.404779
O14   O     O_R   0.662800 0.499970 0.618790 -0.516471
O15   O     O_R   0.662810 0.500010 0.381210 -0.447263
O16   O     O_3   0.423669 0.115422 0.250003 -0.514204

loop_
_geom_bond_atom_site_label_1
_geom_bond_atom_site_label_2
_ccdc_geom_bond_type
C1    O1    A    
C35   C36   S    
C25   H16   S    
Cu1   O1    S    
Cu2   O13   S    
C6    H39   S    
C12   C23   A    
C36   C37   S    
C8    O13   A    
C18   C19   S    
C27   H20   S    
C5    C6    S    
C31   H33   S    
C23   O16   S    
C24   H14   S    
C7    O3    S    
C2    N1    A    
C34   C35   A    
C8    O12   A    
C15   C37   S    
C27   H21   S    
C20   H4    S    
C32   H37   S    
C29   H27   S    
C31   C32   S    
C16   C17   S    
C23   C33   A    
C6    H1    S    
C16   H23   S    
C26   H19   S    
C20   H5    S    
C19   H2    S    
C22   H10   S    
C21   H8    S    
C36   O6    S    
C24   H11   S    
Cu2   O15   S    
C4    O10   A    
C13   C14   T    
C3    N2    A    
C1    C12   S    
C2    H32   S    
C15   C35   A    
C30   H30   S    
C19   H3    S    
C18   H43   S    
C25   O5    S    
C38   N1    A    
C16   H12   S    
Cu2   O11   S    
Cu1   O12   S    
C24   H13   S    
C17   H40   S    
C18   O2    S    
Cu2   N1    S    
C9    C14   S    
C29   C30   S    
C4    O11   A    
C31   H35   S    
C7    O2    S    
C12   C15   A    
C1    O9    A    
C33   C34   A    
C22   O4    S    
C37   O7    S    
C27   O6    S    
C8    C34   S    
C26   H18   S    
C22   H9    S    
C5    N2    A    
C28   H24   S    
C36   O5    S    
C16   O16   S    
C9    O14   A    
C37   H31   S    
C17   H34   S    
C22   C24   S    
Cu2   O9    S    
C4    C10   S    
C19   H44   S    
Cu1   Cu2   S    
C30   H29   S    
C21   H6    S    
C25   H15   S    
C32   H36   S    
C6    C7    S    
C31   O8    S    
C20   O3    S    
C28   H25   S    
C25   C26   S    
C33   O4    S    
C29   O7    S    
C11   C13   S    
Cu1   O14   S    
C18   H42   S    
C7    C38   S    
C2    C3    A    
C3    O8    S    
C17   H41   S    
C26   H17   S    
Cu1   O10   S    
C10   C11   T    
C32   H38   S    
C29   H26   S    
C20   C21   S    
C9    O15   A    
C27   C28   S    
Cu1   N2    S    
C5    C38   A    
C30   H28   S    
C21   H7    S    
C28   H22   S    
