data_mof_unit_48900.cif
_audit_creation_date              2013-03-05T15:53:16-0500
_audit_creation_method            fapswitch 2.2
_symmetry_space_group_name_H-M    P1
_symmetry_Int_Tables_number       1
_space_group_crystal_system       triclinic
_cell_length_a                    11.528171
_cell_length_b                    10.622732
_cell_length_c                    9.945537
_cell_angle_alpha                 92.567186
_cell_angle_beta                  90.150725
_cell_angle_gamma                 92.543937
_cell_volume                      1215.50268011

loop_
_atom_site_label
_atom_site_type_symbol
_atom_site_description
_atom_site_fract_x
_atom_site_fract_y
_atom_site_fract_z
_atom_type_partial_charge
O1    O     O_R   0.500000 0.316780 0.614690 -0.622165
O2    O     O_R   0.499990 0.316750 0.385360 -0.644251
C1    C     C_R   0.496942 0.260466 0.496718 0.827510
O3    O     O_R   0.334450 0.500030 0.614670 -0.623338
O4    O     O_R   0.334440 0.500000 0.385330 -0.635049
C2    C     C_R   0.282097 0.499102 0.499804 0.875540
Zn1   Zn    Zn3+2 0.500010 0.500020 0.653130 1.008885
Zn2   Zn    Zn3+2 0.499990 0.499980 0.346870 1.001104
O5    O     O_R   0.500010 0.683250 0.614640 -0.569598
O6    O     O_R   0.500000 0.683220 0.385310 -0.575706
O7    O     O_R   0.665560 0.500000 0.614670 -0.576789
O8    O     O_R   0.665550 0.499970 0.385330 -0.589365
C3    C     C_R   0.508219 0.740001 0.503478 0.887459
C4    C     C_R   0.717796 0.498524 0.499904 0.917586
C5    C     C_1   0.161471 0.496242 0.499329 -0.137037
C6    C     C_1   0.059139 0.494069 0.499056 0.032293
C7    C     C_1   0.940381 0.493193 0.499016 0.048814
C8    C     C_1   0.838192 0.494616 0.499332 -0.075700
H1    H     H_    0.317172 0.100332 0.487519 0.165118
C9    C     C_R   0.716746 0.144853 0.468836 -0.197793
H2    H     H_    0.716065 0.240877 0.437611 0.142920
C10   C     C_R   0.823470 0.091302 0.483794 -0.139826
H3    H     H_    0.901823 0.147520 0.464138 0.166646
C11   C     C_R   0.829474 0.971137 0.534714 0.140233
C12   C     C_R   0.724957 0.900826 0.561332 0.278419
C13   C     C_R   0.616920 0.947201 0.520379 -0.031017
C14   C     C_R   0.612822 0.074333 0.490870 0.081016
C15   C     C_R   0.503925 0.128333 0.488236 -0.041790
C16   C     C_R   0.400335 0.056749 0.491611 -0.184160
H4    H     H_    0.323668 0.871196 0.493602 0.146496
C17   C     C_R   0.404072 0.928337 0.498194 -0.143743
C18   C     C_R   0.510898 0.873911 0.512869 -0.040909
C19   C     C_R   0.345868 0.335839 0.132397 -0.174699
H5    H     H_    0.344737 0.327953 0.238837 0.212840
C20   C     C_R   0.267612 0.256066 0.059422 -0.249830
H6    H     H_    0.209725 0.193230 0.113306 0.196600
C21   C     C_R   0.264286 0.256499 0.919296 0.334333
C22   C     C_R   0.341922 0.337944 0.853339 -0.202006
H7    H     H_    0.338589 0.332829 0.746560 0.227057
C23   C     C_R   0.421876 0.420739 0.924313 0.102365
C24   C     C_R   0.422882 0.420082 0.068503 0.104725
N1    N     N_R   0.498930 0.498800 0.142780 -0.172330
C25   C     C_R   0.576631 0.573901 0.074798 0.343848
H8    H     H_    0.642109 0.628268 0.881293 0.235414
C26   C     C_R   0.577263 0.572003 0.931972 -0.105768
N2    N     N_R   0.498900 0.498720 0.857170 -0.135488
N3    N     N_R   0.183015 0.173691 0.843823 0.220578
O9    O     O_R   0.113802 0.095052 0.905059 -0.365173
O10   O     O_R   0.176395 0.177040 0.713360 -0.447889
C27   C     C_3   0.947238 0.924334 0.568065 -0.680840
H9    H     H_    0.018553 0.990946 0.537937 0.229361
H10   H     H_    0.955081 0.913620 0.678218 0.292559
H11   H     H_    0.959777 0.832510 0.513429 0.241848
N4    N     N_R   0.724802 0.807997 0.661759 0.189456
O11   O     O_R   0.661609 0.826424 0.768400 -0.370118
O12   O     O_R   0.805782 0.726979 0.665456 -0.424105
N5    N     N_R   0.659939 0.653880 0.147332 0.231574
O13   O     O_R   0.766658 0.619837 0.154745 -0.368914
O14   O     O_R   0.637704 0.771493 0.172747 -0.357198

loop_
_geom_bond_atom_site_label_1
_geom_bond_atom_site_label_2
_geom_bond_distance
_ccdc_geom_bond_type
C7    C8    1.178830 T    
O4    Zn2   1.947438 S    
C27   H10   1.110351 S    
C13   C18   1.419660 A    
C21   C22   1.401797 A    
C9    C14   1.407457 A    
C21   N3    1.441874 S    
C24   N1    1.374667 A    
C4    C8    1.390433 S    
C3    C18   1.420325 S    
N3    O9    1.301666 A    
O8    C4    1.288504 A    
Zn2   O8    1.945573 S    
C19   C24   1.405792 A    
C9    H2    1.079829 S    
C19   H5    1.065720 S    
C13   C14   1.397596 A    
C16   C17   1.371152 A    
O1    Zn1   1.966818 S    
C26   N2    1.362980 A    
C11   C12   1.420989 A    
C23   N2    1.381285 A    
C2    C5    1.389565 S    
C25   C26   1.419770 A    
N5    O13   1.300464 A    
C22   H7    1.061438 S    
C12   N4    1.434605 S    
O3    Zn1   1.945576 S    
O4    C2    1.290144 A    
N3    O10   1.301731 A    
C15   C16   1.388298 A    
C22   C23   1.410804 A    
C9    C10   1.388606 A    
Zn1   O7    1.947435 S    
C10   C11   1.398653 A    
C11   C27   1.507514 S    
H4    C17   1.084910 S    
O7    C4    1.291718 A    
N4    O12   1.299052 A    
N5    O14   1.300388 A    
C27   H11   1.110430 S    
C1    C15   1.408255 S    
N1    C25   1.372601 A    
C25   N5    1.426022 S    
C5    C6    1.178895 T    
H1    C16   1.084445 S    
Zn1   N2    2.030023 S    
H8    C26   1.076766 S    
C20   C21   1.394271 A    
Zn2   O6    1.966818 S    
O3    C2    1.290071 A    
C14   C15   1.403867 A    
Zn1   O5    2.000443 S    
O5    C3    1.284465 A    
C10   H3    1.083621 S    
C23   C24   1.434397 A    
O2    C1    1.281781 A    
C27   H9    1.111324 S    
C19   C20   1.390080 A    
C12   C13   1.424616 A    
N4    O11   1.300774 A    
O6    C3    1.298011 A    
O2    Zn2   2.000443 S    
C17   C18   1.393555 A    
Zn2   N1    2.029263 S    
C6    C7    1.368678 S    
O1    C1    1.292573 A    
C20   H6    1.082799 S    
