data_mof_unit_9861.cif
_audit_creation_date              2012-10-26T19:53:25-0400
_audit_creation_method            fapswitch 2.2
_symmetry_space_group_name_H-M    P1
_symmetry_Int_Tables_number       1
_space_group_crystal_system       triclinic
_cell_length_a                    9.089935
_cell_length_b                    7.818392
_cell_length_c                    10.681884
_cell_angle_alpha                 90.15783
_cell_angle_beta                  89.987192
_cell_angle_gamma                 90.007126
_cell_volume                      759.144438259

loop_
_atom_site_label
_atom_site_type_symbol
_atom_type_description
_atom_site_fract_x
_atom_site_fract_y
_atom_site_fract_z
_atom_type_partial_charge
C1    C     C_R   0.220159 0.499995 0.499967 0.547311
C2    C     C_3   0.634782 0.539830 0.045026 -0.121519
C3    C     C_3   0.503595 0.501394 0.877094 0.045302
C4    C     C_3   0.496404 0.498605 0.122907 0.045302
C5    C     C_1   0.065410 0.499992 0.499985 -0.059173
C6    C     C_1   0.934590 0.500008 0.500015 -0.059173
C7    C     C_3   0.287153 0.740858 0.087188 -0.398398
C8    C     C_3   0.712846 0.259142 0.912812 -0.398398
C9    C     C_3   0.588830 0.830074 0.916725 -0.390897
C10   C     C_3   0.411169 0.169926 0.083275 -0.390898
C11   C     C_R   0.779841 0.500005 0.500033 0.547310
C12   C     C_R   0.497117 0.499612 0.259066 0.545145
C13   C     C_R   0.502883 0.500387 0.740934 0.545143
C14   C     C_3   0.401824 0.614643 0.040118 0.000680
C15   C     C_3   0.598175 0.385356 0.959883 0.000679
C16   C     C_3   0.538733 0.655475 0.961144 0.007794
C17   C     C_3   0.461267 0.344524 0.038856 0.007794
C18   C     C_3   0.365217 0.460169 0.954974 -0.121519
Cu1   Cu    Cu3+1 0.500000 0.669080 0.500000 0.995157
Cu2   Cu    Cu3+1 0.500000 0.330920 0.500000 0.995157
H1    H     H_    0.255310 0.427586 0.916311 0.104464
H2    H     H_    0.687546 0.815980 0.856404 0.140324
H3    H     H_    0.499643 0.892234 0.862531 0.153715
H4    H     H_    0.381983 0.090464 0.001003 0.121616
H5    H     H_    0.500355 0.107766 0.137470 0.153715
H6    H     H_    0.312453 0.184021 0.143596 0.140325
H7    H     H_    0.744690 0.572414 0.083689 0.104464
H8    H     H_    0.238469 0.810389 0.006818 0.124730
H9    H     H_    0.198979 0.670816 0.137445 0.129266
H10   H     H_    0.339033 0.833231 0.152443 0.155598
H11   H     H_    0.761528 0.189608 0.993181 0.124730
H12   H     H_    0.660967 0.166771 0.847555 0.155599
H13   H     H_    0.801021 0.329184 0.862557 0.129265
H14   H     H_    0.618016 0.909534 0.998997 0.121616
N1    N     N_1   0.500000 0.076820 0.500000 -0.089641
N2    N     N_1   0.500000 0.923180 0.500000 -0.089641
O1    O     O_R   0.288390 0.642760 0.500000 -0.496573
O2    O     O_R   0.711610 0.357240 0.500000 -0.496573
O3    O     O_R   0.711610 0.642760 0.500000 -0.496776
O4    O     O_R   0.288390 0.357240 0.500000 -0.496776
O5    O     O_R   0.499960 0.642760 0.316850 -0.509042
O6    O     O_R   0.500040 0.357240 0.683150 -0.509042
O7    O     O_R   0.500040 0.642760 0.683150 -0.509081
O8    O     O_R   0.499960 0.357240 0.316850 -0.509082

loop_
_geom_bond_atom_site_label_1
_geom_bond_atom_site_label_2
_ccdc_geom_bond_type
C11   O2    A    
C2    C4    S    
C2    H7    S    
C7    H9    S    
C4    C12   S    
C18   H1    S    
Cu2   O2    S    
C14   C18   S    
Cu2   O6    S    
N1    N2    T    
C3    C13   S    
C1    O1    A    
Cu1   N2    S    
C10   H6    S    
C17   C18   S    
C3    C15   S    
C12   O8    A    
C7    H10   S    
C11   O3    A    
C2    C15   S    
Cu2   N1    S    
C12   O5    A    
Cu1   O3    S    
C1    C5    S    
C4    C17   S    
C10   H5    S    
C13   O6    A    
Cu2   O8    S    
C9    C16   S    
Cu1   O7    S    
C8    C15   S    
C8    H13   S    
C4    C14   S    
C9    H14   S    
Cu2   O4    S    
C14   C16   S    
C9    H2    S    
C7    H8    S    
C10   C17   S    
C8    H12   S    
Cu1   O5    S    
C13   O7    A    
C2    C16   S    
C3    C18   S    
C15   C17   S    
C6    C11   S    
C5    C6    T    
C9    H3    S    
Cu1   O1    S    
C1    O4    A    
C10   H4    S    
C8    H11   S    
C7    C14   S    
C3    C16   S    
Cu1   Cu2   S    
