data_mof_unit_51595.cif
_audit_creation_date              2012-12-10T17:10:23-0500
_audit_creation_method            fapswitch 2.2
_symmetry_space_group_name_H-M    P1
_symmetry_Int_Tables_number       1
_space_group_crystal_system       triclinic
_cell_length_a                    10.994933
_cell_length_b                    12.980079
_cell_length_c                    11.665787
_cell_angle_alpha                 100.137675
_cell_angle_beta                  94.172899
_cell_angle_gamma                 90.550414
_cell_volume                      1634.12047619

loop_
_atom_site_label
_atom_site_type_symbol
_atom_type_description
_atom_site_fract_x
_atom_site_fract_y
_atom_site_fract_z
_atom_type_partial_charge
C1    C     C_R   0.502281 0.299065 0.478162 0.848629
C2    C     C_R   0.497700 0.700922 0.521837 0.851571
C3    C     C_R   0.490836 0.814397 0.534775 -0.132157
C4    C     C_R   0.509110 0.185565 0.465227 -0.135877
C5    C     C_R   0.567386 0.016321 0.362865 -0.193483
C6    C     C_R   0.432492 0.983613 0.637120 -0.197320
C7    C     C_R   0.560187 0.124142 0.368885 0.367918
C8    C     C_R   0.439593 0.875778 0.631042 0.370052
C9    C     C_R   0.466906 0.138124 0.554053 -0.285215
C10   C     C_R   0.533145 0.861843 0.446007 -0.274628
C11   C     C_R   0.474758 0.030624 0.548171 0.101473
C12   C     C_R   0.525231 0.969331 0.451868 0.102012
C13   C     C_R   0.414690 0.381531 0.018969 -0.263089
C14   C     C_R   0.577606 0.621774 0.980734 -0.196944
C15   C     C_R   0.419396 0.395180 0.141642 0.143099
C16   C     C_R   0.577056 0.606413 0.858313 0.167316
C17   C     C_R   0.528684 0.555824 0.158423 0.087223
C18   C     C_R   0.468408 0.445414 0.841349 0.046135
C19   C     C_R   0.525414 0.545659 0.035144 0.081419
C20   C     C_R   0.469211 0.456561 0.964589 0.080100
C21   C     C_R   0.261973 0.500557 0.500067 0.813044
C22   C     C_R   0.737932 0.500615 0.500325 0.811034
C23   C     C_R   0.132440 0.553917 0.718641 -0.163498
C24   C     C_R   0.870526 0.551298 0.302888 -0.174057
C25   C     C_R   0.084006 0.533996 0.819577 0.426276
C26   C     C_R   0.921139 0.533842 0.195300 0.441230
C27   C     C_R   0.973130 0.479611 0.810873 -0.157998
C28   C     C_R   0.027350 0.477197 0.182590 -0.128931
C29   C     C_R   0.902904 0.460596 0.704483 -0.196942
C30   C     C_R   0.093720 0.455187 0.281242 -0.187618
C31   C     C_R   0.946192 0.492203 0.604059 0.071558
C32   C     C_R   0.052694 0.489073 0.393890 0.072691
C33   C     C_R   0.070902 0.517879 0.607613 -0.003354
C34   C     C_R   0.929656 0.515532 0.399950 0.016394
C35   C     C_R   0.871902 0.502590 0.501588 -0.150680
C36   C     C_R   0.127918 0.502300 0.500359 -0.157458
Cu1   Cu    Cu3+1 0.509250 0.507730 0.615930 0.976117
Cu2   Cu    Cu3+1 0.490750 0.492270 0.384070 0.990205
H1    H     H_    0.061003 0.453362 0.097443 0.193787
H2    H     H_    0.939320 0.454900 0.886582 0.202665
H3    H     H_    0.369459 0.312444 0.967200 0.143603
H4    H     H_    0.619799 0.692274 0.032451 0.173999
H5    H     H_    0.216114 0.599820 0.729724 0.227008
H6    H     H_    0.787935 0.595557 0.309820 0.164608
H7    H     H_    0.817644 0.418242 0.702309 0.187966
H8    H     H_    0.174221 0.409525 0.266521 0.169936
H9    H     H_    0.572667 0.814928 0.372122 0.161161
H10   H     H_    0.427473 0.185047 0.627981 0.159687
H11   H     H_    0.607169 0.969413 0.289243 0.177873
H12   H     H_    0.392637 0.030506 0.710705 0.173220
H13   H     H_    0.422521 0.378307 0.786542 0.121253
H14   H     H_    0.574416 0.623109 0.213000 0.115309
H15   H     H_    0.618552 0.665441 0.817943 0.153851
H16   H     H_    0.377867 0.336242 0.182123 0.133774
N1    N     N_R   0.523180 0.519350 0.790130 -0.202978
N2    N     N_R   0.476820 0.480650 0.209870 -0.190283
O1    O     O_R   0.506570 0.354460 0.582000 -0.607317
O2    O     O_R   0.493430 0.645540 0.418000 -0.602180
O3    O     O_R   0.490940 0.341410 0.386200 -0.547914
O4    O     O_R   0.509060 0.658590 0.613800 -0.551126
O5    O     O_R   0.327470 0.506520 0.597900 -0.588171
O6    O     O_R   0.672530 0.493480 0.402100 -0.573732
O7    O     O_R   0.311840 0.493460 0.402100 -0.592111
O8    O     O_R   0.688160 0.506540 0.597900 -0.597361
Cl1   Cl    Cl    0.165974 0.573937 0.955110 -0.607980
Cl2   Cl    Cl    0.850568 0.581497 0.076815 -0.670399
Cl3   Cl    Cl    0.376509 0.821650 0.742579 -0.599094
Cl4   Cl    Cl    0.622858 0.178173 0.257096 -0.595301

loop_
_geom_bond_atom_site_label_1
_geom_bond_atom_site_label_2
_ccdc_geom_bond_type
Cu1   O5    S    
C11   C12   A    
C2    O2    A    
Cu1   O1    S    
Cu1   Cu2   S    
C14   C16   A    
C1    O1    A    
C22   O6    A    
C21   O5    A    
C19   C20   A    
C13   C20   A    
C13   C15   A    
C27   H2    S    
C14   H4    S    
C1    C4    S    
C15   N2    A    
C33   C36   A    
C13   H3    S    
C2    C3    S    
C4    C9    A    
C16   N1    A    
C25   Cl1   S    
C29   C31   A    
C3    C10   A    
C23   C25   A    
C6    H12   S    
C30   C32   A    
C22   C35   S    
C9    C11   A    
C17   N2    A    
C5    H11   S    
C2    O4    A    
C10   C12   A    
C18   N1    A    
C9    H10   S    
C4    C7    A    
C32   C36   A    
C17   H14   S    
C28   C30   A    
C17   C19   A    
C24   C26   A    
C18   H13   S    
C34   C35   A    
C18   C20   A    
C1    O3    A    
C3    C8    A    
C24   H6    S    
C31   C35   A    
C21   O7    A    
Cu1   O4    S    
C25   C27   A    
C31   C33   A    
C22   O8    A    
Cu2   O3    S    
C26   Cl2   S    
C15   H16   S    
C6    C11   A    
Cu1   O8    S    
Cu2   N2    S    
C27   C29   A    
C5    C12   A    
C5    C7    A    
Cu2   O7    S    
C10   H9    S    
C21   C36   S    
C16   H15   S    
C6    C8    A    
C28   H1    S    
Cu2   O6    S    
C7    Cl4   S    
Cu2   O2    S    
C23   H5    S    
C26   C28   A    
C14   C19   A    
C30   H8    S    
C24   C34   A    
C8    Cl3   S    
C29   H7    S    
C32   C34   A    
C23   C33   A    
Cu1   N1    S    
