data_mof_unit_27448.cif
_audit_creation_date              2012-12-10T16:58:29-0500
_audit_creation_method            fapswitch 2.2
_symmetry_space_group_name_H-M    P1
_symmetry_Int_Tables_number       1
_space_group_crystal_system       triclinic
_cell_length_a                    7.761589
_cell_length_b                    8.563173
_cell_length_c                    23.380048
_cell_angle_alpha                 91.019227
_cell_angle_beta                  85.802022
_cell_angle_gamma                 93.710364
_cell_volume                      1546.37704994

loop_
_atom_site_label
_atom_site_type_symbol
_atom_type_description
_atom_site_fract_x
_atom_site_fract_y
_atom_site_fract_z
_atom_type_partial_charge
C1    C     C_R   0.545849 0.794768 0.498520 0.969259
C2    C     C_R   0.336847 0.465782 0.302129 -0.181828
C3    C     C_R   0.659609 0.567451 0.756818 0.113128
C4    C     C_R   0.332707 0.464189 0.242805 0.138935
C5    C     C_R   0.519375 0.498841 0.790714 0.341040
C6    C     C_R   0.486052 0.500946 0.208587 0.237553
C7    C     C_2   0.570011 0.958286 0.497678 -0.371580
C8    C     C_2   0.429994 0.041717 0.502377 -0.372799
C9    C     C_R   0.502223 0.500083 0.610443 0.886382
C10   C     C_R   0.497879 0.500174 0.389426 0.893510
C11   C     C_R   0.523615 0.365215 0.118287 0.481725
C12   C     C_R   0.454153 0.205234 0.501500 0.970004
C13   C     C_R   0.480329 0.634333 0.881008 0.537937
C14   C     C_R   0.448785 0.632194 0.120846 0.480698
C15   C     C_R   0.560104 0.368779 0.878416 0.538852
C16   C     C_R   0.454923 0.635415 0.061074 -0.008995
C17   C     C_R   0.552863 0.365250 0.938204 -0.017643
C18   C     C_R   0.498584 0.499675 0.029739 -0.017556
C19   C     C_R   0.508198 0.500698 0.969544 -0.022162
C20   C     C_R   0.532903 0.362984 0.058455 -0.009117
C21   C     C_R   0.472712 0.637048 0.940833 -0.017705
C22   C     C_R   0.420154 0.770719 0.032081 -0.168645
C23   C     C_R   0.373615 0.430376 0.765609 0.104676
C24   C     C_R   0.587434 0.229884 0.967202 -0.166678
C25   C     C_R   0.428771 0.771474 0.972423 -0.170626
C26   C     C_R   0.577184 0.228660 0.026869 -0.172049
C27   C     C_R   0.642647 0.538914 0.233784 0.139611
C28   C     C_R   0.367417 0.432852 0.706256 -0.271937
C29   C     C_R   0.645653 0.537618 0.293044 -0.174370
C30   C     C_R   0.507839 0.499780 0.672243 -0.056702
C31   C     C_R   0.493222 0.501286 0.327356 -0.135348
C32   C     C_R   0.654122 0.565994 0.697393 -0.270007
H1    H     H_    0.385998 0.876125 0.055344 0.195396
H2    H     H_    0.297797 0.990549 0.506864 0.180488
H3    H     H_    0.013841 0.382655 0.456796 0.191508
H4    H     H_    0.986158 0.617355 0.543200 0.189381
H5    H     H_    0.215566 0.241432 0.787746 0.216995
H6    H     H_    0.120576 0.413463 0.793193 0.191062
H7    H     H_    0.825679 0.486068 0.171727 0.202165
H8    H     H_    0.779621 0.676686 0.175106 0.212662
H9    H     H_    0.817998 0.757315 0.771823 0.216861
H10   H     H_    0.916649 0.587530 0.765426 0.179805
H11   H     H_    0.145553 0.517624 0.192372 0.214095
H12   H     H_    0.622115 0.124620 0.943941 0.194893
H13   H     H_    0.188308 0.326456 0.191200 0.212512
H14   H     H_    0.400619 0.877339 0.951203 0.193014
H15   H     H_    0.604759 0.122640 0.048098 0.192832
H16   H     H_    0.254684 0.380354 0.686786 0.162657
H17   H     H_    0.766848 0.566705 0.312199 0.180191
H18   H     H_    0.762417 0.618896 0.671077 0.155311
H19   H     H_    0.218493 0.436912 0.328368 0.171077
H20   H     H_    0.702207 0.009454 0.493194 0.180994
N1    N     N_R   0.483745 0.498801 0.147795 -0.364104
N2    N     N_R   0.522580 0.501405 0.851473 -0.340176
N3    N     N_2   0.950330 0.457950 0.484560 -0.173675
N4    N     N_2   0.049670 0.542050 0.515440 -0.174144
N5    N     N_3   0.232769 0.358470 0.800796 -0.436549
N6    N     N_3   0.799388 0.579517 0.199687 -0.450946
N7    N     N_3   0.806266 0.639275 0.783065 -0.436841
N8    N     N_3   0.172372 0.424499 0.217879 -0.444948
O1    O     O_R   0.389250 0.738570 0.503790 -0.610685
O2    O     O_2   0.444295 0.762466 0.852406 -0.543336
O3    O     O_2   0.409683 0.761094 0.151964 -0.538158
O4    O     O_2   0.602923 0.240930 0.847278 -0.544251
O5    O     O_R   0.610750 0.261430 0.496210 -0.610118
O6    O     O_R   0.678390 0.711620 0.493890 -0.631083
O7    O     O_R   0.321610 0.288380 0.506110 -0.631461
O8    O     O_R   0.355400 0.513520 0.588790 -0.618818
O9    O     O_R   0.644600 0.486480 0.411210 -0.617592
O10   O     O_R   0.644550 0.486570 0.578900 -0.626862
O11   O     O_R   0.355450 0.513430 0.421100 -0.626678
O12   O     O_2   0.555532 0.235933 0.146954 -0.539106
Zn1   Zn    Zn3+2 0.306930 0.518000 0.506610 0.948132
Zn2   Zn    Zn3+2 0.693070 0.482000 0.493390 0.949938

loop_
_geom_bond_atom_site_label_1
_geom_bond_atom_site_label_2
_ccdc_geom_bond_type
H10   N7    S    
O10   Zn2   S    
C2    C4    A    
C15   O4    S    
C10   O9    A    
H13   N8    S    
H4    N4    S    
C27   C29   A    
H6    N5    S    
C3    N7    S    
C12   O5    A    
C5    C23   A    
C25   H14   S    
C6    C27   A    
C11   N1    A    
H11   N8    S    
C8    C12   S    
O1    Zn1   S    
C10   O11   A    
C4    N8    S    
N3    N4    D    
C28   C30   A    
C1    O6    A    
C9    O8    A    
C13   C21   A    
C7    C8    D    
C29   C31   A    
C29   H17   S    
C23   C28   A    
C30   C32   A    
H7    N6    S    
C32   H18   S    
C20   C26   A    
C26   H15   S    
O7    Zn1   S    
C14   O3    S    
C9    C30   S    
C16   C18   A    
C19   C21   A    
C24   C26   A    
C7    H20   S    
C13   N2    A    
C18   C20   A    
C3    C32   A    
C24   H12   S    
C12   O7    A    
C14   C16   A    
C11   C20   A    
C17   C24   A    
H8    N6    S    
C2    H19   S    
C13   O2    S    
C6    N1    S    
C4    C6    A    
O6    Zn2   S    
C15   N2    A    
C5    N2    S    
O9    Zn2   S    
C14   N1    A    
C9    O10   A    
H9    N7    S    
O11   Zn1   S    
C18   C19   A    
C15   C17   A    
C22   H1    S    
C21   C25   A    
C11   O12   S    
C28   H16   S    
C8    H2    S    
N4    Zn1   S    
C23   N5    S    
C17   C19   A    
O8    Zn1   S    
C1    C7    S    
N3    Zn2   S    
H3    N3    S    
C10   C31   S    
C22   C25   A    
H5    N5    S    
O5    Zn2   S    
C16   C22   A    
C2    C31   A    
C3    C5    A    
C27   N6    S    
C1    O1    A    
