data_mof_unit_16388.cif
_audit_creation_date              2012-12-10T18:58:42-0500
_audit_creation_method            fapswitch 2.2
_symmetry_space_group_name_H-M    P1
_symmetry_Int_Tables_number       1
_space_group_crystal_system       triclinic
_cell_length_a                    10.613303
_cell_length_b                    9.992764
_cell_length_c                    17.283204
_cell_angle_alpha                 90.96501
_cell_angle_beta                  91.157467
_cell_angle_gamma                 90.966827
_cell_volume                      1832.0858726

loop_
_atom_site_label
_atom_site_type_symbol
_atom_type_description
_atom_site_fract_x
_atom_site_fract_y
_atom_site_fract_z
_atom_type_partial_charge
C1    C     C_R   0.261080 0.499472 0.500661 0.902497
C2    C     C_R   0.501331 0.500982 0.647654 0.842259
C3    C     C_R   0.871561 0.499887 0.500066 -0.063452
C4    C     C_R   0.128515 0.499840 0.500753 -0.059005
C5    C     C_R   0.621382 0.592589 0.850943 -0.002866
C6    C     C_R   0.527934 0.366257 0.147760 -0.004344
C7    C     C_R   0.652868 0.574007 0.159685 0.011685
C8    C     C_R   0.556473 0.355743 0.844233 -0.032983
C9    C     C_R   0.580517 0.609420 0.773701 0.031527
C10   C     C_R   0.482998 0.386066 0.222870 0.034475
C11   C     C_R   0.613324 0.592454 0.236645 0.029238
C12   C     C_R   0.738959 0.500490 0.499473 0.894384
C13   C     C_R   0.494145 0.378926 0.772795 0.081248
C14   C     C_R   0.519409 0.500027 0.733242 -0.078859
C15   C     C_R   0.529182 0.496142 0.268866 -0.055086
C16   C     C_R   0.602771 0.074732 0.526433 -0.044103
C17   C     C_R   0.396762 0.925339 0.474179 -0.039001
C18   C     C_R   0.395152 0.067987 0.476713 -0.063503
C19   C     C_R   0.605967 0.932355 0.521288 -0.073744
C20   C     C_R   0.613776 0.465370 0.884170 -0.085137
C21   C     C_R   0.610405 0.461215 0.116412 -0.104231
C22   C     C_2   0.673081 0.707488 0.897939 0.917404
C23   C     C_1   0.632550 0.456806 0.966057 0.132103
C24   C     C_2   0.483887 0.248125 0.100575 0.934904
C25   C     C_2   0.739526 0.671450 0.123322 0.909651
C26   C     C_2   0.565697 0.218317 0.877658 0.973460
C27   C     C_3   0.605871 0.741627 0.734452 -0.717449
C28   C     C_3   0.380136 0.292866 0.250878 -0.707950
C29   C     C_3   0.662976 0.712362 0.284437 -0.715145
C30   C     C_3   0.396874 0.277942 0.741151 -0.700369
C31   C     C_2   0.709518 0.147983 0.564493 1.001724
C32   C     C_2   0.289771 0.852249 0.436397 0.988226
C33   C     C_2   0.274614 0.131945 0.458920 1.010048
C34   C     C_1   0.631474 0.455733 0.035018 0.091671
C35   C     C_2   0.730855 0.871282 0.527466 1.012695
C36   C     C_3   0.130940 0.502163 0.352381 -0.821311
C37   C     C_3   0.867639 0.516657 0.648353 -0.807669
C38   C     C_3   0.861642 0.454432 0.353274 -0.828315
C39   C     C_3   0.140413 0.521144 0.648913 -0.823660
C40   C     C_R   0.063485 0.493948 0.429028 0.099618
C41   C     C_R   0.936379 0.509868 0.571921 0.094866
C42   C     C_R   0.932779 0.484613 0.428999 0.147067
C43   C     C_R   0.067610 0.509345 0.572279 0.148195
C44   C     C_R   0.503995 0.499310 0.352797 0.847255
H1    H     H_    0.822395 0.789973 0.955676 0.359565
H2    H     H_    0.327453 0.337808 0.298693 0.244732
H3    H     H_    0.739092 0.770170 0.256860 0.240685
H4    H     H_    0.584943 0.782274 0.295606 0.280925
H5    H     H_    0.704749 0.679821 0.340095 0.249487
H6    H     H_    0.329853 0.251213 0.787100 0.254472
H7    H     H_    0.336182 0.318752 0.694661 0.221132
H8    H     H_    0.443881 0.186916 0.719051 0.273093
H9    H     H_    0.893823 0.200563 0.562719 0.359273
H10   H     H_    0.105041 0.801537 0.438193 0.355943
H11   H     H_    0.151590 0.192664 0.377322 0.348473
H12   H     H_    0.383124 0.178495 0.007973 0.375303
H13   H     H_    0.878953 0.822791 0.595429 0.358732
H14   H     H_    0.233875 0.518336 0.358649 0.236261
H15   H     H_    0.113795 0.409182 0.317592 0.239019
H16   H     H_    0.095356 0.588543 0.319375 0.266628
H17   H     H_    0.763968 0.511529 0.641976 0.227665
H18   H     H_    0.894676 0.431024 0.684842 0.262733
H19   H     H_    0.892027 0.611733 0.679639 0.247704
H20   H     H_    0.758953 0.441724 0.359665 0.221211
H21   H     H_    0.877975 0.535787 0.311603 0.247338
H22   H     H_    0.894998 0.358944 0.327878 0.259794
H23   H     H_    0.910663 0.705564 0.078283 0.361229
H24   H     H_    0.243718 0.525174 0.642874 0.210869
H25   H     H_    0.114817 0.614668 0.679892 0.256358
H26   H     H_    0.118023 0.433888 0.685375 0.245343
H27   H     H_    0.667049 0.091703 0.943151 0.384680
H28   H     H_    0.657926 0.817381 0.770510 0.251760
H29   H     H_    0.666222 0.723490 0.684276 0.265600
H30   H     H_    0.515595 0.787130 0.716086 0.259647
H31   H     H_    0.308287 0.272276 0.204417 0.234060
H32   H     H_    0.421649 0.197179 0.269656 0.284881
N1    N     N_R   0.500000 0.857200 0.500000 -0.160171
N2    N     N_R   0.500000 0.142800 0.500000 -0.159852
O1    O     O_R   0.316770 0.614620 0.500000 -0.605419
O2    O     O_R   0.797007 0.704544 0.926524 -0.775524
O3    O     O_2   0.508668 0.135287 0.121791 -0.564547
O4    O     O_R   0.411270 0.266439 0.033380 -0.800151
O5    O     O_2   0.706822 0.786798 0.113483 -0.571855
O6    O     O_R   0.858096 0.629851 0.099901 -0.770232
O7    O     O_2   0.484109 0.132598 0.864926 -0.606591
O8    O     O_R   0.670892 0.186695 0.923500 -0.776567
O9    O     O_2   0.694370 0.205902 0.626350 -0.613556
O10   O     O_R   0.828215 0.148026 0.530756 -0.765985
O11   O     O_2   0.304548 0.794066 0.374590 -0.605596
O12   O     O_R   0.683230 0.385380 0.500000 -0.605184
O13   O     O_R   0.171054 0.853671 0.470053 -0.772048
O14   O     O_2   0.200150 0.151226 0.510893 -0.582048
O15   O     O_R   0.239876 0.156244 0.382303 -0.825738
O16   O     O_2   0.787104 0.844309 0.468282 -0.597386
O17   O     O_R   0.791107 0.860240 0.599541 -0.829187
O18   O     O_R   0.683230 0.614620 0.500000 -0.615726
O19   O     O_R   0.316770 0.385380 0.500000 -0.606363
O20   O     O_R   0.500010 0.614710 0.389120 -0.578847
O21   O     O_R   0.499990 0.385290 0.610880 -0.573420
O22   O     O_R   0.499990 0.614710 0.610880 -0.625827
O23   O     O_R   0.500010 0.385290 0.389120 -0.610478
O24   O     O_2   0.606960 0.803745 0.911677 -0.575740
Zn1   Zn    Zn3+2 0.500000 0.653120 0.500000 0.983650
Zn2   Zn    Zn3+2 0.500000 0.346880 0.500000 0.997772

loop_
_geom_bond_atom_site_label_1
_geom_bond_atom_site_label_2
_ccdc_geom_bond_type
C30   H7    S    
C3    C42   A    
C8    C13   A    
C8    C26   S    
C39   H24   S    
H11   O15   S    
C36   H15   S    
C37   H18   S    
C5    C20   A    
C29   H5    S    
C16   C31   S    
C7    C11   A    
C28   H2    S    
C8    C20   A    
C29   H3    S    
C12   O12   A    
C15   C44   S    
C38   C42   S    
C36   H14   S    
C10   C15   A    
C16   C19   A    
C32   O13   S    
O20   Zn1   S    
C19   N1    A    
C24   O4    S    
C3    C12   S    
C11   C15   A    
C5    C22   S    
C38   H22   S    
C25   O6    S    
C20   C23   S    
H1    O2    S    
C27   H30   S    
C18   N2    A    
C40   C42   A    
O21   Zn2   S    
C30   H6    S    
C2    O22   A    
H23   O6    S    
C13   C14   A    
C41   C43   A    
O1    Zn1   S    
C44   O20   A    
C37   H19   S    
C38   H20   S    
C31   O9    D    
C29   H4    S    
N2    Zn2   S    
C4    C40   A    
C13   C30   S    
C36   C40   S    
C33   O14   D    
C1    O19   A    
C9    C14   A    
C39   C43   S    
C21   C34   S    
C7    C21   A    
C6    C21   A    
O22   Zn1   S    
C24   O3    D    
C5    C9    A    
H27   O8    S    
C32   O11   D    
C38   H21   S    
C26   O8    S    
C23   C34   T    
C6    C24   S    
C17   N1    A    
C17   C18   A    
C39   H25   S    
C7    C25   S    
O12   Zn2   S    
C2    O21   A    
O23   Zn2   S    
C1    O1    A    
N1    Zn1   S    
C28   H32   S    
C9    C27   S    
C35   O16   D    
C10   C28   S    
C30   H8    S    
C3    C41   A    
C31   O10   S    
C36   H16   S    
C33   O15   S    
C6    C10   A    
C37   H17   S    
C44   O23   A    
H12   O4    S    
C4    C43   A    
C35   O17   S    
C22   O24   D    
C1    C4    S    
C22   O2    S    
H10   O13   S    
C19   C35   S    
C26   O7    D    
C39   H26   S    
H9    O10   S    
C16   N2    A    
C37   C41   S    
C2    C14   S    
C18   C33   S    
O19   Zn2   S    
C11   C29   S    
H13   O17   S    
O18   Zn1   S    
C25   O5    D    
C17   C32   S    
C12   O18   A    
C27   H29   S    
C28   H31   S    
C27   H28   S    
