data_mof_unit_36981.cif
_audit_creation_date              2012-12-10T17:05:19-0500
_audit_creation_method            fapswitch 2.2
_symmetry_space_group_name_H-M    P1
_symmetry_Int_Tables_number       1
_space_group_crystal_system       triclinic
_cell_length_a                    10.03203
_cell_length_b                    10.724509
_cell_length_c                    15.522708
_cell_angle_alpha                 90.084448
_cell_angle_beta                  67.847715
_cell_angle_gamma                 90.000861
_cell_volume                      1546.78834021

loop_
_atom_site_label
_atom_site_type_symbol
_atom_type_description
_atom_site_fract_x
_atom_site_fract_y
_atom_site_fract_z
_atom_type_partial_charge
C1    C     C_R   0.500227 0.737337 0.499883 0.946563
C2    C     C_R   0.427807 0.448325 0.907546 0.096017
C3    C     C_R   0.290094 0.397703 0.958452 0.178565
C4    C     C_R   0.534911 0.450873 0.946316 0.069242
C5    C     C_R   0.495057 0.423076 0.041742 0.069734
C6    C     C_R   0.356953 0.371644 0.091131 -0.230178
C7    C     C_R   0.257181 0.357553 0.049385 -0.242071
C8    C     C_R   0.680949 0.478133 0.892381 -0.227865
C9    C     C_R   0.781258 0.492009 0.933491 -0.245985
C10   C     C_R   0.738230 0.483295 0.029560 0.178369
C11   C     C_R   0.594501 0.449243 0.084455 0.095038
C12   C     C_R   0.410039 0.498733 0.675927 0.868765
C13   C     C_R   0.835898 0.512099 0.071851 -0.218929
C14   C     C_R   0.790273 0.513766 0.168429 -0.202332
C15   C     C_R   0.551318 0.452644 0.181012 -0.261605
C16   C     C_2   0.632659 0.064400 0.461708 0.149383
C17   C     C_2   0.512881 0.131594 0.476541 -0.345611
C18   C     C_2   0.625542 0.929532 0.457852 -0.214050
C19   C     C_2   0.501330 0.869361 0.500011 -0.350762
C20   C     C_2   0.109020 0.435700 0.441512 -0.123946
C21   C     C_2   0.957387 0.431391 0.444260 -0.131003
C22   C     C_R   0.503586 0.262708 0.494243 0.943714
C23   C     C_R   0.590037 0.497903 0.324129 0.862027
C24   C     C_R   0.356297 0.479712 0.776301 -0.056208
C25   C     C_R   0.646453 0.487520 0.223004 -0.054390
C26   C     C_R   0.187824 0.387049 0.917072 -0.224160
C27   C     C_R   0.221795 0.425957 0.825467 -0.206843
C28   C     C_R   0.453657 0.497288 0.819625 -0.253078
H1    H     H_    0.152997 0.317052 0.089015 0.147956
H2    H     H_    0.945821 0.538060 0.030418 0.149291
H3    H     H_    0.416441 0.089790 0.473321 0.130927
H4    H     H_    0.725756 0.878724 0.424261 0.167947
H5    H     H_    0.399430 0.915124 0.537297 0.143641
H6    H     H_    0.189593 0.380906 0.388255 0.151891
H7    H     H_    0.071773 0.546297 0.552134 0.156166
H8    H     H_    0.935837 0.368788 0.396100 0.162472
H9    H     H_    0.873255 0.562055 0.541931 0.160555
H10   H     H_    0.440947 0.435219 0.225198 0.153840
H11   H     H_    0.865619 0.539773 0.200201 0.159366
H12   H     H_    0.891585 0.514717 0.890261 0.147736
H13   H     H_    0.083618 0.345275 0.954526 0.145286
H14   H     H_    0.145531 0.410405 0.792392 0.155946
H15   H     H_    0.551234 0.548141 0.782401 0.151569
H16   H     H_    0.324614 0.337333 0.161347 0.140109
H17   H     H_    0.721542 0.486290 0.817620 0.148653
N1    N     N_2   0.148330 0.498670 0.499030 -0.187817
N2    N     N_2   0.852680 0.498640 0.499000 -0.189888
O1    O     O_R   0.386950 0.680940 0.500010 -0.609598
O2    O     O_R   0.613110 0.680900 0.499990 -0.612351
O3    O     O_R   0.322330 0.500030 0.632270 -0.616563
O4    O     O_R   0.548480 0.499990 0.632240 -0.612529
O5    O     O_R   0.386890 0.319100 0.500010 -0.622320
O6    O     O_R   0.613050 0.319060 0.499990 -0.571214
O7    O     O_R   0.451520 0.500010 0.367760 -0.614088
O8    O     O_R   0.677670 0.499970 0.367730 -0.617091
Zn1   Zn    Zn3+2 0.349000 0.500030 0.500020 0.936224
Zn2   Zn    Zn3+2 0.651000 0.499970 0.499980 0.944987
N3    N     N_3   0.767820 0.121333 0.450445 -0.421203
H18   H     H_    0.843320 0.094909 0.385529 0.164455
H19   H     H_    0.801523 0.085203 0.501416 0.187248

loop_
_geom_bond_atom_site_label_1
_geom_bond_atom_site_label_2
_ccdc_geom_bond_type
C9    H12   S    
C2    C4    A    
C15   H10   S    
C23   O8    A    
C6    C7    A    
O4    Zn2   S    
N2    Zn2   S    
C2    C28   A    
C9    C10   A    
C12   C24   S    
C28   H15   S    
C12   O3    A    
C17   C22   S    
C24   C27   A    
C4    C8    A    
C20   H6    S    
O8    Zn2   S    
C2    C3    A    
N3    H18   S    
O2    Zn2   S    
O3    Zn1   S    
C1    O1    A    
C21   H8    S    
C16   N3    S    
C13   C14   A    
H7    N1    S    
C27   H14   S    
C26   C27   A    
C16   C17   D    
C1    O2    A    
C7    H1    S    
C16   C18   S    
C5    C11   A    
C22   O6    A    
C3    C7    A    
C23   C25   S    
C14   C25   A    
C5    C6    A    
C17   H3    S    
O7    Zn1   S    
C15   C25   A    
H9    N2    S    
C10   C11   A    
N3    H19   S    
C24   C28   A    
C13   H2    S    
C12   O4    A    
C18   H4    S    
C20   C21   S    
C23   O7    A    
C22   O5    A    
C18   C19   D    
C19   H5    S    
N1    Zn1   S    
O1    Zn1   S    
O6    Zn2   S    
C8    H17   S    
C8    C9    A    
C6    H16   S    
C14   H11   S    
C1    C19   S    
C11   C15   A    
C3    C26   A    
C20   N1    D    
O5    Zn1   S    
C26   H13   S    
C4    C5    A    
C21   N2    D    
C10   C13   A    
