data_mof_unit_50521.cif
_audit_creation_date              2012-12-10T18:00:45-0500
_audit_creation_method            fapswitch 2.2
_symmetry_space_group_name_H-M    P1
_symmetry_Int_Tables_number       1
_space_group_crystal_system       triclinic
_cell_length_a                    15.851172
_cell_length_b                    10.780307
_cell_length_c                    9.5473
_cell_angle_alpha                 90.241808
_cell_angle_beta                  90.753358
_cell_angle_gamma                 90.388371
_cell_volume                      1631.25375092

loop_
_atom_site_label
_atom_site_type_symbol
_atom_type_description
_atom_site_fract_x
_atom_site_fract_y
_atom_site_fract_z
_atom_type_partial_charge
C1    C     C_R   0.498086 0.262553 0.499634 0.887968
C2    C     C_R   0.501402 0.737408 0.500379 0.864125
C3    C     C_R   0.430346 0.931768 0.444105 0.435543
C4    C     C_R   0.569027 0.067833 0.553839 0.446328
C5    C     C_R   0.501198 0.871301 0.501488 -0.252329
C6    C     C_R   0.497665 0.128541 0.499127 -0.242061
C7    C     C_R   0.440919 0.433759 0.072699 -0.010884
C8    C     C_R   0.559357 0.565605 0.927310 -0.020719
C9    C     C_R   0.440905 0.433851 0.924096 -0.006283
C10   C     C_R   0.559149 0.566005 0.075874 -0.007888
C11   C     C_R   0.339901 0.500518 0.498975 0.815983
C12   C     C_R   0.660119 0.500830 0.501022 0.803943
C13   C     C_3   0.971526 0.390163 0.534309 0.482603
C14   C     C_3   0.028407 0.615999 0.470413 0.514614
C15   C     C_3   0.023930 0.420292 0.403557 0.039203
C16   C     C_3   0.975810 0.585623 0.601273 0.034084
C17   C     C_1   0.250296 0.500253 0.496316 -0.200521
C18   C     C_1   0.749742 0.502510 0.503954 -0.193535
C19   C     C_3   0.030589 0.469388 0.629893 0.017425
C20   C     C_3   0.969591 0.536575 0.375203 0.028902
C21   C     C_3   0.083144 0.500367 0.498582 -0.078778
C22   C     C_3   0.917062 0.505284 0.506115 -0.107550
C23   C     C_1   0.174798 0.500157 0.495329 0.010624
C24   C     C_1   0.825256 0.503922 0.506399 0.006209
C25   C     C_R   0.427558 0.061811 0.444251 0.004949
C26   C     C_R   0.569774 0.938182 0.561008 -0.012944
Cu1   Cu    Cu3+1 0.500000 0.500020 0.640660 0.957595
Cu2   Cu    Cu3+1 0.500000 0.499980 0.359340 0.954708
H1    H     H_    0.393624 0.380410 0.127133 0.110109
H2    H     H_    0.607215 0.617667 0.872861 0.123083
H3    H     H_    0.393611 0.380459 0.867103 0.118982
H4    H     H_    0.606520 0.619280 0.132804 0.116574
N1    N     N_R   0.500020 0.500030 0.852070 -0.157112
N2    N     N_R   0.499980 0.499970 0.147930 -0.157036
O1    O     O_R   0.500000 0.319660 0.618740 -0.551898
O2    O     O_R   0.500000 0.680340 0.381260 -0.550785
O3    O     O_R   0.499990 0.319630 0.381170 -0.602607
O4    O     O_R   0.500010 0.680370 0.618830 -0.590206
O5    O     O_R   0.379080 0.500000 0.618760 -0.594917
O6    O     O_R   0.620920 0.500000 0.381240 -0.594244
O7    O     O_R   0.379080 0.499970 0.381190 -0.565326
O8    O     O_R   0.620920 0.500030 0.618810 -0.565510
C27   C     C_3   0.058192 0.328283 0.295718 -0.357629
C28   C     C_3   0.988475 0.250999 0.225505 -0.812543
H5    H     H_    0.954586 0.194525 0.303939 0.274276
H6    H     H_    0.942728 0.311054 0.169823 0.251464
H7    H     H_    0.016781 0.187157 0.147892 0.224725
H8    H     H_    0.093633 0.379992 0.214986 0.206279
H9    H     H_    0.103384 0.264995 0.348109 0.183703
C29   C     C_3   0.940312 0.675176 0.710686 -0.363439
C30   C     C_3   0.000634 0.782160 0.748281 -0.800532
H10   H     H_    0.991345 0.810985 0.858706 0.220555
H11   H     H_    0.067615 0.756320 0.734317 0.276023
H12   H     H_    0.987215 0.863759 0.681553 0.238365
H13   H     H_    0.880169 0.714790 0.670671 0.188075
H14   H     H_    0.925355 0.620901 0.805656 0.204029
O9    O     O_3   0.930633 0.276316 0.563085 -0.574361
C31   C     C_3   0.988921 0.186026 0.607369 -0.358735
H15   H     H_    0.052667 0.196995 0.561628 0.149858
H16   H     H_    0.964511 0.093521 0.574806 0.178589
H17   H     H_    0.993661 0.186277 0.723395 0.173746
O10   O     O_3   0.068018 0.730583 0.440484 -0.577078
C32   C     C_3   0.008238 0.819580 0.397822 -0.336712
H18   H     H_    0.031468 0.912537 0.431136 0.177514
H19   H     H_    0.944680 0.806010 0.443874 0.148959
H20   H     H_    0.002893 0.820825 0.282003 0.185037
C33   C     C_3   0.926551 0.576144 0.238299 -0.357314
C34   C     C_3   0.989557 0.594503 0.121254 -0.862108
H21   H     H_    0.048586 0.639614 0.159994 0.276710
H22   H     H_    0.005053 0.503849 0.073478 0.259291
H23   H     H_    0.960941 0.654109 0.039606 0.234026
H24   H     H_    0.879045 0.505200 0.205837 0.206637
H25   H     H_    0.891917 0.663729 0.256485 0.184048
C35   C     C_3   0.067884 0.423141 0.769407 -0.370229
C36   C     C_3   0.125487 0.517554 0.842952 -0.827991
H26   H     H_    0.174888 0.552734 0.772058 0.265115
H27   H     H_    0.088502 0.596187 0.882916 0.265926
H28   H     H_    0.156988 0.472878 0.934060 0.231885
H29   H     H_    0.015540 0.397644 0.840103 0.203703
H30   H     H_    0.105729 0.338956 0.748720 0.194797
C37   C     C_3   0.349359 0.127964 0.389163 -0.349968
C38   C     C_3   0.297027 0.180896 0.508629 -0.871473
H31   H     H_    0.276553 0.106760 0.580877 0.244496
H32   H     H_    0.333656 0.250149 0.570452 0.250502
H33   H     H_    0.240057 0.226524 0.464840 0.230703
H34   H     H_    0.367343 0.203383 0.316536 0.199090
H35   H     H_    0.308137 0.064649 0.326447 0.240361
C39   C     C_3   0.644591 0.873824 0.630313 -0.331949
C40   C     C_3   0.639276 0.881803 0.789582 -0.766896
H36   H     H_    0.578684 0.841496 0.825507 0.246816
H37   H     H_    0.692139 0.829345 0.837890 0.210156
H38   H     H_    0.643802 0.979786 0.825304 0.278939
H39   H     H_    0.648937 0.774899 0.599298 0.171073
H40   H     H_    0.704830 0.916388 0.596488 0.205752
O11   O     O_3   0.366707 0.863170 0.378632 -0.578237
C41   C     C_3   0.307172 0.825740 0.478910 -0.274510
H41   H     H_    0.336619 0.775289 0.568149 0.144261
H42   H     H_    0.261196 0.761878 0.427289 0.215978
H43   H     H_    0.271005 0.905777 0.518394 0.165884
O12   O     O_3   0.636843 0.135842 0.606992 -0.566941
C42   C     C_3   0.691732 0.164740 0.496240 -0.304149
H44   H     H_    0.749099 0.210175 0.540862 0.229821
H45   H     H_    0.662308 0.230763 0.421522 0.159440
H46   H     H_    0.712239 0.080400 0.438731 0.135764

loop_
_geom_bond_atom_site_label_1
_geom_bond_atom_site_label_2
_ccdc_geom_bond_type
C9    N1    A    
C32   H19   S    
C42   H44   S    
C7    H1    S    
C20   C33   S    
O11   C41   S    
C36   H26   S    
C37   C38   S    
Cu1   N1    S    
C17   C23   T    
C18   C24   T    
C14   C21   S    
C19   C21   S    
C16   C29   S    
C16   C19   S    
C6    C25   A    
C13   O9    S    
Cu2   O6    S    
Cu1   O4    S    
C31   H16   S    
C14   O10   S    
C41   H43   S    
Cu2   O7    S    
C33   H24   S    
C12   O8    A    
Cu1   O5    S    
C34   H21   S    
C41   H42   S    
C33   H25   S    
C40   H37   S    
C27   H8    S    
C37   H34   S    
C28   H7    S    
C1    O3    A    
C31   H17   S    
C32   H20   S    
Cu2   N2    S    
C42   H45   S    
C35   H30   S    
C25   C37   S    
C28   H6    S    
C15   C20   S    
C39   H40   S    
C35   C36   S    
C13   C19   S    
C30   H10   S    
C14   C20   S    
C3    C25   A    
C4    C6    A    
C27   H9    S    
Cu1   O1    S    
C31   H15   S    
C29   H14   S    
C33   C34   S    
C30   H11   S    
C12   O6    A    
C27   C28   S    
O10   C32   S    
C2    O4    A    
C41   H41   S    
C29   C30   S    
C10   N2    A    
C40   H38   S    
C11   O5    A    
C36   H27   S    
C37   H35   S    
C8    C10   A    
C20   C22   S    
C42   H46   S    
C38   H32   S    
C35   H29   S    
C13   C15   S    
C7    N2    A    
C14   C16   S    
C2    C5    S    
Cu1   Cu2   S    
C28   H5    S    
C1    O1    A    
C2    O2    A    
C7    C9    A    
C39   H39   S    
C11   C17   S    
C16   C22   S    
C19   C35   S    
C32   H18   S    
C3    C5    A    
C4    C26   A    
C38   H33   S    
C29   H13   S    
C4    O12   S    
C30   H12   S    
C8    H2    S    
C21   C23   S    
C15   C27   S    
Cu1   O8    S    
O9    C31   S    
Cu2   O3    S    
C34   H23   S    
O12   C42   S    
C13   C22   S    
C11   O7    A    
C22   C24   S    
C8    N1    A    
C36   H28   S    
C9    H3    S    
C5    C26   A    
C10   H4    S    
C15   C21   S    
C39   C40   S    
Cu2   O2    S    
C26   C39   S    
C38   H31   S    
C12   C18   S    
C1    C6    S    
C34   H22   S    
C3    O11   S    
C40   H36   S    
