data_mof_unit_49481.cif
_audit_creation_date              2012-12-11T14:32:54-0500
_audit_creation_method            fapswitch 2.2
_symmetry_space_group_name_H-M    P1
_symmetry_Int_Tables_number       1
_space_group_crystal_system       triclinic
_cell_length_a                    6.945959
_cell_length_b                    13.745356
_cell_length_c                    17.929237
_cell_angle_alpha                 112.458078
_cell_angle_beta                  95.618028
_cell_angle_gamma                 90.280926
_cell_volume                      1572.70017338

loop_
_atom_site_label
_atom_site_type_symbol
_atom_type_description
_atom_site_fract_x
_atom_site_fract_y
_atom_site_fract_z
_atom_type_partial_charge
O1    O     O_R   0.484560 0.544530 0.414330 -0.543213
O2    O     O_R   0.197040 0.638810 0.585080 -0.545021
O3    O     O_R   0.026800 0.455470 0.585670 -0.528632
C1    C     C_R   0.374122 0.678704 0.610807 0.671068
O4    O     O_R   0.155000 0.556150 0.414940 -0.548351
O5    O     O_R   0.984450 0.372220 0.414320 -0.524497
C2    C     C_R   0.317574 0.565084 0.386567 0.739511
O6    O     O_R   0.526900 0.627780 0.585680 -0.546080
O7    O     O_3   0.339170 0.439750 0.499990 -0.344711
V1    V     V_3+5 0.064350 0.511180 0.500000 1.436000
O8    O     O_R   0.654880 0.361190 0.414920 -0.543400
C3    C     C_R   0.816929 0.324227 0.386679 0.798797
O9    O     O_R   0.696930 0.443850 0.585060 -0.533200
C4    C     C_R   0.873307 0.433997 0.612607 0.760623
V2    V     V_3+5 0.564340 0.488820 0.500000 1.439306
O10   O     O_3   0.839390 0.560250 0.500010 -0.389127
C5    C     C_R   0.040997 0.861056 0.822635 -0.049348
C6    C     C_R   0.906700 0.398107 0.680241 -0.060693
C7    C     C_R   0.921236 0.821558 0.682527 -0.127464
C8    C     C_R   0.973230 0.788173 0.745490 -0.143896
C9    C     C_R   0.051596 0.968972 0.837000 -0.212351
C10   C     C_R   0.996987 0.005475 0.773777 0.097255
C11   C     C_R   0.933145 0.928795 0.695721 0.109382
C12   C     C_R   0.002131 0.114709 0.785109 0.076791
C13   C     C_R   0.945240 0.144659 0.717908 0.039464
C14   C     C_R   0.886972 0.064376 0.641504 -0.156981
C15   C     C_R   0.880493 0.959069 0.631013 -0.203012
C16   C     C_R   0.062266 0.194961 0.861311 -0.175356
C17   C     C_R   0.069686 0.300234 0.871696 -0.214683
C18   C     C_R   0.015917 0.330515 0.807095 0.127142
C19   C     C_R   0.949887 0.253903 0.729320 0.056255
C20   C     C_R   0.029388 0.437640 0.820038 -0.119974
C21   C     C_R   0.977598 0.470887 0.756985 -0.171643
C22   C     C_R   0.892468 0.290462 0.666435 -0.147863
H1    H     H_    0.832732 0.900403 0.571271 0.134562
H2    H     H_    0.838996 0.237817 0.605923 0.168777
H3    H     H_    0.994279 0.553720 0.768075 0.092230
H4    H     H_    0.119404 0.358838 0.931225 0.114080
H5    H     H_    0.869676 0.763230 0.623228 0.136139
H6    H     H_    0.958770 0.705146 0.734050 0.085497
H7    H     H_    0.099636 0.021746 0.898189 0.090719
H8    H     H_    0.844525 0.080038 0.587971 0.168484
H9    H     H_    0.106819 0.179228 0.914631 0.119664
H10   H     H_    0.082746 0.495910 0.879105 0.138211
H11   H     H_    0.114844 0.222834 0.310521 0.153797
H12   H     H_    0.834974 0.033512 0.194411 0.153282
C23   C     C_2   0.136258 0.037225 0.184705 -0.333477
C24   C     C_2   0.973371 0.076997 0.217956 -0.120358
H13   H     H_    0.674541 0.176874 0.294658 0.116017
C25   C     C_2   0.812805 0.220244 0.318925 -0.325224
C26   C     C_2   0.976237 0.179680 0.286599 -0.074278
H14   H     H_    0.274359 0.080871 0.208680 0.124677
C27   C     C_R   0.409563 0.785112 0.677692 -0.058374
C28   C     C_R   0.538623 0.472955 0.824604 -0.049171
C29   C     C_R   0.530627 0.888184 0.817749 -0.128734
C30   C     C_R   0.479581 0.791153 0.755096 -0.144266
C31   C     C_R   0.396780 0.879615 0.663439 -0.210904
C32   C     C_R   0.451183 0.980808 0.726885 0.125132
C33   C     C_R   0.516139 0.982323 0.804727 0.121292
C34   C     C_R   0.445279 0.080141 0.716445 -0.014617
C35   C     C_R   0.499833 0.177899 0.783878 0.069716
C36   C     C_R   0.559322 0.173096 0.859795 -0.155088
C37   C     C_R   0.567930 0.077644 0.869617 -0.221446
C38   C     C_R   0.389662 0.084216 0.640376 -0.265888
C39   C     C_R   0.383804 0.178733 0.628351 0.408843
C40   C     C_R   0.432186 0.275782 0.694647 -0.034300
C41   C     C_R   0.493889 0.276968 0.773216 0.046044
C42   C     C_R   0.420598 0.372088 0.683867 -0.058623
C43   C     C_R   0.471593 0.468226 0.747476 -0.181575
C44   C     C_R   0.547490 0.377646 0.837668 -0.174005
H15   H     H_    0.616998 0.078505 0.929170 0.114690
H16   H     H_    0.594224 0.385098 0.898728 0.084937
H17   H     H_    0.457259 0.539808 0.736141 0.088499
H18   H     H_    0.583466 0.889628 0.877021 0.142937
H19   H     H_    0.496219 0.720248 0.767228 0.092103
H20   H     H_    0.346026 0.870925 0.602438 0.105150
H21   H     H_    0.602423 0.242165 0.913360 0.117427
H22   H     H_    0.351558 0.013253 0.588070 0.185006
H23   H     H_    0.370784 0.374971 0.625973 0.210151
H24   H     H_    0.334339 0.667643 0.194557 0.155808
H25   H     H_    0.614923 0.590944 0.308301 0.150143
C45   C     C_2   0.314060 0.602432 0.318886 -0.333382
C46   C     C_2   0.476493 0.611120 0.285468 -0.123869
H26   H     H_    0.773267 0.636087 0.207102 0.126035
C47   C     C_2   0.635127 0.656017 0.183843 -0.341890
C48   C     C_2   0.472782 0.647435 0.217354 -0.116024
H27   H     H_    0.175956 0.622349 0.295586 0.128975
O11   O     O_R   0.421600 0.630430 0.917010 -0.539450
O12   O     O_R   0.793840 0.702190 0.087630 -0.541818
O13   O     O_R   0.964010 0.886170 0.088190 -0.535838
C49   C     C_R   0.631388 0.693258 0.116095 0.763200
O14   O     O_R   0.751460 0.619510 0.917500 -0.539069
O15   O     O_R   0.921330 0.802900 0.916840 -0.542165
C50   C     C_R   0.574351 0.579162 0.892142 0.679388
O16   O     O_R   0.464290 0.713700 0.088350 -0.536707
O17   O     O_3   0.609200 0.818520 0.002630 -0.374779
V3    V     V_3+5 0.884140 0.747190 0.002530 1.376802
O18   O     O_R   0.251150 0.814630 0.917340 -0.542222
C51   C     C_R   0.074655 0.824740 0.890026 0.688714
O19   O     O_R   0.293530 0.897310 0.087470 -0.541457
C52   C     C_R   0.131706 0.933870 0.116185 0.767098
V4    V     V_3+5 0.384070 0.769710 0.002370 1.377263
O20   O     O_3   0.109180 0.698190 0.002460 -0.375316
S1    S     S_3+6 0.323195 0.170266 0.527144 -0.048820
O21   O     O_2   0.285925 0.057486 0.469227 -0.342356
O22   O     O_2   0.145148 0.230085 0.522520 -0.358648
O23   O     O_3   0.508419 0.222938 0.499284 -0.518248
H28   H     H_    0.477507 0.203217 0.440094 0.358798

loop_
_geom_bond_atom_site_label_1
_geom_bond_atom_site_label_2
_ccdc_geom_bond_type
C13   C19   A    
C40   C42   A    
C29   C30   A    
C23   C52   S    
O17   V4    S    
C1    C27   S    
C4    C6    S    
C36   H21   S    
O2    C1    A    
C7    C8    A    
C1    O6    A    
S1    O22   D    
C47   C49   S    
C47   C48   D    
C14   C15   A    
C17   C18   A    
C31   H20   S    
C16   C17   A    
C29   C33   A    
O5    C3    A    
C18   C19   A    
C8    H6    S    
H11   C26   S    
C32   C34   A    
V2    O10   S    
C5    C8    A    
H24   C48   S    
C29   H18   S    
O8    V2    S    
C24   C26   S    
C42   C43   A    
C17   H4    S    
O23   H28   S    
C43   H17   S    
O1    V2    S    
C11   C15   A    
O12   C49   A    
O7    V1    S    
O15   C51   A    
O13   V3    S    
O16   V4    S    
C42   H23   S    
C40   C41   A    
C30   H19   S    
O9    C4    A    
V4    O20   S    
O19   V4    S    
S1    O21   D    
H25   C46   S    
O14   V3    S    
H12   C24   S    
O11   C50   A    
H26   C47   S    
O4    C2    A    
C27   C31   A    
C15   H1    S    
C32   C33   A    
O18   V4    S    
C45   C46   D    
C21   H3    S    
O12   V3    S    
C34   C35   A    
C7    C11   A    
O13   C52   A    
C36   C37   A    
C5    C51   S    
C35   C41   A    
C3    C25   S    
C23   C24   D    
C28   C44   A    
O17   V3    S    
C46   C48   S    
O14   C50   A    
C25   C26   D    
C20   H10   S    
C19   C22   A    
C12   C13   A    
C6    C22   A    
V3    O20   S    
O3    C4    A    
C7    H5    S    
C9    H7    S    
C37   H15   S    
H13   C25   S    
O6    V2    S    
O9    V2    S    
C10   C12   A    
O2    V1    S    
O15   V3    S    
C14   H8    S    
C27   C30   A    
O1    C2    A    
C38   H22   S    
C12   C16   A    
O5    V1    S    
O11   V4    S    
O8    C3    A    
C23   H14   S    
C16   H9    S    
C33   C37   A    
C34   C38   A    
C41   C44   A    
C20   C21   A    
C13   C14   A    
O4    V1    S    
O3    V1    S    
V1    O10   S    
C38   C39   A    
C18   C20   A    
C31   C32   A    
C28   C43   A    
O19   C52   A    
C22   H2    S    
C39   C40   A    
O7    V2    S    
C35   C36   A    
C6    C21   A    
C5    C9    A    
C28   C50   S    
C49   O16   A    
C2    C45   S    
O18   C51   A    
C10   C11   A    
C44   H16   S    
C39   S1    S    
C9    C10   A    
S1    O23   S    
C45   H27   S    
