data_mof_unit_40975.cif
_audit_creation_date              2013-03-05T15:48:07-0500
_audit_creation_method            fapswitch 2.2
_symmetry_space_group_name_H-M    P1
_symmetry_Int_Tables_number       1
_space_group_crystal_system       triclinic
_cell_length_a                    15.083536
_cell_length_b                    12.998059
_cell_length_c                    11.675931
_cell_angle_alpha                 99.867817
_cell_angle_beta                  93.592573
_cell_angle_gamma                 90.628104
_cell_volume                      2250.29801698

loop_
_atom_site_label
_atom_site_type_symbol
_atom_site_description
_atom_site_fract_x
_atom_site_fract_y
_atom_site_fract_z
_atom_type_partial_charge
O1    O     O_R   0.504720 0.354460 0.582000 -0.613267
O2    O     O_R   0.495280 0.645540 0.418000 -0.613267
O3    O     O_R   0.493480 0.341410 0.386200 -0.539055
O4    O     O_R   0.506520 0.658590 0.613800 -0.539059
C1    C     C_R   0.499176 0.299085 0.478621 0.822801
C2    C     C_R   0.500824 0.700914 0.521379 0.822798
O5    O     O_R   0.375880 0.506510 0.597910 -0.552604
O6    O     O_R   0.624120 0.493490 0.402090 -0.552601
O7    O     O_R   0.364640 0.493450 0.402110 -0.551145
O8    O     O_R   0.635360 0.506550 0.597890 -0.551146
C3    C     C_R   0.328785 0.502212 0.500909 0.863064
C4    C     C_R   0.671215 0.497786 0.499090 0.863072
Cu1   Cu    Cu3+1 0.506660 0.507730 0.615930 1.028265
Cu2   Cu    Cu3+1 0.493340 0.492270 0.384070 1.028268
C5    C     C_R   0.818401 0.551470 0.592448 -0.284102
C6    C     C_R   0.181599 0.448522 0.407553 -0.284100
C7    C     C_R   0.767818 0.494873 0.497482 -0.182701
C8    C     C_R   0.232181 0.505121 0.502519 -0.182701
C9    C     C_R   0.809555 0.438491 0.401930 0.292703
C10   C     C_R   0.190444 0.561501 0.598070 0.292708
C11   C     C_R   0.902927 0.440486 0.402530 -0.007924
C12   C     C_R   0.097073 0.559504 0.597472 -0.007923
C13   C     C_R   0.953308 0.498766 0.498957 0.042713
C14   C     C_R   0.046692 0.501224 0.501045 0.042713
C15   C     C_R   0.910551 0.554293 0.593678 0.109123
C16   C     C_R   0.089449 0.445697 0.406324 0.109123
C17   C     C_R   0.947295 0.384244 0.310044 -0.143710
C18   C     C_R   0.052706 0.615743 0.689959 -0.143711
C19   C     C_R   0.039573 0.387374 0.311785 -0.198995
C20   C     C_R   0.960427 0.612614 0.688218 -0.198994
H1    H     H_    0.785685 0.595215 0.664964 0.202839
H2    H     H_    0.214316 0.404778 0.335037 0.202839
H3    H     H_    0.911327 0.337240 0.235876 0.197931
H4    H     H_    0.088674 0.662746 0.764128 0.197929
H5    H     H_    0.072036 0.343756 0.239079 0.152916
H6    H     H_    0.927964 0.656231 0.760925 0.152916
C21   C     C_R   0.499738 0.814279 0.533625 -0.044415
C22   C     C_R   0.500262 0.185721 0.466375 -0.044415
C23   C     C_R   0.512372 0.015685 0.346537 -0.212088
C24   C     C_R   0.487628 0.984315 0.653463 -0.212086
C25   C     C_R   0.510132 0.123737 0.357240 -0.156157
C26   C     C_R   0.489868 0.876263 0.642760 -0.156157
C27   C     C_R   0.492686 0.139055 0.564949 -0.259949
C28   C     C_R   0.507314 0.860944 0.435051 -0.259947
C29   C     C_R   0.495045 0.031081 0.555043 0.173798
C30   C     C_R   0.504955 0.968919 0.444957 0.173798
H7    H     H_    0.515169 0.813443 0.350530 0.151929
H8    H     H_    0.484831 0.186557 0.649470 0.151929
H9    H     H_    0.482925 0.841273 0.719530 0.175310
H10   H     H_    0.517076 0.158726 0.280470 0.175312
H11   H     H_    0.520196 0.968869 0.261713 0.139423
H12   H     H_    0.479804 0.031131 0.738288 0.139423
N1    N     N_R   0.516670 0.519360 0.790130 -0.219958
N2    N     N_R   0.483330 0.480640 0.209870 -0.219957
C31   C     C_R   0.414481 0.404061 0.021558 -0.376324
C32   C     C_R   0.585519 0.595939 0.978442 -0.376325
C33   C     C_R   0.423614 0.410575 0.144569 0.723157
C34   C     C_R   0.576386 0.589425 0.855431 0.723156
C35   C     C_R   0.537063 0.541153 0.156778 0.009583
C36   C     C_R   0.462937 0.458847 0.843221 0.009588
C37   C     C_R   0.531071 0.534623 0.034121 0.007052
C38   C     C_R   0.468929 0.465377 0.965878 0.007052
H13   H     H_    0.415494 0.405068 0.789919 0.142355
H14   H     H_    0.584506 0.594932 0.210081 0.142353
H15   H     H_    0.364901 0.352336 0.969642 0.150496
H16   H     H_    0.635099 0.647664 0.030357 0.150496
N3    N     N_R   0.757467 0.377031 0.306814 0.115885
O9    O     O_R   0.753798 0.403782 0.204252 -0.372506
O10   O     O_R   0.709185 0.298371 0.324474 -0.374085
N4    N     N_R   0.242532 0.622964 0.693185 0.115886
O11   O     O_R   0.290794 0.701642 0.675527 -0.374084
O12   O     O_R   0.246215 0.596206 0.795744 -0.372504
O13   O     O_3   0.631180 0.646843 0.797461 -0.563785
C39   C     C_3   0.639563 0.752326 0.852588 -0.373433
H17   H     H_    0.693059 0.761957 0.923615 0.171464
H18   H     H_    0.575932 0.783916 0.885956 0.155403
H19   H     H_    0.659428 0.799731 0.787558 0.197981
O14   O     O_3   0.368820 0.353157 0.202539 -0.563786
C40   C     C_3   0.360439 0.247674 0.147413 -0.373431
H20   H     H_    0.424070 0.216085 0.114046 0.155403
H21   H     H_    0.306943 0.238041 0.076385 0.171464
H22   H     H_    0.340574 0.200269 0.212443 0.197981

loop_
_geom_bond_atom_site_label_1
_geom_bond_atom_site_label_2
_geom_bond_distance
_ccdc_geom_bond_type
C23   H11   1.083867 S    
C3    C8    1.459241 S    
C17   C19   1.390810 A    
O13   C39   1.411962 S    
C23   C25   1.389495 A    
C29   C30   1.413534 A    
C17   H3    1.081689 S    
O5    C3    1.291153 A    
C35   H14   1.082667 S    
C39   H18   1.114546 S    
C36   H13   1.082667 S    
O1    C1    1.292388 A    
C9    C11   1.407889 A    
C14   C16   1.409247 A    
C5    C15   1.389133 A    
C31   C38   1.400881 A    
O4    Cu1   1.965325 S    
C36   C38   1.417155 A    
C21   C26   1.403391 A    
C39   H19   1.109415 S    
C4    C7    1.459242 S    
C13   C14   1.407158 A    
C9    N3    1.435838 S    
N4    O11   1.301161 A    
C27   H8    1.084700 S    
C28   H7    1.084701 S    
C24   C26   1.389495 A    
C11   C17   1.406793 A    
C18   H4    1.081689 S    
C12   C18   1.406791 A    
Cu1   Cu2   2.674709 S    
C10   N4    1.435836 S    
O2    C2    1.292386 A    
C31   H15   1.082226 S    
N1    C36   1.369636 A    
C28   C30   1.389353 A    
Cu1   N1    2.009533 S    
N2    C35   1.369636 A    
C11   C13   1.416601 A    
C6    C16   1.389134 A    
C24   C29   1.398790 A    
C35   C37   1.417155 A    
C39   H17   1.110345 S    
N3    O9    1.301088 A    
C22   C25   1.403391 A    
O4    C2    1.291272 A    
C40   H21   1.110345 S    
O14   C40   1.411962 S    
C24   H12   1.083866 S    
N3    O10   1.301153 A    
O7    Cu2   1.965667 S    
O7    C3    1.292554 A    
O6    C4    1.291151 A    
C2    C21   1.456224 S    
C27   C29   1.389353 A    
O3    Cu2   1.965326 S    
O8    C4    1.292556 A    
C23   C30   1.398790 A    
Cu2   N2    2.009531 S    
C10   C12   1.407885 A    
C31   C33   1.422063 A    
C12   C14   1.416601 A    
O1    Cu1   1.963024 S    
C25   H10   1.082469 S    
C15   C20   1.398469 A    
C5    C7    1.398168 A    
O6    Cu2   1.970262 S    
C33   O14   1.388498 S    
O3    C1    1.291272 A    
O8    Cu1   1.965667 S    
C40   H22   1.109415 S    
N1    C34   1.371130 A    
C5    H1    1.084997 S    
C6    H2    1.084997 S    
C19   H5    1.083999 S    
C20   H6    1.083999 S    
C21   C28   1.399954 A    
C18   C20   1.390810 A    
C22   C27   1.399955 A    
C32   H16   1.082225 S    
C7    C9    1.412792 A    
C32   C34   1.422063 A    
C8    C10   1.412787 A    
C13   C15   1.409246 A    
C37   C38   1.402025 A    
O2    Cu2   1.963025 S    
C26   H9    1.082469 S    
C40   H20   1.114548 S    
O5    Cu1   1.970259 S    
C16   C19   1.398469 A    
C6    C8    1.398169 A    
C32   C37   1.400882 A    
N4    O12   1.301087 A    
C1    C22   1.456224 S    
C34   O13   1.388498 S    
N2    C33   1.371131 A    
