data_mof_unit_6834.cif
_audit_creation_date              2012-12-11T15:35:19-0500
_audit_creation_method            fapswitch 2.2
_symmetry_space_group_name_H-M    P1
_symmetry_Int_Tables_number       1
_space_group_crystal_system       monoclinic
_cell_length_a                    17.284097
_cell_length_b                    24.311483
_cell_length_c                    14.789905
_cell_angle_alpha                 90.0
_cell_angle_beta                  124.870897
_cell_angle_gamma                 90.0
_cell_volume                      5098.84277818

loop_
_atom_site_label
_atom_site_type_symbol
_atom_type_description
_atom_site_fract_x
_atom_site_fract_y
_atom_site_fract_z
_atom_type_partial_charge
C1    C     C_R   0.351362 0.152240 0.908833 -0.108427
C2    C     C_R   0.596274 0.129580 0.909203 0.451927
C3    C     C_R   0.253583 0.545794 0.305874 -0.146448
C4    C     C_3   0.841125 0.889348 0.591989 -0.201468
C5    C     C_3   0.841122 0.110649 0.591992 -0.201464
C6    C     C_3   0.341123 0.389352 0.591995 -0.201465
C7    C     C_3   0.341131 0.610654 0.591993 -0.201466
C8    C     C_R   0.096274 0.370420 0.909203 0.451927
C9    C     C_R   0.096274 0.629580 0.909203 0.451927
C10   C     C_R   0.427424 1.000000 0.628062 -0.022240
C11   C     C_R   0.927424 0.500000 0.628062 -0.022240
C12   C     C_R   0.799538 1.000000 0.369374 0.122679
C13   C     C_R   0.299539 0.500000 0.369374 0.122681
C14   C     C_R   0.687575 0.139566 0.001455 -0.065707
C15   C     C_R   0.687575 0.860434 0.001455 -0.065707
C16   C     C_R   0.187575 0.639566 0.001455 -0.065706
C17   C     C_R   0.351362 0.847760 0.908833 -0.108427
C18   C     C_R   0.187575 0.360434 0.001455 -0.065707
C19   C     C_3   0.021913 0.948560 0.642508 -0.534377
C20   C     C_3   0.021913 0.051441 0.642506 -0.534378
C21   C     C_3   0.521913 0.448559 0.642506 -0.534384
C22   C     C_3   0.521912 0.551440 0.642508 -0.534385
C23   C     C_3   0.917844 0.947282 0.541793 0.590372
C24   C     C_3   0.917844 0.052717 0.541794 0.590368
C25   C     C_3   0.417844 0.447283 0.541794 0.590369
C26   C     C_3   0.417845 0.552718 0.541792 0.590375
C27   C     C_3   0.064043 0.999999 0.526914 -0.392669
C28   C     C_R   0.851362 0.652240 0.908833 -0.108427
C29   C     C_3   0.564044 0.500001 0.526915 -0.392668
C30   C     C_3   0.072481 0.000000 0.637061 0.261744
C31   C     C_3   0.572481 0.500000 0.637062 0.261747
C32   C     C_3   0.896251 1.000000 0.470343 0.091995
C33   C     C_3   0.396252 0.500000 0.470343 0.091997
C34   C     C_R   0.445045 0.847593 0.092347 -0.146205
C35   C     C_R   0.445045 0.152407 0.092347 -0.146205
C36   C     C_R   0.945045 0.347593 0.092347 -0.146205
C37   C     C_R   0.945045 0.652407 0.092347 -0.146205
C38   C     C_3   0.961140 0.000000 0.429466 -0.632614
C39   C     C_R   0.851362 0.347760 0.908833 -0.108428
C40   C     C_3   0.461141 0.499999 0.429466 -0.632618
C41   C     C_R   0.306288 0.727471 0.909994 -0.169779
C42   C     C_R   0.306288 0.272529 0.909994 -0.169779
C43   C     C_R   0.806288 0.227471 0.909994 -0.169779
C44   C     C_R   0.806288 0.772528 0.909994 -0.169779
C45   C     C_R   0.758572 0.181817 0.911018 -0.106519
C46   C     C_R   0.758572 0.818183 0.911018 -0.106518
C47   C     C_R   0.258572 0.681817 0.911018 -0.106517
C48   C     C_R   0.258572 0.318183 0.911018 -0.106518
C49   C     C_R   0.763405 0.169532 0.006785 0.162322
C50   C     C_R   0.689630 0.123131 0.092529 -0.201566
C51   C     C_R   0.763405 0.830468 0.006785 0.162321
C52   C     C_R   0.263405 0.669532 0.006785 0.162321
C53   C     C_R   0.263405 0.330468 0.006785 0.162321
C54   C     C_R   0.834919 0.193161 0.107008 -0.166453
C55   C     C_R   0.834920 0.806840 0.107008 -0.166453
C56   C     C_R   0.334920 0.693160 0.107008 -0.166453
C57   C     C_R   0.334920 0.306839 0.107008 -0.166453
C58   C     C_R   0.384331 0.737425 0.106857 -0.174485
C59   C     C_R   0.384331 0.262575 0.106857 -0.174485
C60   C     C_R   0.884331 0.237425 0.106857 -0.174485
C61   C     C_R   0.689630 0.876869 0.092529 -0.201567
C62   C     C_R   0.884331 0.762575 0.106857 -0.174485
C63   C     C_R   0.362067 0.758514 0.006436 0.140795
C64   C     C_R   0.362067 0.241486 0.006436 0.140795
C65   C     C_R   0.862067 0.258514 0.006436 0.140796
C66   C     C_R   0.862067 0.741486 0.006436 0.140795
C67   C     C_R   0.382828 0.950199 0.458502 -0.154196
C68   C     C_R   0.382828 0.049801 0.458502 -0.154196
C69   C     C_R   0.882828 0.450199 0.458502 -0.154197
C70   C     C_R   0.882828 0.549801 0.458502 -0.154197
C71   C     C_R   0.386767 0.950227 0.367596 -0.159116
C72   C     C_R   0.189630 0.623131 0.092529 -0.201566
C73   C     C_R   0.386767 0.049773 0.367596 -0.159117
C74   C     C_R   0.886767 0.450227 0.367596 -0.159116
C75   C     C_R   0.886767 0.549772 0.367596 -0.159116
C76   C     C_R   0.400007 1.000000 0.330315 0.137334
C77   C     C_R   0.900007 0.500000 0.330315 0.137334
C78   C     C_R   0.478638 0.045816 0.247873 -0.102861
C79   C     C_R   0.478638 0.954184 0.247873 -0.102860
C80   C     C_R   0.978638 0.545816 0.247873 -0.102858
C81   C     C_R   0.978638 0.454184 0.247873 -0.102861
C82   C     C_R   0.391225 1.000000 0.511291 0.132129
C83   C     C_R   0.189630 0.376869 0.092529 -0.201566
C84   C     C_R   0.891225 0.500000 0.511291 0.132130
C85   C     C_R   0.231011 0.953695 0.751421 -0.150166
C86   C     C_R   0.231011 0.046305 0.751422 -0.150167
C87   C     C_R   0.731011 0.453695 0.751422 -0.150168
C88   C     C_R   0.731011 0.546305 0.751422 -0.150167
C89   C     C_R   0.384023 0.184222 0.001782 0.055286
C90   C     C_R   0.384023 0.815778 0.001782 0.055286
C91   C     C_R   0.884023 0.684222 0.001782 0.055286
C92   C     C_R   0.884023 0.315778 0.001782 0.055287
C93   C     C_R   0.446393 1.000000 0.273006 0.035045
C94   C     C_R   0.596274 0.870420 0.909203 0.451927
C95   C     C_R   0.946393 0.500000 0.273006 0.035044
C96   C     C_R   0.174413 0.000000 0.724762 0.082720
C97   C     C_R   0.674414 0.500000 0.724763 0.082720
C98   C     C_R   0.445373 0.045131 0.693184 -0.064318
C99   C     C_R   0.445373 0.954869 0.693184 -0.064317
C100  C     C_R   0.945372 0.545131 0.693184 -0.064317
C101  C     C_R   0.945372 0.454869 0.693184 -0.064318
C102  C     C_R   0.753583 0.954206 0.305874 -0.146451
C103  C     C_R   0.753582 0.045794 0.305874 -0.146457
C104  C     C_R   0.253583 0.454206 0.305873 -0.146458
Cl1   Cl    Cl    0.539203 0.835983 0.782063 -0.756833
Cl2   Cl    Cl    0.539203 0.164017 0.782063 -0.756832
Cl3   Cl    Cl    0.039203 0.335983 0.782063 -0.756832
Cl4   Cl    Cl    0.039203 0.664017 0.782063 -0.756832
H1    H     H_    0.312212 0.166405 0.824476 0.098660
H2    H     H_    0.909672 0.089137 0.490883 -0.026721
H3    H     H_    0.409672 0.410863 0.490883 -0.026720
H4    H     H_    0.409678 0.589136 0.490881 -0.026717
H5    H     H_    0.099489 0.963095 0.521643 0.177386
H6    H     H_    0.099493 0.036901 0.521643 0.177387
H7    H     H_    0.599494 0.463099 0.521645 0.177387
H8    H     H_    0.599489 0.536905 0.521644 0.177386
H9    H     H_    0.947246 0.963149 0.377395 0.199842
H10   H     H_    0.947248 0.036854 0.377399 0.199841
H11   H     H_    0.447250 0.463145 0.377401 0.199841
H12   H     H_    0.312212 0.833595 0.824476 0.098660
H13   H     H_    0.447247 0.536850 0.377394 0.199842
H14   H     H_    0.293475 0.740572 0.832628 0.121770
H15   H     H_    0.293475 0.259428 0.832628 0.121770
H16   H     H_    0.793475 0.240572 0.832629 0.121770
H17   H     H_    0.793475 0.759428 0.832629 0.121770
H18   H     H_    0.712472 0.159490 0.835157 0.168930
H19   H     H_    0.712472 0.840510 0.835157 0.168930
H20   H     H_    0.212471 0.659490 0.835157 0.168930
H21   H     H_    0.212471 0.340510 0.835157 0.168930
H22   H     H_    0.846480 0.182331 0.184622 0.110166
H23   H     H_    0.812212 0.666405 0.824476 0.098660
H24   H     H_    0.846481 0.817670 0.184622 0.110166
H25   H     H_    0.346481 0.682330 0.184622 0.110166
H26   H     H_    0.346481 0.317670 0.184622 0.110166
H27   H     H_    0.431009 0.758350 0.184355 0.110616
H28   H     H_    0.431009 0.241650 0.184355 0.110616
H29   H     H_    0.931008 0.258350 0.184355 0.110616
H30   H     H_    0.931008 0.741650 0.184355 0.110616
H31   H     H_    0.383711 0.910923 0.493279 0.128621
H32   H     H_    0.383711 0.089077 0.493279 0.128622
H33   H     H_    0.883711 0.410923 0.493279 0.128622
H34   H     H_    0.812212 0.333595 0.824476 0.098661
H35   H     H_    0.883711 0.589077 0.493279 0.128622
H36   H     H_    0.493921 0.833883 0.176274 0.091042
H37   H     H_    0.493921 0.166117 0.176274 0.091041
H38   H     H_    0.993921 0.333883 0.176274 0.091041
H39   H     H_    0.993921 0.666117 0.176274 0.091042
H40   H     H_    0.389998 0.911012 0.335484 0.112115
H41   H     H_    0.389998 0.088988 0.335484 0.112115
H42   H     H_    0.889998 0.411012 0.335484 0.112115
H43   H     H_    0.889998 0.588988 0.335484 0.112115
H44   H     H_    0.468146 0.088545 0.257585 0.092261
H45   H     H_    0.026657 0.949064 0.720795 0.200492
H46   H     H_    0.468146 0.911455 0.257585 0.092261
H47   H     H_    0.968147 0.588545 0.257585 0.092261
H48   H     H_    0.968147 0.411455 0.257585 0.092261
H49   H     H_    0.210010 0.911086 0.735967 0.103247
H50   H     H_    0.210010 0.088914 0.735967 0.103248
H51   H     H_    0.710010 0.411086 0.735968 0.103248
H52   H     H_    0.710010 0.588914 0.735967 0.103247
H53   H     H_    0.419833 0.086013 0.662937 0.157168
H54   H     H_    0.419833 0.913987 0.662937 0.157168
H55   H     H_    0.919833 0.586013 0.662937 0.157168
H56   H     H_    0.026661 0.050939 0.720795 0.200489
H57   H     H_    0.919833 0.413987 0.662937 0.157168
H58   H     H_    0.765759 0.911829 0.332469 0.086893
H59   H     H_    0.765759 0.088171 0.332469 0.086891
H60   H     H_    0.265759 0.411829 0.332469 0.086893
H61   H     H_    0.265759 0.588171 0.332469 0.086896
H62   H     H_    0.747730 0.125576 0.177927 0.118625
H63   H     H_    0.747730 0.874424 0.177927 0.118624
H64   H     H_    0.247730 0.625576 0.177927 0.118624
H65   H     H_    0.247730 0.374424 0.177927 0.118625
H66   H     H_    0.055687 0.909923 0.641707 0.129463
H67   H     H_    0.526661 0.449061 0.720796 0.200488
H68   H     H_    0.055686 0.090077 0.641698 0.129465
H69   H     H_    0.555686 0.409922 0.641699 0.129467
H70   H     H_    0.555687 0.590077 0.641709 0.129464
H71   H     H_    0.908733 0.867659 0.650836 0.133894
H72   H     H_    0.799933 0.867057 0.512027 0.116797
H73   H     H_    0.799239 0.888951 0.627339 0.178026
H74   H     H_    0.799916 0.132937 0.512026 0.116803
H75   H     H_    0.908730 0.132343 0.650826 0.133886
H76   H     H_    0.799249 0.111043 0.627359 0.178027
H77   H     H_    0.408730 0.367662 0.650841 0.133892
H78   H     H_    0.526655 0.550935 0.720795 0.200491
H79   H     H_    0.299929 0.367061 0.512033 0.116798
H80   H     H_    0.299238 0.388958 0.627346 0.178026
H81   H     H_    0.299951 0.632950 0.512036 0.116793
H82   H     H_    0.408742 0.632337 0.650853 0.133898
H83   H     H_    0.299236 0.611051 0.627332 0.178026
H84   H     H_    0.909676 0.910864 0.490882 -0.026719
N1    N     N_R   0.392140 0.102630 0.941800 -0.040798
N2    N     N_R   0.525160 0.972040 0.206160 -0.038149
N3    N     N_R   0.025160 0.527960 0.206160 -0.038148
N4    N     N_R   0.025160 0.472040 0.206160 -0.038149
N5    N     N_R   0.317870 0.971120 0.792790 -0.044161
N6    N     N_R   0.317870 0.028880 0.792790 -0.044161
N7    N     N_R   0.817870 0.471120 0.792790 -0.044161
N8    N     N_R   0.817870 0.528880 0.792790 -0.044161
N9    N     N_R   0.473480 0.027920 0.793480 -0.054591
N10   N     N_R   0.473480 0.972080 0.793480 -0.054591
N11   N     N_R   0.973480 0.527920 0.793480 -0.054591
N12   N     N_R   0.392140 0.897370 0.941800 -0.040798
N13   N     N_R   0.973480 0.472080 0.793480 -0.054591
N14   N     N_R   0.681610 0.971120 0.207570 -0.039914
N15   N     N_R   0.681610 0.028880 0.207570 -0.039913
N16   N     N_R   0.181610 0.471120 0.207570 -0.039913
N17   N     N_R   0.181610 0.528880 0.207570 -0.039915
N18   N     N_R   0.605410 0.102620 0.056870 -0.057916
N19   N     N_R   0.605410 0.897380 0.056870 -0.057917
N20   N     N_R   0.105410 0.602620 0.056870 -0.057917
N21   N     N_R   0.105410 0.397380 0.056870 -0.057916
N22   N     N_R   0.549680 0.896430 0.944180 -0.075281
N23   N     N_R   0.892140 0.602630 0.941800 -0.040798
N24   N     N_R   0.549680 0.103570 0.944180 -0.075281
N25   N     N_R   0.049680 0.396430 0.944180 -0.075282
N26   N     N_R   0.049680 0.603570 0.944180 -0.075282
N27   N     N_R   0.892140 0.397370 0.941800 -0.040798
N28   N     N_R   0.450890 0.896450 0.057150 -0.041437
N29   N     N_R   0.450890 0.103550 0.057150 -0.041437
N30   N     N_R   0.950890 0.396450 0.057150 -0.041437
N31   N     N_R   0.950890 0.603550 0.057150 -0.041437
N32   N     N_R   0.525160 0.027960 0.206160 -0.038149
Ni1   Ni    Ni4+2 0.433410 0.064680 0.868830 0.234227
Ni2   Ni    Ni4+2 0.433410 0.935320 0.868830 0.234227
Ni3   Ni    Ni4+2 0.933410 0.564680 0.868830 0.234227
Ni4   Ni    Ni4+2 0.933410 0.435320 0.868830 0.234227
Ni5   Ni    Ni4+2 0.565650 0.934380 0.131170 0.213520
Ni6   Ni    Ni4+2 0.565650 0.065620 0.131170 0.213519
Ni7   Ni    Ni4+2 0.065650 0.434380 0.131170 0.213520
Ni8   Ni    Ni4+2 0.065650 0.565620 0.131170 0.213521
O1    O     O_3   0.856282 0.944513 0.576233 -0.564627
O2    O     O_3   0.856285 0.055484 0.576239 -0.564625
O3    O     O_3   0.356285 0.444517 0.576238 -0.564627
O4    O     O_3   0.356281 0.555488 0.576229 -0.564629

loop_
_geom_bond_atom_site_label_1
_geom_bond_atom_site_label_2
_ccdc_geom_bond_type
C9    N26   A    
C3    N17   A    
C65   C92   S    
C6    O3    S    
C94   Cl1   S    
C103  H59   S    
C36   N30   A    
N9    N10   A    
N9    Ni1   S    
C98   N9    A    
C44   C66   A    
C16   C72   A    
C87   N7    A    
C22   H70   S    
C15   C94   A    
N11   Ni3   S    
C56   H25   S    
C78   H44   S    
C47   H20   S    
N10   Ni2   S    
C54   C60   A    
C9    Cl4   S    
C2    N24   A    
C40   H13   S    
C21   C31   S    
C6    H77   S    
C34   H36   S    
C70   H35   S    
C79   N2    A    
N28   Ni5   S    
N12   N28   A    
C48   H21   S    
C72   H64   S    
C39   N27   A    
C9    C16   A    
C103  N15   A    
C79   C93   A    
C35   N29   A    
C35   H37   S    
C71   C76   A    
C81   C95   A    
C100  N11   A    
C34   N28   A    
C57   C59   A    
C14   C49   S    
C63   C90   S    
C27   C38   S    
C69   H33   S    
C49   C54   A    
C20   H56   S    
C55   C62   A    
C6    H80   S    
C59   H28   S    
C37   H39   S    
N13   Ni4   S    
C61   N19   A    
C10   C98   A    
C30   C96   S    
C8    N25   A    
C17   H12   S    
C1    H1    S    
C38   H9    S    
C77   C95   S    
C20   C24   S    
C75   H43   S    
N16   N17   A    
C21   H67   S    
C74   C77   A    
N29   Ni6   S    
C67   C71   A    
C39   H34   S    
C7    H82   S    
C61   H63   S    
C58   H27   S    
C32   C38   S    
C4    H73   S    
C28   C91   A    
C67   H31   S    
N7    Ni4   S    
C5    H76   S    
N23   Ni3   S    
C88   C97   A    
C3    C13   A    
N6    Ni1   S    
C60   H29   S    
N5    Ni2   S    
C36   C92   A    
C28   N23   A    
N1    N29   A    
C71   H40   S    
C29   H7    S    
N7    N8    A    
C102  H58   S    
C12   C32   S    
N14   Ni5   S    
N2    Ni5   S    
C7    H83   S    
N5    N6    A    
C85   H49   S    
C64   C89   S    
C4    H72   S    
C2    C14   A    
C39   C92   A    
C12   C102  A    
C23   H84   S    
C83   N21   A    
C44   C46   A    
C42   H15   S    
C41   C47   A    
C50   N18   A    
N18   Ni6   S    
C48   C53   A    
C54   H22   S    
C27   C30   S    
C44   H17   S    
C18   C53   S    
C33   C40   S    
C94   N22   A    
C22   C31   S    
C62   C66   A    
C4    O1    S    
C46   H19   S    
C24   H2    S    
C37   N31   A    
C12   C103  A    
C11   C101  A    
C20   H68   S    
C102  N14   A    
N21   N25   A    
N14   N15   A    
C3    H61   S    
C20   C30   S    
C88   H52   S    
N16   Ni7   S    
C68   C73   A    
C46   C51   A    
C2    Cl2   S    
C8    C18   A    
N23   N31   A    
C11   C100  A    
C80   C95   A    
N17   Ni8   S    
C23   O1    S    
C41   H14   S    
C22   H78   S    
C17   N12   A    
C19   C23   S    
C24   C32   S    
C13   C33   S    
N32   Ni6   S    
C76   C93   S    
C104  H60   S    
C99   H54   S    
N11   N13   A    
C26   C33   S    
C34   C90   A    
N4    Ni7   S    
C45   C49   A    
C45   H18   S    
C43   C65   A    
N19   N22   A    
C18   C83   A    
C15   C61   A    
C69   C74   A    
C50   H62   S    
C42   C48   A    
C62   H30   S    
C13   C104  A    
C101  H57   S    
C43   C45   A    
C86   C96   A    
C79   H46   S    
C66   C91   S    
C101  N13   A    
C86   N6    A    
C53   C57   A    
C27   H5    S    
C36   H38   S    
C35   C89   A    
C29   H8    S    
C60   C65   A    
C15   C51   S    
C5    O2    S    
C83   H65   S    
C99   N10   A    
N27   Ni4   S    
C73   C76   A    
C57   H26   S    
C68   H32   S    
C41   C63   A    
C4    H71   S    
N12   Ni2   S    
C8    Cl3   S    
C26   H4    S    
C5    H74   S    
C98   H53   S    
C70   C84   A    
N31   Ni8   S    
C80   H47   S    
N2    N32   A    
C85   N5    A    
C58   C63   A    
N18   N24   A    
C80   N3    A    
C21   C25   S    
C7    O4    S    
C1    C89   A    
N19   Ni5   S    
C73   H41   S    
C7    H81   S    
C17   C90   A    
C16   C52   S    
N21   Ni7   S    
N30   Ni7   S    
C42   C64   A    
C10   C82   S    
C86   H50   S    
N15   Ni6   S    
C47   C52   A    
C31   C97   S    
C11   C84   S    
N24   Ni1   S    
N20   Ni8   S    
C28   H23   S    
C68   C82   A    
C23   C32   S    
C88   N8    A    
C19   H66   S    
N1    Ni1   S    
C29   C31   S    
C69   C84   A    
N27   N30   A    
C19   C30   S    
C14   C50   A    
N20   N26   A    
C87   H51   S    
C19   H45   S    
C6    H79   S    
C29   C40   S    
C21   H69   S    
C85   C96   A    
C56   C58   A    
N3    Ni8   S    
C100  H55   S    
C51   C55   A    
C104  N16   A    
C10   C99   A    
N22   Ni2   S    
C5    H75   S    
C26   O4    S    
C24   O2    S    
C25   H3    S    
N25   Ni4   S    
N3    N4    A    
C38   H10   S    
C27   H6    S    
C59   C64   A    
C78   N32   A    
C40   H11   S    
C25   O3    S    
C67   C82   A    
C55   H24   S    
C22   C26   S    
C75   C77   A    
C81   H48   S    
C70   C75   A    
C1    N1    A    
C74   H42   S    
N26   Ni3   S    
C78   C93   A    
C87   C97   A    
C72   N20   A    
C43   H16   S    
N8    Ni3   S    
C52   C56   A    
C37   C91   A    
C25   C33   S    
C81   N4    A    
