data_mof_unit_39112.cif
_audit_creation_date              2012-12-10T19:42:14-0500
_audit_creation_method            fapswitch 2.2
_symmetry_space_group_name_H-M    P1
_symmetry_Int_Tables_number       1
_space_group_crystal_system       triclinic
_cell_length_a                    10.826686
_cell_length_b                    10.928238
_cell_length_c                    9.876367
_cell_angle_alpha                 89.332525
_cell_angle_beta                  90.570168
_cell_angle_gamma                 92.677782
_cell_volume                      1167.13124243

loop_
_atom_site_label
_atom_site_type_symbol
_atom_type_description
_atom_site_fract_x
_atom_site_fract_y
_atom_site_fract_z
_atom_type_partial_charge
C1    C     C_R   0.499289 0.265916 0.500599 0.826640
C2    C     C_R   0.246363 0.717229 0.044396 -0.115788
C3    C     C_R   0.934311 0.544884 0.389743 -0.249276
C4    C     C_R   0.871048 0.493492 0.501312 -0.074748
C5    C     C_R   0.937080 0.443652 0.611542 -0.000081
C6    C     C_R   0.065517 0.451089 0.609176 -0.251450
C7    C     C_R   0.128696 0.503294 0.498026 -0.071137
C8    C     C_R   0.062510 0.550804 0.386818 -0.006119
C9    C     C_R   0.896692 0.419194 0.860046 -0.155291
C10   C     C_R   0.838371 0.358064 0.968853 -0.050109
C11   C     C_R   0.759502 0.255368 0.945752 -0.082341
C12   C     C_R   0.262960 0.502085 0.499243 0.782493
C13   C     C_R   0.739580 0.213027 0.813956 -0.125690
C14   C     C_R   0.798080 0.273591 0.704954 -0.087124
C15   C     C_R   0.876033 0.378098 0.727079 0.129109
C16   C     C_2   0.505202 0.934549 0.388978 -0.178483
C17   C     C_2   0.508277 0.866418 0.502231 -0.318422
C18   C     C_2   0.509037 0.068828 0.390321 -0.161606
C19   C     C_2   0.496101 0.133492 0.503588 -0.323769
C20   C     C_2   0.436743 0.420873 0.922844 0.098204
C21   C     C_2   0.440668 0.418382 0.076542 0.104899
C22   C     C_R   0.502032 0.734081 0.499663 0.807595
C23   C     C_R   0.736956 0.497009 0.500669 0.747960
C24   C     C_R   0.248511 0.777482 0.168532 -0.137415
C25   C     C_R   0.187788 0.723958 0.280298 -0.107251
C26   C     C_R   0.123704 0.609861 0.267922 0.133299
C27   C     C_R   0.120722 0.550427 0.142556 -0.152045
C28   C     C_R   0.182352 0.603902 0.031359 -0.157645
Cu1   Cu    Cu3+1 0.500020 0.500020 0.638630 0.961329
Cu2   Cu    Cu3+1 0.499980 0.499980 0.361370 0.967252
H1    H     H_    0.294358 0.758279 0.958358 0.119047
H2    H     H_    0.713662 0.208780 0.029955 0.109177
H3    H     H_    0.678609 0.133392 0.796170 0.107279
H4    H     H_    0.782009 0.239748 0.603343 0.099388
H5    H     H_    0.500961 0.891316 0.290677 0.143178
H6    H     H_    0.517766 0.906360 0.601613 0.137882
H7    H     H_    0.520999 0.115296 0.293164 0.159909
H8    H     H_    0.480887 0.090995 0.601754 0.139011
H9    H     H_    0.362961 0.365422 0.875631 0.039926
H10   H     H_    0.373110 0.356121 0.124671 0.047471
H11   H     H_    0.297424 0.865570 0.178132 0.115249
H12   H     H_    0.191239 0.770779 0.376409 0.108531
H13   H     H_    0.072815 0.461849 0.131848 0.113525
H14   H     H_    0.181280 0.557143 0.935316 0.122717
H15   H     H_    0.883867 0.583722 0.305405 0.156048
H16   H     H_    0.116413 0.411535 0.692786 0.146903
H17   H     H_    0.955974 0.499770 0.878970 0.115014
H18   H     H_    0.853050 0.391144 0.070901 0.134684
N1    N     N_2   0.498640 0.498660 0.846910 0.006303
N2    N     N_2   0.498610 0.498630 0.153040 0.018071
O1    O     O_R   0.500020 0.321960 0.617040 -0.577696
O2    O     O_R   0.499980 0.321920 0.382900 -0.583561
O3    O     O_R   0.319660 0.500030 0.617070 -0.600649
O4    O     O_R   0.319620 0.499990 0.382930 -0.575756
O5    O     O_R   0.500020 0.678080 0.617100 -0.613061
O6    O     O_R   0.499980 0.678040 0.382960 -0.601979
O7    O     O_R   0.680380 0.500010 0.617070 -0.556776
O8    O     O_R   0.680340 0.499970 0.382930 -0.570983
O9    O     O_3   0.619138 0.515485 0.879368 -0.415609
C29   C     C_3   0.655613 0.639714 0.851792 0.039161
H19   H     H_    0.586761 0.704193 0.887813 0.081103
H20   H     H_    0.676091 0.662495 0.746234 0.144414
H21   H     H_    0.747045 0.658607 0.900244 0.090311
O10   O     O_3   0.608696 0.545473 0.109907 -0.448153
C30   C     C_3   0.624160 0.668219 0.153306 -0.036444
H22   H     H_    0.670872 0.675071 0.252418 0.167519
H23   H     H_    0.537043 0.718113 0.144617 0.122497
H24   H     H_    0.692775 0.720183 0.091516 0.043362

loop_
_geom_bond_atom_site_label_1
_geom_bond_atom_site_label_2
_ccdc_geom_bond_type
C25   H12   S    
C14   H4    S    
C23   O8    A    
C22   O6    A    
C13   H3    S    
C22   O5    A    
C17   H6    S    
Cu1   Cu2   S    
N2    O10   S    
C9    C10   A    
Cu1   O5    S    
C12   O3    A    
N1    O9    S    
C30   H24   S    
O10   C30   S    
Cu2   O4    S    
C9    C15   A    
O9    C29   S    
C25   C26   A    
Cu1   N1    S    
C13   C14   A    
C24   C25   A    
C10   H18   S    
C24   H11   S    
C1    O1    A    
C26   C27   A    
C20   N1    D    
C21   H10   S    
Cu1   O3    S    
C29   H19   S    
C29   H21   S    
Cu2   O8    S    
C16   C18   S    
C21   N2    D    
C19   H8    S    
C18   H7    S    
Cu1   O7    S    
C11   H2    S    
C30   H22   S    
C6    C7    A    
C16   H5    S    
C2    C24   A    
C5    C6    A    
Cu2   N2    S    
C1    O2    A    
C7    C12   S    
C1    C19   S    
C11   C13   A    
C5    C15   S    
C10   C11   A    
C3    C4    A    
C27   H13   S    
C7    C8    A    
C8    C26   S    
C20   C21   S    
C3    C8    A    
C28   H14   S    
C29   H20   S    
C18   C19   D    
Cu1   O1    S    
C27   C28   A    
C23   O7    A    
C20   H9    S    
Cu2   O2    S    
C14   C15   A    
C4    C5    A    
C2    C28   A    
C6    H16   S    
C9    H17   S    
Cu2   O6    S    
C3    H15   S    
C4    C23   S    
C12   O4    A    
C17   C22   S    
C16   C17   D    
C2    H1    S    
C30   H23   S    
