data_mof_unit_52854.cif
_audit_creation_date              2013-03-05T16:47:35-0500
_audit_creation_method            fapswitch 2.2
_symmetry_space_group_name_H-M    P1
_symmetry_Int_Tables_number       1
_space_group_crystal_system       triclinic
_cell_length_a                    18.179598
_cell_length_b                    18.194172
_cell_length_c                    18.301185
_cell_angle_alpha                 119.974119
_cell_angle_beta                  89.760289
_cell_angle_gamma                 120.103856
_cell_volume                      4284.21092581

loop_
_atom_site_label
_atom_site_type_symbol
_atom_site_description
_atom_site_fract_x
_atom_site_fract_y
_atom_site_fract_z
_atom_type_partial_charge
Zn1   Zn    Zn3+2 0.207400 0.586780 0.791530 1.005707
Zn2   Zn    Zn3+2 0.792600 0.413220 0.208470 1.005686
Zn3   Zn    Zn3+2 0.208510 0.413230 0.792630 0.982324
Zn4   Zn    Zn3+2 0.791490 0.586770 0.207370 0.982315
Zn5   Zn    Zn3+2 0.383150 0.586740 0.791530 0.970135
Zn6   Zn    Zn3+2 0.616850 0.413260 0.208470 0.970114
Zn7   Zn    Zn3+2 0.207400 0.413250 0.618010 0.996799
Zn8   Zn    Zn3+2 0.792600 0.586750 0.381990 0.996774
O1    O     O_3   0.251620 0.500000 0.748430 -0.491582
O2    O     O_3   0.748380 0.500000 0.251570 -0.491572
O3    O     O_R   0.134680 0.268390 0.572240 -0.646471
O4    O     O_R   0.865320 0.731610 0.427760 -0.646467
O5    O     O_R   0.306670 0.731630 0.863510 -0.621635
O6    O     O_R   0.693330 0.268370 0.136490 -0.621628
O7    O     O_R   0.135450 0.439270 0.865360 -0.639165
O8    O     O_R   0.864550 0.560730 0.134640 -0.639153
O9    O     O_R   0.429670 0.560710 0.692610 -0.645543
O10   O     O_R   0.570330 0.439290 0.307390 -0.645545
O11   O     O_R   0.308540 0.439240 0.865360 -0.649268
O12   O     O_R   0.691460 0.560760 0.134640 -0.649253
O13   O     O_R   0.133580 0.439310 0.571150 -0.642325
O14   O     O_R   0.866420 0.560690 0.428850 -0.642326
O15   O     O_R   0.430770 0.560690 0.864590 -0.647039
O16   O     O_R   0.569230 0.439310 0.135410 -0.647040
O17   O     O_R   0.133580 0.560760 0.692610 -0.621569
O18   O     O_R   0.866420 0.439240 0.307390 -0.621570
O19   O     O_R   0.134680 0.560740 0.864590 -0.652601
O20   O     O_R   0.865320 0.439260 0.135410 -0.652641
O21   O     O_R   0.306670 0.439270 0.571150 -0.642361
O22   O     O_R   0.693330 0.560730 0.428850 -0.642365
O23   O     O_R   0.135450 0.268370 0.694460 -0.640581
O24   O     O_R   0.864550 0.731630 0.305540 -0.640582
O25   O     O_R   0.429670 0.731610 0.863510 -0.644711
O26   O     O_R   0.570330 0.268390 0.136490 -0.644728
C1    C     C_R   0.110919 0.220017 0.609860 0.824636
C2    C     C_R   0.889081 0.779983 0.390139 0.824567
C3    C     C_R   0.392871 0.781125 0.888252 0.788351
C4    C     C_R   0.607129 0.218875 0.111748 0.788354
C5    C     C_R   0.111576 0.501388 0.890342 0.804673
C6    C     C_R   0.888423 0.498611 0.109658 0.804655
C7    C     C_R   0.392234 0.499928 0.607656 0.783629
C8    C     C_R   0.607765 0.500071 0.392344 0.783632
C9    C     C_R   0.393902 0.499424 0.888150 0.798886
C10   C     C_R   0.606098 0.500568 0.111843 0.798894
C11   C     C_R   0.109359 0.500406 0.607741 0.894117
C12   C     C_R   0.890640 0.499593 0.392259 0.894107
C13   C     C_3   0.016452 0.428797 0.447623 -0.245449
C14   C     C_3   0.983548 0.571203 0.552377 -0.245454
C15   C     C_3   0.041673 0.523176 0.445665 -0.288749
C16   C     C_3   0.958326 0.476824 0.554336 -0.288747
H1    H     H_    0.076252 0.543762 0.402007 0.179006
H2    H     H_    0.923747 0.456237 0.597993 0.179013
C17   C     C_3   0.947848 0.499357 0.449076 -0.104385
C18   C     C_3   0.052151 0.500642 0.550924 -0.104385
C19   C     C_3   0.923771 0.407354 0.451590 0.385939
C20   C     C_3   0.076228 0.592646 0.548411 0.385941
C21   C     C_3   0.443202 0.966079 0.926439 -0.146673
C22   C     C_3   0.556797 0.033921 0.073561 -0.146652
C23   C     C_3   0.547266 0.037878 0.956396 -0.178234
C24   C     C_3   0.452734 0.962122 0.043604 -0.178224
H3    H     H_    0.586114 0.070261 0.920865 0.136721
H4    H     H_    0.413886 0.929739 0.079135 0.136716
H5    H     H_    0.395974 0.937148 0.865299 0.171471
H6    H     H_    0.604025 0.062851 0.134701 0.171475
C25   C     C_3   0.549495 0.102497 0.052571 0.041125
C26   C     C_3   0.450504 0.897502 0.947429 0.041123
C27   C     C_3   0.446111 0.032129 0.023344 -0.147654
C28   C     C_3   0.553889 0.967871 0.976656 -0.147639
H7    H     H_    0.402264 0.059584 0.043083 0.136065
H8    H     H_    0.597734 0.940415 0.956916 0.136101
C29   C     C_3   0.413306 0.433556 0.447884 -0.140143
C30   C     C_3   0.586693 0.566442 0.552115 -0.140159
C31   C     C_3   0.479924 0.403914 0.445580 -0.157335
C32   C     C_3   0.520075 0.596084 0.554418 -0.157352
H9    H     H_    0.464512 0.325174 0.399880 0.148790
H10   H     H_    0.535487 0.674824 0.600119 0.148774
H11   H     H_    0.341314 0.378991 0.405811 0.152520
H12   H     H_    0.658685 0.621007 0.594188 0.152506
C33   C     C_3   0.551078 0.500327 0.449625 0.050584
C34   C     C_3   0.448921 0.499671 0.550374 0.050596
C35   C     C_3   0.485415 0.530041 0.451130 -0.183743
C36   C     C_3   0.514583 0.469958 0.548869 -0.183728
H13   H     H_    0.474692 0.554837 0.410128 0.135171
H14   H     H_    0.525304 0.445158 0.589868 0.135162
C37   C     C_R   0.145013 0.171678 0.829430 -0.205676
C38   C     C_R   0.854982 0.828212 0.170522 -0.205622
C39   C     C_R   0.122910 0.128307 0.738188 -0.209519
C40   C     C_R   0.877064 0.871581 0.261766 -0.209345
H15   H     H_    0.169617 0.118410 0.704369 0.168909
H16   H     H_    0.830312 0.881390 0.295554 0.168841
C41   C     C_R   0.041636 0.098368 0.690550 0.024530
C42   C     C_R   0.958377 0.901631 0.309443 0.024503
C43   C     C_R   0.980639 0.110719 0.735399 0.293480
C44   C     C_R   0.019434 0.889399 0.264632 0.293395
C45   C     C_R   0.003334 0.152923 0.827195 -0.307678
C46   C     C_R   0.996764 0.847214 0.172840 -0.307693
H17   H     H_    0.957389 0.163138 0.862056 0.211130
H18   H     H_    0.042748 0.837079 0.138003 0.211146
C47   C     C_R   0.085481 0.184329 0.874865 0.346627
C48   C     C_R   0.914581 0.815697 0.125132 0.346623
C49   C     C_R   0.966564 0.943594 0.537040 -0.195416
C50   C     C_R   0.033429 0.056405 0.462955 -0.195305
H19   H     H_    0.941045 0.900432 0.566462 0.172982
H20   H     H_    0.058950 0.099569 0.433534 0.172966
C51   C     C_R   0.945135 0.892301 0.444531 -0.034316
C52   C     C_R   0.054860 0.107698 0.555465 -0.034253
C53   C     C_R   0.978862 0.949399 0.406758 0.076320
C54   C     C_R   0.021133 0.050599 0.593237 0.076329
H21   H     H_    0.714267 0.789538 0.841479 0.122561
H22   H     H_    0.285901 0.210418 0.158519 0.122525
C55   C     C_R   0.643731 0.637169 0.814314 -0.068861
C56   C     C_R   0.356265 0.362750 0.185626 -0.068753
H23   H     H_    0.647871 0.601096 0.747729 0.114431
H24   H     H_    0.352080 0.398805 0.252193 0.114424
C57   C     C_R   0.600540 0.577360 0.847218 -0.072345
C58   C     C_R   0.399396 0.422553 0.152705 -0.072467
H25   H     H_    0.570765 0.494841 0.805388 0.108262
H26   H     H_    0.429086 0.505052 0.194507 0.108297
C59   C     C_R   0.594503 0.623896 0.933362 0.165107
C60   C     C_R   0.405499 0.376044 0.066588 0.164999
C61   C     C_R   0.632983 0.730864 0.986506 -0.108686
C62   C     C_R   0.367141 0.269106 0.013486 -0.108488
H27   H     H_    0.628483 0.767623 0.052919 0.118073
H28   H     H_    0.371700 0.232371 0.947098 0.118046
C63   C     C_R   0.675988 0.790331 0.953278 -0.090133
C64   C     C_R   0.324195 0.209644 0.046730 -0.089938
H29   H     H_    0.704965 0.872623 0.994103 0.119427
H30   H     H_    0.295316 0.127377 0.005940 0.119326
C65   C     C_R   0.681185 0.743477 0.867191 -0.052399
C66   C     C_R   0.318935 0.256474 0.132793 -0.052264
C67   C     C_R   0.593561 0.559507 0.022918 -0.232655
C68   C     C_R   0.406434 0.440452 0.977047 -0.232659
H31   H     H_    0.666213 0.605121 0.039721 0.195531
H32   H     H_    0.333781 0.394833 0.960242 0.195443
C69   C     C_R   0.550346 0.500083 0.056129 -0.057816
C70   C     C_R   0.449651 0.499886 0.943843 -0.057807
C71   C     C_R   0.455638 0.440014 0.033404 -0.029392
C72   C     C_R   0.544358 0.559942 0.966558 -0.029385
H33   H     H_    0.233384 0.937044 0.010682 0.122023
H34   H     H_    0.766577 0.062919 0.989259 0.122037
C73   C     C_R   0.226513 0.864293 0.076418 -0.118272
C74   C     C_R   0.773471 0.135690 0.923538 -0.118212
H35   H     H_    0.286681 0.933368 0.132516 0.150541
H36   H     H_    0.713312 0.066618 0.867428 0.150537
C75   C     C_R   0.178939 0.773051 0.072711 -0.140993
C76   C     C_R   0.821052 0.226941 0.927258 -0.140917
H37   H     H_    0.202900 0.772151 0.126145 0.161128
H38   H     H_    0.797108 0.227850 0.873823 0.161180
C77   C     C_R   0.100484 0.683555 0.000427 0.088730
C78   C     C_R   0.899496 0.316435 0.999556 0.088669
C79   C     C_R   0.069451 0.686833 0.932675 -0.015050
C80   C     C_R   0.930506 0.313147 0.067312 -0.014625
H39   H     H_    0.008303 0.618779 0.877128 0.134492
H40   H     H_    0.991643 0.381200 0.122871 0.134528
C81   C     C_R   0.118019 0.777749 0.935935 -0.036079
C82   C     C_R   0.881934 0.222220 0.064034 -0.036298
H41   H     H_    0.094462 0.779666 0.883108 0.144283
H42   H     H_    0.905475 0.220295 0.116861 0.144249
C83   C     C_R   0.196373 0.866480 0.007852 -0.116748
C84   C     C_R   0.803593 0.133491 0.992102 -0.116947
C85   C     C_R   0.993765 0.583711 0.050038 -0.201754
C86   C     C_R   0.006230 0.416288 0.949959 -0.201619
H43   H     H_    0.989898 0.649406 0.089534 0.179232
H44   H     H_    0.010096 0.350592 0.910461 0.179266
C87   C     C_R   0.944688 0.497150 0.052968 -0.064729
C88   C     C_R   0.055309 0.502849 0.947030 -0.064749
C89   C     C_R   0.950984 0.412169 0.002322 -0.009764
C90   C     C_R   0.049009 0.587827 0.997672 -0.009745
N1    N     N_R   0.108236 0.228788 0.968963 0.213337
O27   O     O_R   0.188709 0.270794 0.015669 -0.418572
O28   O     O_R   0.048684 0.227500 0.008881 -0.418750
N2    N     N_R   0.891857 0.771261 0.031042 0.213287
O29   O     O_R   0.811231 0.728673 0.984206 -0.418622
O30   O     O_R   0.951598 0.773167 0.991267 -0.418587
H45   H     H_    0.208439 0.194433 0.864306 0.169505
H46   H     H_    0.791530 0.805375 0.135612 0.169395
N3    N     N_R   0.896373 0.081609 0.689753 0.204541
O31   O     O_R   0.887443 0.084336 0.620822 -0.393723
O32   O     O_R   0.830196 0.060985 0.721829 -0.412036
N4    N     N_R   0.103733 0.918607 0.310313 0.204551
O33   O     O_R   0.112680 0.915874 0.379239 -0.393706
O34   O     O_R   0.169928 0.939313 0.278267 -0.411982
H47   H     H_    0.028683 0.369185 0.404644 0.187454
H48   H     H_    0.971316 0.630814 0.595357 0.187458
N5    N     N_R   0.839782 0.303695 0.398933 0.205108
O35   O     O_R   0.829394 0.232104 0.406712 -0.379455
O36   O     O_R   0.774422 0.282417 0.345414 -0.416661
N6    N     N_R   0.160218 0.696304 0.601069 0.205111
O37   O     O_R   0.170598 0.767904 0.593306 -0.379466
O38   O     O_R   0.225583 0.717573 0.654571 -0.416670

loop_
_geom_bond_atom_site_label_1
_geom_bond_atom_site_label_2
_geom_bond_distance
_ccdc_geom_bond_type
C26   C28   1.538838 S    
Zn4   O8    1.935612 S    
Zn7   O21   1.937051 S    
C39   C41   1.403132 A    
C81   H41   1.082328 S    
N1    O28   1.300532 A    
N1    O27   1.300420 A    
C74   C76   1.398630 A    
C30   C36   1.546495 S    
C56   C58   1.398922 A    
C21   C26   1.538649 S    
C7    C34   1.466934 S    
C56   H24   1.082120 S    
C13   C15   1.559366 S    
N2    O29   1.300428 A    
Zn7   O3    1.924537 S    
C51   C53   1.417090 A    
Zn5   O1    1.953683 S    
C16   C18   1.544600 S    
C32   H10   1.110151 S    
Zn3   O1    1.946914 S    
O24   C2    1.273246 A    
C24   H4    1.109198 S    
C30   C33   1.535825 S    
C67   C69   1.398608 A    
C77   C79   1.404584 A    
C38   C40   1.394085 A    
C68   C70   1.398630 A    
N5    O36   1.300187 A    
C48   N2    1.438511 S    
O20   C6    1.271415 A    
C22   C24   1.549209 S    
O15   C9    1.267292 A    
C12   C17   1.476787 S    
N6    O38   1.300161 A    
C15   H1    1.110172 S    
C20   N6    1.457576 S    
C75   C77   1.403347 A    
C30   H12   1.110227 S    
C42   C53   1.483290 S    
C85   H43   1.084751 S    
C86   C88   1.397728 A    
O3    C1    1.287179 A    
C73   C83   1.397833 A    
C1    C52   1.446476 S    
C40   C42   1.403149 A    
C24   C27   1.549343 S    
C60   C62   1.404126 A    
C25   C27   1.538840 S    
O11   C9    1.275014 A    
C16   H2    1.110170 S    
Zn3   O11   1.957081 S    
C79   C81   1.398584 A    
O4    C2    1.287189 A    
C38   C48   1.402432 A    
C76   H38   1.083067 S    
C73   C75   1.398629 A    
Zn3   O23   1.927507 S    
C19   N5    1.457576 S    
C10   C69   1.434467 S    
C17   C19   1.528892 S    
C24   C26   1.538492 S    
C8    C33   1.466934 S    
C87   C89   1.416844 A    
C69   C71   1.412812 A    
Zn1   O17   1.956822 S    
C31   H9    1.110151 S    
C68   H32   1.084728 S    
C77   C90   1.479656 S    
C21   C27   1.549080 S    
O13   C11   1.273846 A    
C29   C34   1.535827 S    
C35   H13   1.110097 S    
C55   C65   1.398307 A    
C21   H5    1.110139 S    
C86   H44   1.084740 S    
C37   C39   1.394062 A    
C49   C51   1.396810 A    
C14   C17   1.547236 S    
Zn6   O10   1.936278 S    
C18   C20   1.528892 S    
C23   H3    1.109199 S    
C75   H37   1.083070 S    
C81   C83   1.397609 A    
C80   C82   1.398586 A    
C82   C84   1.397602 A    
C88   C90   1.416854 A    
Zn1   O1    1.945469 S    
C30   C32   1.546429 S    
C58   H26   1.083021 S    
O19   C5    1.271414 A    
C14   H48   1.110185 S    
C43   N3    1.442166 S    
Zn2   O20   1.936461 S    
C22   H6    1.110138 S    
C57   H25   1.083020 S    
C68   C71   1.373712 A    
Zn7   O13   1.953336 S    
C74   C84   1.397829 A    
O25   C3    1.287868 A    
C58   C60   1.404428 A    
C46   H18   1.082606 S    
N6    O37   1.300356 A    
C27   H7    1.109999 S    
C73   H35   1.082167 S    
C62   C64   1.398771 A    
C44   C46   1.407534 A    
C61   C63   1.398767 A    
C37   C47   1.402442 A    
C63   H29   1.082473 S    
C63   C65   1.398350 A    
C23   C28   1.549343 S    
C41   C43   1.418421 A    
C22   C25   1.538649 S    
Zn8   O14   1.953336 S    
Zn5   O15   1.953562 S    
C4    C25   1.498903 S    
Zn8   O4    1.924536 S    
Zn6   O16   1.953562 S    
C3    C26   1.498902 S    
C38   H46   1.082396 S    
C42   C44   1.418425 A    
C31   C33   1.533190 S    
C50   C53   1.379345 A    
C55   H23   1.082115 S    
C44   N4    1.442156 S    
C50   H20   1.084829 S    
C14   C16   1.559368 S    
O7    C5    1.284064 A    
C6    C87   1.454032 S    
Zn4   O24   1.927507 S    
C59   C61   1.404121 A    
O8    C6    1.284058 A    
C13   C18   1.547236 S    
C13   H47   1.110186 S    
O14   C12   1.273850 A    
C80   H40   1.083172 S    
C11   C18   1.476782 S    
O12   C10   1.275022 A    
C57   C59   1.404427 A    
C39   H15   1.083560 S    
H21   C65   1.082368 S    
O16   C10   1.267282 A    
C78   C80   1.404583 A    
Zn1   O5    1.928099 S    
C32   C35   1.547568 S    
Zn4   O2    1.946911 S    
O6    C4    1.286330 A    
Zn2   O2    1.945472 S    
O17   C11   1.276163 A    
C31   C36   1.547566 S    
C29   H11   1.110226 S    
C74   H36   1.082168 S    
Zn3   O7    1.935613 S    
N4    O33   1.301000 A    
C70   C72   1.412813 A    
C13   C19   1.537601 S    
C49   H19   1.084817 S    
C22   C28   1.549080 S    
C14   C20   1.537590 S    
Zn7   O1    1.952785 S    
C64   H30   1.082475 S    
N4    O34   1.301579 A    
O21   C7    1.278221 A    
C2    C51   1.446468 S    
O26   C4    1.287866 A    
C59   C72   1.480438 S    
O5    C3    1.286328 A    
C41   C54   1.483251 S    
Zn8   O2    1.952785 S    
C40   H16   1.083563 S    
C67   H31   1.084722 S    
Zn2   O18   1.956820 S    
Zn6   O2    1.953682 S    
C55   C57   1.398920 A    
C45   H17   1.082604 S    
C76   C78   1.403336 A    
C47   N1    1.438557 S    
C15   C20   1.538361 S    
C36   H14   1.110096 S    
C16   C19   1.538361 S    
Zn8   O22   1.937052 S    
C5    C88   1.454041 S    
O10   C8    1.280337 A    
C67   C72   1.373709 A    
C23   C25   1.538492 S    
N5    O35   1.300327 A    
C52   C54   1.417068 A    
C49   C54   1.379335 A    
C15   C17   1.544592 S    
C78   C89   1.479659 S    
C46   C48   1.405180 A    
O23   C1    1.273259 A    
C82   H42   1.082323 S    
N2    O30   1.300551 A    
C34   C36   1.533033 S    
N3    O32   1.301587 A    
H22   C66   1.082368 S    
C45   C47   1.405212 A    
Zn5   O25   1.923977 S    
C79   H39   1.083170 S    
C33   C35   1.533034 S    
C9    C70   1.434465 S    
Zn2   O6    1.928099 S    
O9    C7    1.280338 A    
C61   H27   1.083093 S    
C85   C90   1.385960 A    
C21   C23   1.549210 S    
O18   C12   1.276163 A    
H33   C83   1.082133 S    
C86   C89   1.385960 A    
Zn4   O12   1.957083 S    
Zn6   O26   1.923978 S    
Zn5   O9    1.936281 S    
C43   C45   1.407534 A    
N3    O31   1.300992 A    
C50   C52   1.396821 A    
C29   C31   1.546430 S    
Zn1   O19   1.936459 S    
C28   H8    1.109999 S    
C64   C66   1.398356 A    
O22   C8    1.278223 A    
C32   C34   1.533190 S    
C60   C71   1.480433 S    
C56   C66   1.398313 A    
H34   C84   1.082128 S    
C62   H28   1.083095 S    
C85   C87   1.397732 A    
C37   H45   1.082400 S    
C29   C35   1.546494 S    
