data_mof_unit_22825.cif
_audit_creation_date              2012-12-10T18:01:18-0500
_audit_creation_method            fapswitch 2.2
_symmetry_space_group_name_H-M    P1
_symmetry_Int_Tables_number       1
_space_group_crystal_system       triclinic
_cell_length_a                    9.579688
_cell_length_b                    10.806218
_cell_length_c                    17.415803
_cell_angle_alpha                 91.915697
_cell_angle_beta                  85.543561
_cell_angle_gamma                 90.297012
_cell_volume                      1796.42603269

loop_
_atom_site_label
_atom_site_type_symbol
_atom_type_description
_atom_site_fract_x
_atom_site_fract_y
_atom_site_fract_z
_atom_type_partial_charge
C1    C     C_R   0.500211 0.737674 0.499781 0.790372
C2    C     C_R   0.499789 0.262325 0.500219 0.790371
C3    C     C_R   0.618468 0.934945 0.469370 -0.199057
C4    C     C_R   0.381531 0.065055 0.530629 -0.199060
C5    C     C_R   0.618911 0.063085 0.470392 -0.163183
C6    C     C_R   0.381088 0.936916 0.529606 -0.163184
C7    C     C_R   0.500000 0.128422 0.500467 -0.021505
C8    C     C_R   0.499999 0.871578 0.499532 -0.021503
C9    C     C_R   0.918719 0.575878 0.550445 0.306247
C10   C     C_R   0.081281 0.424122 0.449555 0.306250
C11   C     C_R   0.067698 0.574394 0.550994 -0.021626
C12   C     C_R   0.932302 0.425606 0.449006 -0.021627
C13   C     C_R   0.480961 0.496615 0.649771 0.796669
C14   C     C_R   0.519039 0.503385 0.350229 0.796667
C15   C     C_R   0.470548 0.487666 0.734132 -0.077642
C16   C     C_R   0.529452 0.512335 0.265868 -0.077642
C17   C     C_R   0.591629 0.511597 0.772710 -0.199814
C18   C     C_R   0.408371 0.488406 0.227289 -0.199814
C19   C     C_R   0.589704 0.502697 0.851829 -0.143833
C20   C     C_R   0.410296 0.497306 0.148170 -0.143834
C21   C     C_R   0.465722 0.470945 0.894592 0.171432
C22   C     C_R   0.534280 0.529055 0.105407 0.171432
C23   C     C_R   0.345153 0.443318 0.856952 -0.203250
C24   C     C_R   0.654849 0.556680 0.143048 -0.203249
C25   C     C_R   0.346022 0.451287 0.777063 -0.019558
C26   C     C_R   0.653979 0.548712 0.222937 -0.019558
C27   C     C_2   0.459997 0.463844 0.978602 -0.214564
C28   C     C_2   0.540006 0.536155 0.021398 -0.214564
Cu1   Cu    Cu3+1 0.359340 0.499980 0.500000 0.990333
Cu2   Cu    Cu3+1 0.640660 0.500020 0.500000 0.990333
H1    H     H_    0.689252 0.536660 0.741785 0.159395
H2    H     H_    0.310747 0.463345 0.258215 0.159392
H3    H     H_    0.614182 0.600811 0.994442 0.147500
H4    H     H_    0.385820 0.399189 0.005557 0.147500
H5    H     H_    0.249973 0.416209 0.890122 0.128976
H6    H     H_    0.750030 0.583788 0.109879 0.128977
H7    H     H_    0.313748 0.481031 0.121015 0.130978
H8    H     H_    0.686253 0.518973 0.878984 0.130978
H9    H     H_    0.709624 0.885551 0.444036 0.150298
H10   H     H_    0.290374 0.114449 0.555961 0.150303
H11   H     H_    0.711325 0.110741 0.446828 0.162580
H12   H     H_    0.288674 0.889259 0.553171 0.162579
N1    N     N_R   0.147930 0.499970 0.499980 -0.207508
N2    N     N_R   0.852070 0.500030 0.500020 -0.207507
O1    O     O_R   0.381260 0.680340 0.500000 -0.587799
O2    O     O_R   0.618740 0.319660 0.500000 -0.587800
O3    O     O_R   0.618830 0.680370 0.500010 -0.556699
O4    O     O_R   0.381170 0.319630 0.499990 -0.556698
O5    O     O_R   0.367440 0.500000 0.613600 -0.572635
O6    O     O_R   0.632560 0.500000 0.386400 -0.572636
O7    O     O_R   0.605010 0.500030 0.613600 -0.565172
O8    O     O_R   0.394990 0.499970 0.386400 -0.565175
C29   C     C_1   0.780783 0.582524 0.258423 0.261934
N3    N     N_1   0.882512 0.609892 0.286615 -0.304217
C30   C     C_1   0.219219 0.417474 0.741578 0.261933
N4    N     N_1   0.117489 0.390106 0.713386 -0.304215
N5    N     N_2   0.837664 0.655011 0.603229 -0.377334
H13   H     H_    0.851285 0.637919 0.660012 0.226679
C31   C     C_3   0.846620 0.785891 0.587810 -0.653949
H14   H     H_    0.746247 0.831049 0.608445 0.239440
H15   H     H_    0.867403 0.801211 0.525202 0.223024
H16   H     H_    0.931278 0.830562 0.618982 0.204750
N6    N     N_2   0.162336 0.344988 0.396772 -0.377331
H17   H     H_    0.148724 0.362085 0.339988 0.226678
C32   C     C_3   0.153377 0.214107 0.412189 -0.653948
H18   H     H_    0.253755 0.168951 0.391564 0.239444
H19   H     H_    0.068731 0.169436 0.381008 0.204755
H20   H     H_    0.132576 0.198784 0.474796 0.223015
C33   C     C_1   0.134216 0.651533 0.606678 0.321696
N7    N     N_1   0.186325 0.713491 0.651907 -0.322961
C34   C     C_1   0.865784 0.348467 0.393322 0.321701
N8    N     N_1   0.813677 0.286508 0.348093 -0.322963

loop_
_geom_bond_atom_site_label_1
_geom_bond_atom_site_label_2
_ccdc_geom_bond_type
C19   C21   A    
C6    C8    A    
C30   N4    T    
C11   C33   S    
C14   O8    A    
C11   N1    A    
Cu1   Cu2   S    
C19   H8    S    
C1    C8    S    
C4    H10   S    
C18   C20   A    
C2    C7    S    
C13   C15   S    
Cu2   O7    S    
C32   H20   S    
C1    O1    A    
C3    C5    A    
N6    C32   S    
C21   C27   S    
C3    H9    S    
C34   N8    T    
C12   N2    A    
C22   C28   S    
C29   N3    T    
Cu1   N1    S    
C16   C26   A    
C20   H7    S    
C9    C11   A    
Cu2   N2    S    
N5    H13   S    
C24   H6    S    
C10   C12   A    
C4    C7    A    
C13   O5    A    
C22   C24   A    
C16   C18   A    
C17   C19   A    
C12   C34   S    
C24   C26   A    
C28   H3    S    
C3    C8    A    
C23   H5    S    
C23   C25   A    
C27   H4    S    
Cu2   O6    S    
C33   N7    T    
C17   H1    S    
C14   C16   S    
C31   H15   S    
N5    C31   S    
C14   O6    A    
Cu1   O4    S    
N6    H17   S    
C26   C29   S    
C25   C30   S    
Cu2   O3    S    
C31   H14   S    
C18   H2    S    
C13   O7    A    
C9    N5    S    
C4    C6    A    
C32   H18   S    
C6    H12   S    
Cu1   O1    S    
C27   C28   D    
C5    C7    A    
C5    H11   S    
C1    O3    A    
C31   H16   S    
Cu1   O5    S    
C15   C25   A    
C2    O4    A    
C10   N1    A    
C15   C17   A    
C21   C23   A    
Cu2   O2    S    
C2    O2    A    
C9    N2    A    
C10   N6    S    
C20   C22   A    
C32   H19   S    
Cu1   O8    S    
