data_mof_unit_37028.cif
_audit_creation_date              2012-12-10T17:49:38-0500
_audit_creation_method            fapswitch 2.2
_symmetry_space_group_name_H-M    P1
_symmetry_Int_Tables_number       1
_space_group_crystal_system       triclinic
_cell_length_a                    10.495896
_cell_length_b                    10.644629
_cell_length_c                    9.92929
_cell_angle_alpha                 88.860669
_cell_angle_beta                  88.350633
_cell_angle_gamma                 92.757205
_cell_volume                      1107.35446466

loop_
_atom_site_label
_atom_site_type_symbol
_atom_type_description
_atom_site_fract_x
_atom_site_fract_y
_atom_site_fract_z
_atom_type_partial_charge
C1    C     C_R   0.507843 0.259679 0.501641 0.855872
C2    C     C_3   0.965942 0.498787 0.370759 -0.179092
C3    C     C_3   0.040233 0.393611 0.438276 -0.191023
C4    C     C_3   0.122728 0.496342 0.504900 -0.015102
C5    C     C_R   0.530152 0.101190 0.755572 -0.222556
C6    C     C_R   0.489960 0.037169 0.874122 -0.173443
C7    C     C_R   0.410433 0.928923 0.868919 0.138113
C8    C     C_R   0.384007 0.875605 0.743282 0.086213
C9    C     C_R   0.442889 0.931760 0.623643 0.049607
C10   C     C_R   0.495280 0.054617 0.628729 0.072266
C11   C     C_R   0.510070 0.124514 0.505551 -0.113434
C12   C     C_R   0.257563 0.497671 0.501810 0.852642
C13   C     C_R   0.502685 0.064244 0.381861 -0.223586
C14   C     C_R   0.481945 0.936690 0.379343 -0.217532
C15   C     C_R   0.458787 0.869325 0.500090 -0.129610
C16   C     C_R   0.336255 0.328322 0.147962 -0.150316
C17   C     C_R   0.259389 0.240900 0.081620 -0.201506
C18   C     C_R   0.260464 0.240588 0.942218 -0.191844
C19   C     C_R   0.337224 0.328695 0.868109 -0.157352
C20   C     C_R   0.420139 0.415147 0.931891 0.134714
C21   C     C_R   0.419799 0.415211 0.076382 0.141202
C22   C     C_R   0.576872 0.582854 0.065066 0.120342
C23   C     C_R   0.483718 0.737881 0.499767 0.883132
C24   C     C_R   0.573153 0.583485 0.922296 -0.144640
C25   C     C_R   0.742388 0.500345 0.498379 0.876516
C26   C     C_3   0.035182 0.494603 0.631865 -0.175475
C27   C     C_3   0.949987 0.393620 0.563533 0.111663
C28   C     C_3   0.877269 0.497541 0.496233 -0.031038
C29   C     C_3   0.962174 0.597041 0.561328 0.113806
C30   C     C_3   0.051630 0.601572 0.436710 -0.222395
H1    H     H_    0.488689 0.890774 0.283141 0.177144
H2    H     H_    0.326926 0.324974 0.254994 0.202691
H3    H     H_    0.197885 0.173534 0.138906 0.147811
H4    H     H_    0.201488 0.171467 0.891343 0.152952
H5    H     H_    0.329262 0.326755 0.761333 0.206468
H6    H     H_    0.629934 0.652306 0.862148 0.167846
H7    H     H_    0.066928 0.494166 0.737586 0.143705
H8    H     H_    0.097357 0.687481 0.387356 0.140292
H9    H     H_    0.935294 0.497653 0.265145 0.162431
H10   H     H_    0.077498 0.309769 0.388550 0.124188
H11   H     H_    0.515499 0.115005 0.286350 0.176156
H12   H     H_    0.591257 0.184936 0.765083 0.179688
H13   H     H_    0.515219 0.075705 0.970476 0.158909
N1    N     N_R   0.498800 0.498800 0.142780 -0.139129
N2    N     N_R   0.498760 0.498720 0.857170 -0.145202
O1    O     O_R   0.500000 0.316780 0.614690 -0.645304
O2    O     O_R   0.499990 0.316750 0.385360 -0.637894
O3    O     O_R   0.313960 0.499980 0.614650 -0.659082
O4    O     O_R   0.313940 0.499960 0.385310 -0.628599
O5    O     O_R   0.500010 0.683250 0.614640 -0.619421
O6    O     O_R   0.500000 0.683220 0.385310 -0.643793
O7    O     O_R   0.686060 0.500040 0.614690 -0.607581
O8    O     O_R   0.686040 0.500020 0.385350 -0.636391
Zn1   Zn    Zn3+2 0.500010 0.500020 0.653130 0.905023
Zn2   Zn    Zn3+2 0.499990 0.499980 0.346870 0.911871
C31   C     C_3   0.884282 0.276260 0.630774 -0.421059
C32   C     C_3   0.981776 0.188859 0.687667 -0.356652
C33   C     C_3   0.916257 0.070644 0.752526 -0.877445
H14   H     H_    0.850711 0.096043 0.836442 0.260738
H15   H     H_    0.861086 0.017307 0.676713 0.265618
H16   H     H_    0.989308 0.009373 0.793424 0.248721
H17   H     H_    0.048620 0.160881 0.605964 0.219905
H18   H     H_    0.037242 0.239819 0.764683 0.219262
H19   H     H_    0.819609 0.305748 0.713636 0.212875
H20   H     H_    0.826075 0.226005 0.555035 0.192982
N3    N     N_3   0.356791 0.874604 0.992220 -0.479054
H21   H     H_    0.257367 0.872686 0.987062 0.195776
H22   H     H_    0.384730 0.781919 0.000564 0.182014
N4    N     N_3   0.286082 0.776454 0.738501 -0.479443
H23   H     H_    0.260751 0.758317 0.639547 0.176205
H24   H     H_    0.319762 0.694774 0.782024 0.226982
C34   C     C_3   0.665309 0.681042 0.126316 -0.389970
C35   C     C_3   0.804030 0.675626 0.073138 -0.375181
C36   C     C_3   0.893004 0.764965 0.149332 -0.898445
H25   H     H_    0.867037 0.863813 0.132025 0.263041
H26   H     H_    0.886575 0.742870 0.259108 0.261586
H27   H     H_    0.993034 0.755294 0.112953 0.252518
H28   H     H_    0.835865 0.578122 0.083610 0.224489
H29   H     H_    0.812054 0.703392 0.964776 0.229499
H30   H     H_    0.630075 0.775732 0.103386 0.181157
H31   H     H_    0.666375 0.669464 0.235629 0.274929
N5    N     N_3   0.914821 0.707160 0.627634 -0.462005
H32   H     H_    0.994106 0.760585 0.659378 0.188800
H33   H     H_    0.871467 0.761356 0.554665 0.171232

loop_
_geom_bond_atom_site_label_1
_geom_bond_atom_site_label_2
_ccdc_geom_bond_type
C8    C9    A    
N3    H22   S    
C5    H12   S    
C16   C21   A    
C35   C36   S    
C19   C20   A    
C1    C11   S    
C14   H1    S    
C12   O3    A    
C13   H11   S    
C12   O4    A    
C7    C8    A    
C25   C28   S    
O3    Zn1   S    
C8    N4    S    
O5    Zn1   S    
C36   H26   S    
C24   N2    A    
C28   C29   S    
C25   O8    A    
C5    C6    A    
C1    O1    A    
C33   H15   S    
C31   H20   S    
C31   C32   S    
C30   H8    S    
C18   C19   A    
N4    H24   S    
C2    H9    S    
C22   N1    A    
C16   C17   A    
C36   H27   S    
C35   H28   S    
C31   H19   S    
C4    C12   S    
C9    C10   A    
C34   H31   S    
C33   H16   S    
C15   C23   S    
N3    H21   S    
C13   C14   A    
C17   H3    S    
C22   C34   S    
O7    Zn1   S    
C32   H18   S    
O8    Zn2   S    
C35   H29   S    
C36   H25   S    
C32   H17   S    
C27   C31   S    
C1    O2    A    
C23   O5    A    
C33   H14   S    
O4    Zn2   S    
C29   C30   S    
C21   N1    A    
C23   O6    A    
O1    Zn1   S    
C17   C18   A    
C26   C27   S    
C24   H6    S    
C18   H4    S    
C3    H10   S    
N5    H33   S    
C6    H13   S    
C22   C24   A    
C3    C4    S    
O2    Zn2   S    
C20   N2    A    
C34   C35   S    
N2    Zn1   S    
C4    C26   S    
C26   H7    S    
C6    C7    A    
C16   H2    S    
C2    C30   S    
C3    C27   S    
C2    C3    S    
C9    C15   A    
C25   O7    A    
C5    C10   A    
C34   H30   S    
C19   H5    S    
C7    N3    S    
C11   C13   A    
N1    Zn2   S    
C32   C33   S    
O6    Zn2   S    
N4    H23   S    
C10   C11   A    
C29   N5    S    
C20   C21   A    
C26   C29   S    
N5    H32   S    
C27   C28   S    
C14   C15   A    
C2    C28   S    
C4    C30   S    
