data_mof_unit_65294.cif
_audit_creation_date              2012-12-10T17:49:40-0500
_audit_creation_method            fapswitch 2.2
_symmetry_space_group_name_H-M    P1
_symmetry_Int_Tables_number       1
_space_group_crystal_system       orthorhombic
_cell_length_a                    27.791418
_cell_length_b                    36.189984
_cell_length_c                    27.792464
_cell_angle_alpha                 90.0
_cell_angle_beta                  90.0
_cell_angle_gamma                 90.0
_cell_volume                      27952.8535526

loop_
_atom_site_label
_atom_site_type_symbol
_atom_type_description
_atom_site_fract_x
_atom_site_fract_y
_atom_site_fract_z
_atom_type_partial_charge
C1    C     C_R   0.500011 0.650322 0.250014 0.825632
C2    C     C_R   0.000011 0.650322 0.249986 0.826488
C3    C     C_1   0.499978 0.249996 0.431112 -0.134945
C4    C     C_1   0.499977 0.250004 0.931112 -0.134640
C5    C     C_1   0.499977 0.250004 0.068888 -0.134893
C6    C     C_1   0.499978 0.749996 0.068888 -0.135253
C7    C     C_1   0.499977 0.749996 0.931112 -0.135508
C8    C     C_1   0.999977 0.750004 0.931112 -0.135510
C9    C     C_1   0.999977 0.750004 0.068888 -0.135264
C10   C     C_1   0.999977 0.249996 0.068888 -0.134909
C11   C     C_1   0.999977 0.249996 0.931112 -0.134645
C12   C     C_1   0.999977 0.250004 0.431112 -0.134952
C13   C     C_R   0.000011 0.349678 0.249986 0.825668
C14   C     C_1   0.999977 0.250004 0.568888 -0.134724
C15   C     C_1   0.999977 0.749996 0.568888 -0.135426
C16   C     C_1   0.999977 0.749996 0.431112 -0.135207
C17   C     C_1   0.499974 0.750006 0.474551 0.011909
C18   C     C_1   0.499974 0.750006 0.525449 0.011772
C19   C     C_1   0.499974 0.249994 0.525449 0.012234
C20   C     C_1   0.499974 0.249994 0.474551 0.012107
C21   C     C_1   0.499974 0.250006 0.974551 0.012383
C22   C     C_1   0.499974 0.250006 0.025449 0.012325
C23   C     C_1   0.499974 0.749994 0.025449 0.011678
C24   C     C_R   0.000011 0.349678 0.750014 0.826423
C25   C     C_1   0.499974 0.749994 0.974551 0.011623
C26   C     C_1   0.999974 0.750006 0.974551 0.011619
C27   C     C_1   0.999974 0.750006 0.025449 0.011671
C28   C     C_1   0.999974 0.249994 0.025449 0.012312
C29   C     C_1   0.999974 0.249994 0.974551 0.012374
C30   C     C_1   0.999974 0.250006 0.474551 0.012100
C31   C     C_1   0.999974 0.250006 0.525449 0.012233
C32   C     C_1   0.999974 0.749994 0.525449 0.011767
C33   C     C_1   0.999974 0.749994 0.474551 0.011896
C34   C     C_R   0.499986 0.750002 0.120624 0.824579
C35   C     C_R   0.000011 0.150322 0.250014 0.826529
C36   C     C_R   0.499986 0.750002 0.879375 0.824868
C37   C     C_R   0.499986 0.249998 0.879375 0.825392
C38   C     C_R   0.499986 0.249998 0.120625 0.825636
C39   C     C_R   0.499986 0.250002 0.620625 0.825286
C40   C     C_R   0.499986 0.250002 0.379375 0.824680
C41   C     C_R   0.499986 0.749998 0.379375 0.825612
C42   C     C_R   0.499986 0.749998 0.620625 0.824948
C43   C     C_R   0.999986 0.750002 0.620625 0.824954
C44   C     C_R   0.999986 0.750002 0.379375 0.825585
C45   C     C_R   0.999986 0.249998 0.379375 0.824654
C46   C     C_R   0.000011 0.150322 0.749986 0.826485
C47   C     C_R   0.999986 0.249998 0.620625 0.825291
C48   C     C_R   0.999986 0.250002 0.120625 0.825637
C49   C     C_R   0.999986 0.250002 0.879375 0.825390
C50   C     C_R   0.999986 0.749998 0.879375 0.824871
C51   C     C_R   0.999986 0.749998 0.120625 0.824594
C52   C     C_R   0.370620 0.750000 0.250000 0.827198
C53   C     C_R   0.370620 0.750000 0.750000 0.827712
C54   C     C_R   0.370620 0.250000 0.750000 0.826727
C55   C     C_R   0.370620 0.250000 0.250000 0.827208
C56   C     C_R   0.870620 0.750000 0.750000 0.827701
C57   C     C_R   0.000011 0.849678 0.749986 0.825696
C58   C     C_R   0.870620 0.750000 0.250000 0.827237
C59   C     C_R   0.870620 0.250000 0.250000 0.827243
C60   C     C_R   0.870620 0.250000 0.750000 0.826712
C61   C     C_R   0.629373 0.750000 0.250000 0.824039
C62   C     C_R   0.629373 0.750000 0.750000 0.823715
C63   C     C_R   0.629373 0.250000 0.750000 0.824369
C64   C     C_R   0.629373 0.250000 0.250000 0.824075
C65   C     C_R   0.129373 0.750000 0.750000 0.823726
C66   C     C_R   0.129373 0.750000 0.250000 0.824012
C67   C     C_R   0.129373 0.250000 0.250000 0.824039
C68   C     C_R   0.000011 0.849678 0.250014 0.825631
C69   C     C_R   0.129373 0.250000 0.750000 0.824378
C70   C     C_1   0.681109 0.750000 0.250000 -0.132271
C71   C     C_1   0.681109 0.750000 0.750000 -0.132218
C72   C     C_1   0.681109 0.250000 0.750000 -0.132207
C73   C     C_1   0.681109 0.250000 0.250000 -0.132126
C74   C     C_1   0.181109 0.750000 0.750000 -0.132217
C75   C     C_1   0.181109 0.750000 0.250000 -0.132282
C76   C     C_1   0.181109 0.250000 0.250000 -0.132145
C77   C     C_1   0.181109 0.250000 0.750000 -0.132210
C78   C     C_1   0.724547 0.750000 0.250000 0.013536
C79   C     C_3   0.480474 0.978518 0.297729 -0.508201
C80   C     C_1   0.724547 0.750000 0.750000 0.013664
C81   C     C_1   0.724547 0.250000 0.750000 0.013477
C82   C     C_1   0.724547 0.250000 0.250000 0.013647
C83   C     C_1   0.224547 0.750000 0.750000 0.013669
C84   C     C_1   0.224547 0.750000 0.250000 0.013516
C85   C     C_1   0.224547 0.250000 0.250000 0.013619
C86   C     C_1   0.224547 0.250000 0.750000 0.013479
C87   C     C_1   0.775445 0.750000 0.250000 0.012731
C88   C     C_1   0.775445 0.750000 0.750000 0.013015
C89   C     C_1   0.775446 0.250000 0.750000 0.012477
C90   C     C_3   0.484397 0.978631 0.700836 -0.512326
C91   C     C_1   0.775446 0.250000 0.250000 0.012819
C92   C     C_1   0.275445 0.750000 0.750000 0.013024
C93   C     C_1   0.275446 0.750000 0.250000 0.012704
C94   C     C_1   0.275446 0.250000 0.250000 0.012784
C95   C     C_1   0.275446 0.250000 0.750000 0.012483
C96   C     C_1   0.818884 0.750000 0.250000 -0.135819
C97   C     C_1   0.818884 0.750000 0.750000 -0.135482
C98   C     C_1   0.818884 0.250000 0.750000 -0.136129
C99   C     C_1   0.818884 0.250000 0.250000 -0.135734
C100  C     C_1   0.318884 0.750000 0.750000 -0.135472
C101  C     C_3   0.480983 0.021481 0.702067 -0.508260
C102  C     C_1   0.318884 0.750000 0.250000 -0.135844
C103  C     C_1   0.318884 0.250000 0.250000 -0.135768
C104  C     C_1   0.318884 0.250000 0.750000 -0.136122
C105  C     C_3   0.552817 0.978248 0.241769 0.262626
C106  C     C_3   0.551866 0.978627 0.763171 0.218839
C107  C     C_3   0.552724 0.021752 0.758796 0.262567
C108  C     C_3   0.552005 0.021373 0.237388 0.218795
C109  C     C_3   0.552762 0.478248 0.741436 0.262577
C110  C     C_3   0.552713 0.478248 0.258861 0.262647
C111  C     C_3   0.551849 0.521373 0.263234 0.218786
C112  C     C_R   0.500011 0.650322 0.749986 0.825688
C113  C     C_3   0.483872 0.021369 0.298997 -0.512324
C114  C     C_3   0.551924 0.521373 0.737058 0.218826
C115  C     C_3   0.051950 0.978627 0.737166 0.218827
C116  C     C_3   0.051855 0.978627 0.263213 0.218777
C117  C     C_3   0.052717 0.021752 0.258839 0.262652
C118  C     C_3   0.052780 0.021752 0.741545 0.262578
C119  C     C_3   0.051836 0.478627 0.236713 0.218792
C120  C     C_3   0.052758 0.478248 0.758591 0.262550
C121  C     C_3   0.051917 0.521373 0.762970 0.218849
C122  C     C_3   0.052703 0.521752 0.241085 0.262635
C123  C     C_3   0.480774 0.478518 0.797850 -0.508154
C124  C     C_3   0.481041 0.478519 0.202045 -0.508172
C125  C     C_3   0.484456 0.521369 0.200817 -0.512436
C126  C     C_3   0.484181 0.521369 0.799096 -0.512425
C127  C     C_3   0.984080 0.978631 0.799064 -0.512414
C128  C     C_3   0.984436 0.978631 0.200824 -0.512460
C129  C     C_3   0.981022 0.021481 0.202052 -0.508161
C130  C     C_3   0.980676 0.021481 0.797811 -0.508150
C131  C     C_3   0.984506 0.478631 0.299198 -0.512408
C132  C     C_R   0.500011 0.349678 0.749986 0.826483
C133  C     C_3   0.980799 0.478518 0.702140 -0.508230
C134  C     C_3   0.984207 0.521369 0.700896 -0.512360
C135  C     C_3   0.981091 0.521481 0.297975 -0.508210
C136  C     C_1   0.000030 0.610717 0.249929 -0.115698
C137  C     C_1   0.000000 0.610718 0.750100 -0.112750
C138  C     C_1   0.000030 0.389283 0.750070 -0.115746
C139  C     C_1   0.999999 0.389282 0.249899 -0.112768
C140  C     C_1   0.000031 0.110717 0.749930 -0.115595
C141  C     C_1   0.000030 0.110717 0.250071 -0.115536
C142  C     C_1   0.999999 0.889282 0.250101 -0.112951
C143  C     C_R   0.500011 0.349678 0.250014 0.826527
C144  C     C_1   0.000001 0.889282 0.749900 -0.112889
C145  C     C_1   0.500000 0.610718 0.749900 -0.112892
C146  C     C_1   0.499999 0.610718 0.250101 -0.112937
C147  C     C_1   0.500030 0.389283 0.250071 -0.115525
C148  C     C_1   0.500031 0.389283 0.749930 -0.115599
C149  C     C_1   0.500001 0.110718 0.249901 -0.112777
C150  C     C_1   0.500030 0.110717 0.750071 -0.115733
C151  C     C_1   0.499999 0.889282 0.750101 -0.112735
C152  C     C_1   0.500032 0.889283 0.249930 -0.115702
C153  C     C_3   0.500497 0.963303 0.249332 0.031024
C154  C     C_R   0.500011 0.150322 0.750014 0.826428
C155  C     C_3   0.500381 0.963303 0.750805 0.016020
C156  C     C_3   0.500488 0.036697 0.750675 0.031076
C157  C     C_3   0.500392 0.036697 0.249201 0.016046
C158  C     C_3   0.500492 0.463303 0.749328 0.030993
C159  C     C_3   0.500487 0.463303 0.250676 0.030929
C160  C     C_3   0.500380 0.536697 0.250806 0.016152
C161  C     C_3   0.500386 0.536697 0.749197 0.016126
C162  C     C_3   0.000388 0.963303 0.749198 0.016117
C163  C     C_3   0.000381 0.963303 0.250806 0.016169
C164  C     C_3   0.000488 0.036697 0.250676 0.030944
C165  C     C_R   0.500011 0.150322 0.249986 0.825708
C166  C     C_3   0.000494 0.036697 0.749329 0.030984
C167  C     C_3   0.000379 0.463303 0.249193 0.016070
C168  C     C_3   0.000491 0.463303 0.750672 0.031081
C169  C     C_3   0.000385 0.536697 0.750803 0.016064
C170  C     C_3   0.000486 0.536697 0.249323 0.031033
C171  C     C_3   0.966268 0.521692 0.208933 0.172147
C172  C     C_3   0.963014 0.521513 0.788261 0.171130
C173  C     C_3   0.966520 0.478308 0.791270 0.172215
C174  C     C_3   0.962781 0.478487 0.211963 0.171200
C175  C     C_3   0.966628 0.021692 0.708644 0.172217
C176  C     C_R   0.500011 0.849678 0.249986 0.826485
C177  C     C_3   0.966329 0.021692 0.291115 0.172183
C178  C     C_3   0.962835 0.978487 0.288089 0.171182
C179  C     C_3   0.963114 0.978487 0.711643 0.171144
C180  C     C_3   0.463034 0.521513 0.711719 0.171150
C181  C     C_3   0.462819 0.521512 0.288074 0.171161
C182  C     C_3   0.466313 0.478308 0.291102 0.172206
C183  C     C_3   0.466543 0.478308 0.708712 0.172209
C184  C     C_3   0.463277 0.021512 0.211488 0.171143
C185  C     C_3   0.466363 0.021692 0.791143 0.172266
C186  C     C_3   0.462866 0.978488 0.788119 0.171099
C187  C     C_R   0.500011 0.849678 0.750014 0.825740
C188  C     C_3   0.466806 0.978308 0.208503 0.172219
C189  C     C_1   0.000163 0.577421 0.249739 0.067039
C190  C     C_1   0.000101 0.577424 0.750327 0.057286
C191  C     C_1   0.000166 0.422579 0.750259 0.066984
C192  C     C_1   0.000098 0.422576 0.249671 0.057232
C193  C     C_1   0.000167 0.077421 0.749742 0.067084
C194  C     C_1   0.000164 0.077421 0.250260 0.067126
C195  C     C_1   0.000099 0.922576 0.250329 0.057115
C196  C     C_1   0.000102 0.922576 0.749673 0.057167
C197  C     C_1   0.500102 0.577424 0.749673 0.057168
C198  C     C_R   0.000011 0.650322 0.750014 0.825745
C199  C     C_1   0.500099 0.577424 0.250329 0.057117
C200  C     C_1   0.500164 0.422579 0.250261 0.067133
C201  C     C_1   0.500166 0.422579 0.749742 0.067081
C202  C     C_1   0.500104 0.077424 0.249675 0.057195
C203  C     C_1   0.500164 0.077421 0.750260 0.066991
C204  C     C_1   0.500099 0.922576 0.750328 0.057236
C205  C     C_1   0.500169 0.922579 0.249744 0.067034
C206  C     C_1   0.499977 0.750003 0.431112 -0.135191
C207  C     C_1   0.499977 0.750003 0.568888 -0.135424
C208  C     C_1   0.499978 0.249996 0.568888 -0.134727
H1    H     H_    0.442151 0.970136 0.301848 0.192241
H2    H     H_    0.948643 0.967095 0.190929 0.200400
H3    H     H_    0.942749 0.029864 0.197493 0.192223
H4    H     H_    0.942371 0.029864 0.802092 0.192221
H5    H     H_    0.948727 0.467095 0.309143 0.200433
H6    H     H_    0.942505 0.470136 0.697759 0.192206
H7    H     H_    0.948369 0.532905 0.691168 0.200455
H8    H     H_    0.942825 0.529864 0.302590 0.192222
H9    H     H_    0.499719 0.966473 0.329071 0.213121
H10   H     H_    0.509264 0.969908 0.671749 0.198307
H11   H     H_    0.500561 0.033527 0.670933 0.213076
H12   H     H_    0.448596 0.967095 0.690970 0.200446
H13   H     H_    0.508426 0.030093 0.328348 0.198294
H14   H     H_    0.500217 0.466473 0.829070 0.213153
H15   H     H_    0.500657 0.466472 0.170934 0.213157
H16   H     H_    0.509359 0.530092 0.171761 0.198222
H17   H     H_    0.508919 0.530093 0.828292 0.198235
H18   H     H_    0.008758 0.969907 0.828311 0.198237
H19   H     H_    0.009326 0.969907 0.171756 0.198213
H20   H     H_    0.000625 0.033527 0.170933 0.213155
H21   H     H_    0.000054 0.033527 0.829071 0.213157
H22   H     H_    0.009437 0.469907 0.328230 0.198273
H23   H     H_    0.442706 0.029864 0.697540 0.192200
H24   H     H_    0.000257 0.466473 0.670930 0.213075
H25   H     H_    0.008962 0.530092 0.671713 0.198303
H26   H     H_    0.000740 0.533527 0.329065 0.213094
H27   H     H_    0.430035 0.967138 0.215051 0.151288
H28   H     H_    0.426425 0.971883 0.773786 0.152877
H29   H     H_    0.429664 0.032863 0.784202 0.151357
H30   H     H_    0.426686 0.028118 0.225430 0.152871
H31   H     H_    0.429814 0.467139 0.715495 0.151334
H32   H     H_    0.429623 0.467137 0.284117 0.151336
H33   H     H_    0.426396 0.528117 0.273697 0.152894
H34   H     H_    0.447968 0.032905 0.308478 0.200453
H35   H     H_    0.426531 0.528119 0.725891 0.152877
H36   H     H_    0.926581 0.971881 0.725740 0.152877
H37   H     H_    0.926406 0.971882 0.273728 0.152889
H38   H     H_    0.929636 0.032862 0.284144 0.151345
H39   H     H_    0.929886 0.032861 0.715350 0.151333
H40   H     H_    0.926372 0.471881 0.226376 0.152897
H41   H     H_    0.929795 0.467139 0.784467 0.151357
H42   H     H_    0.926519 0.528119 0.774070 0.152864
H43   H     H_    0.929585 0.532861 0.215960 0.151339
H44   H     H_    0.567000 0.966915 0.207423 0.124570
H45   H     H_    0.442479 0.470136 0.802211 0.192213
H46   H     H_    0.559962 0.971947 0.801231 0.101107
H47   H     H_    0.566541 0.033087 0.793291 0.124572
H48   H     H_    0.560510 0.028055 0.199417 0.101071
H49   H     H_    0.566731 0.466914 0.707002 0.124592
H50   H     H_    0.566487 0.466914 0.293373 0.124666
H51   H     H_    0.559899 0.528054 0.301304 0.101033
H52   H     H_    0.560187 0.528054 0.699034 0.101039
H53   H     H_    0.060292 0.971946 0.699158 0.101037
H54   H     H_    0.059921 0.971947 0.301280 0.101033
H55   H     H_    0.066506 0.033087 0.293345 0.124642
H56   H     H_    0.442770 0.470136 0.197471 0.192241
H57   H     H_    0.066820 0.033086 0.707140 0.124593
H58   H     H_    0.059847 0.471946 0.198635 0.101111
H59   H     H_    0.066709 0.466913 0.793032 0.124528
H60   H     H_    0.060159 0.528053 0.800999 0.101097
H61   H     H_    0.066443 0.533086 0.206559 0.124580
H62   H     H_    0.076573 0.523145 0.307725 0.349467
H63   H     H_    0.080149 0.538770 0.701995 0.341936
H64   H     H_    0.076219 0.476856 0.691806 0.349447
H65   H     H_    0.080437 0.461229 0.297514 0.341889
H66   H     H_    0.076070 0.023144 0.808390 0.349479
H67   H     H_    0.448668 0.532905 0.190908 0.200413
H68   H     H_    0.076489 0.023144 0.192164 0.349477
H69   H     H_    0.080371 0.961230 0.202371 0.341845
H70   H     H_    0.080023 0.961229 0.798213 0.341887
H71   H     H_    0.580122 0.538771 0.798048 0.341886
H72   H     H_    0.580393 0.538763 0.202402 0.341863
H73   H     H_    0.576512 0.476851 0.192196 0.349477
H74   H     H_    0.576190 0.476855 0.808233 0.349479
H75   H     H_    0.579820 0.038764 0.298557 0.341898
H76   H     H_    0.576442 0.023144 0.692102 0.349452
H77   H     H_    0.580333 0.961230 0.702306 0.341945
H78   H     H_    0.448337 0.532905 0.808804 0.200440
H79   H     H_    0.575821 0.976850 0.308713 0.349460
H80   H     H_    0.510874 0.977672 0.153192 0.329621
H81   H     H_    0.498475 0.960188 0.844684 0.333840
H82   H     H_    0.509839 0.022328 0.846919 0.329633
H83   H     H_    0.499492 0.039816 0.155311 0.333815
H84   H     H_    0.510263 0.477663 0.653127 0.329638
H85   H     H_    0.509720 0.477674 0.346932 0.329688
H86   H     H_    0.498360 0.539817 0.344679 0.333714
H87   H     H_    0.498893 0.539799 0.655305 0.333722
H88   H     H_    0.999088 0.960198 0.655304 0.333725
H89   H     H_    0.948217 0.967095 0.808698 0.200448
H90   H     H_    0.998400 0.960192 0.344685 0.333720
H91   H     H_    0.009761 0.022331 0.346926 0.329673
H92   H     H_    0.010463 0.022335 0.653149 0.329639
H93   H     H_    0.998265 0.460205 0.155310 0.333829
H94   H     H_    0.010214 0.477657 0.846875 0.329567
H95   H     H_    0.998842 0.539787 0.844702 0.333832
H96   H     H_    0.009620 0.522340 0.153061 0.329611
O1    O     O_3   0.499990 0.750000 0.250000 -0.487698
O2    O     O_R   0.527870 0.668020 0.722120 -0.624665
O3    O     O_R   0.972140 0.331980 0.722150 -0.639374
O4    O     O_R   0.972140 0.168020 0.222150 -0.639384
O5    O     O_R   0.972140 0.168020 0.777850 -0.639351
O6    O     O_R   0.972140 0.831980 0.777850 -0.638920
O7    O     O_R   0.972140 0.831980 0.222150 -0.638875
O8    O     O_3   0.085105 0.534466 0.276460 -0.706296
O9    O     O_3   0.089069 0.538388 0.736418 -0.704593
O10   O     O_3   0.084942 0.465534 0.723018 -0.706570
O11   O     O_3   0.089149 0.461612 0.263038 -0.704746
O12   O     O_3   0.084873 0.034466 0.777201 -0.706459
O13   O     O_R   0.527870 0.331980 0.722120 -0.623765
O14   O     O_3   0.085067 0.034466 0.223416 -0.706284
O15   O     O_3   0.089130 0.961612 0.236835 -0.704870
O16   O     O_3   0.089034 0.961612 0.763814 -0.704666
O17   O     O_3   0.589062 0.538388 0.763630 -0.704670
O18   O     O_3   0.589135 0.538388 0.236871 -0.704806
O19   O     O_3   0.585078 0.465534 0.223453 -0.706230
O20   O     O_3   0.584928 0.465533 0.777025 -0.706464
O21   O     O_3   0.588974 0.038388 0.264195 -0.704806
O22   O     O_3   0.585045 0.034466 0.723347 -0.706551
O23   O     O_3   0.589120 0.961612 0.736763 -0.704563
O24   O     O_R   0.527870 0.331980 0.277880 -0.623656
O25   O     O_3   0.584759 0.965533 0.277559 -0.706346
O26   O     O_3   0.480424 0.965477 0.162589 -0.705120
O27   O     O_3   0.464735 0.961251 0.833602 -0.704901
O28   O     O_3   0.479491 0.034522 0.837199 -0.705036
O29   O     O_3   0.465635 0.038748 0.166027 -0.704812
O30   O     O_3   0.479868 0.465476 0.662714 -0.704896
O31   O     O_3   0.479385 0.465478 0.337174 -0.704914
O32   O     O_3   0.464633 0.538748 0.333560 -0.705005
O33   O     O_3   0.465106 0.538749 0.666244 -0.705037
O34   O     O_3   0.965279 0.961251 0.666173 -0.705027
O35   O     O_R   0.527870 0.168020 0.777880 -0.623832
O36   O     O_3   0.964669 0.961251 0.333574 -0.704974
O37   O     O_3   0.979418 0.034523 0.337182 -0.704892
O38   O     O_3   0.980049 0.034524 0.662673 -0.704881
O39   O     O_3   0.964553 0.461251 0.166475 -0.704826
O40   O     O_3   0.979819 0.465476 0.837276 -0.705080
O41   O     O_3   0.965063 0.538750 0.833737 -0.704917
O42   O     O_3   0.979287 0.534524 0.162848 -0.705145
O43   O     O_R   0.527870 0.168020 0.222120 -0.624708
O44   O     O_R   0.527870 0.831980 0.222120 -0.623722
O45   O     O_R   0.527870 0.831980 0.777880 -0.624591
O46   O     O_R   0.027870 0.668020 0.777880 -0.624592
O47   O     O_R   0.027870 0.668020 0.222120 -0.623718
O48   O     O_R   0.027870 0.331980 0.222120 -0.624700
O49   O     O_3   0.499990 0.750000 0.750000 -0.487623
O50   O     O_R   0.027870 0.331980 0.777880 -0.623841
O51   O     O_R   0.027870 0.168020 0.277880 -0.623658
O52   O     O_R   0.027870 0.168020 0.722120 -0.623764
O53   O     O_R   0.027870 0.831980 0.722120 -0.624664
O54   O     O_R   0.027870 0.831980 0.277880 -0.624767
O55   O     O_R   0.472130 0.728510 0.143730 -0.634367
O56   O     O_R   0.472130 0.728510 0.856270 -0.634174
O57   O     O_R   0.472130 0.271490 0.856270 -0.633843
O58   O     O_R   0.472130 0.271490 0.143730 -0.633671
O59   O     O_R   0.472130 0.228510 0.643730 -0.633976
O60   O     O_3   0.499990 0.250000 0.750000 -0.487863
O61   O     O_R   0.472130 0.228510 0.356270 -0.634347
O62   O     O_R   0.472130 0.771490 0.356270 -0.633647
O63   O     O_R   0.472130 0.771490 0.643730 -0.634052
O64   O     O_R   0.972130 0.728510 0.643730 -0.634052
O65   O     O_R   0.972130 0.728510 0.356270 -0.633667
O66   O     O_R   0.972130 0.271490 0.356270 -0.634359
O67   O     O_R   0.972130 0.271490 0.643730 -0.633970
O68   O     O_R   0.972130 0.228510 0.143730 -0.633668
O69   O     O_R   0.972130 0.228510 0.856270 -0.633840
O70   O     O_R   0.972130 0.771490 0.856270 -0.634171
O71   O     O_3   0.499990 0.250000 0.250000 -0.487791
O72   O     O_R   0.972130 0.771490 0.143730 -0.634363
O73   O     O_R   0.393720 0.728520 0.222140 -0.631409
O74   O     O_R   0.393720 0.728520 0.777860 -0.631471
O75   O     O_R   0.393720 0.271480 0.777860 -0.631877
O76   O     O_R   0.393720 0.271480 0.222140 -0.631905
O77   O     O_R   0.393720 0.228520 0.722140 -0.631889
O78   O     O_R   0.393720 0.228520 0.277860 -0.631434
O79   O     O_R   0.393720 0.771480 0.277860 -0.631945
O80   O     O_R   0.393720 0.771480 0.722140 -0.631441
O81   O     O_R   0.893720 0.728520 0.722140 -0.631448
O82   O     O_3   0.999990 0.750000 0.750000 -0.487620
O83   O     O_R   0.893720 0.728520 0.277860 -0.631914
O84   O     O_R   0.893720 0.271480 0.277860 -0.631397
O85   O     O_R   0.893720 0.271480 0.722140 -0.631894
O86   O     O_R   0.893720 0.228520 0.222140 -0.631918
O87   O     O_R   0.893720 0.228520 0.777860 -0.631880
O88   O     O_R   0.893720 0.771480 0.777860 -0.631472
O89   O     O_R   0.893720 0.771480 0.222140 -0.631418
O90   O     O_R   0.606280 0.728500 0.277860 -0.630990
O91   O     O_R   0.606280 0.728500 0.722140 -0.631004
O92   O     O_R   0.606280 0.271500 0.722140 -0.631018
O93   O     O_3   0.999990 0.750000 0.250000 -0.487697
O94   O     O_R   0.606280 0.271500 0.277860 -0.630999
O95   O     O_R   0.606280 0.228500 0.777860 -0.631015
O96   O     O_R   0.606280 0.228500 0.222140 -0.630982
O97   O     O_R   0.606280 0.771500 0.222140 -0.631053
O98   O     O_R   0.606280 0.771500 0.777860 -0.630995
O99   O     O_R   0.106280 0.728500 0.777860 -0.631000
O100  O     O_R   0.106280 0.728500 0.222140 -0.631039
O101  O     O_R   0.106280 0.271500 0.222140 -0.630964
O102  O     O_R   0.106280 0.271500 0.777860 -0.631019
O103  O     O_R   0.106280 0.228500 0.277860 -0.631017
O104  O     O_3   0.999990 0.250000 0.250000 -0.487794
O105  O     O_R   0.106280 0.228500 0.722140 -0.631017
O106  O     O_R   0.106280 0.771500 0.722140 -0.631004
O107  O     O_R   0.106280 0.771500 0.277860 -0.631008
O108  O     O_R   0.527850 0.771500 0.143710 -0.629221
O109  O     O_R   0.527850 0.771500 0.856290 -0.629468
O110  O     O_R   0.527850 0.228500 0.856290 -0.629226
O111  O     O_R   0.527850 0.228500 0.143710 -0.629474
O112  O     O_R   0.527850 0.271500 0.643710 -0.629127
O113  O     O_R   0.527850 0.271500 0.356290 -0.629114
O114  O     O_R   0.527850 0.728500 0.356290 -0.629586
O115  O     O_3   0.999990 0.250000 0.750000 -0.487861
O116  O     O_R   0.527850 0.728500 0.643710 -0.629575
O117  O     O_R   0.027850 0.771500 0.643710 -0.629574
O118  O     O_R   0.027850 0.771500 0.356290 -0.629584
O119  O     O_R   0.027850 0.228500 0.356290 -0.629117
O120  O     O_R   0.027850 0.228500 0.643710 -0.629126
O121  O     O_R   0.027850 0.271500 0.143710 -0.629475
O122  O     O_R   0.027850 0.271500 0.856290 -0.629229
O123  O     O_R   0.027850 0.728500 0.856290 -0.629473
O124  O     O_R   0.027850 0.728500 0.143710 -0.629230
O125  O     O_R   0.472140 0.668020 0.222150 -0.638866
O126  O     O_R   0.527870 0.668020 0.277880 -0.624769
O127  O     O_R   0.472140 0.668020 0.777850 -0.638915
O128  O     O_R   0.472140 0.331980 0.777850 -0.639354
O129  O     O_R   0.472140 0.331980 0.222150 -0.639380
O130  O     O_R   0.472140 0.168020 0.722150 -0.639377
O131  O     O_R   0.472140 0.168020 0.277850 -0.638888
O132  O     O_R   0.472140 0.831980 0.277850 -0.639393
O133  O     O_R   0.472140 0.831980 0.722150 -0.638878
O134  O     O_R   0.972140 0.668020 0.722150 -0.638891
O135  O     O_R   0.972140 0.668020 0.277850 -0.639396
O136  O     O_R   0.972140 0.331980 0.277850 -0.638854
Zn1   Zn    Zn3+2 0.539790 0.780710 0.210180 1.001721
Zn2   Zn    Zn3+2 0.039790 0.780710 0.289820 1.001121
Zn3   Zn    Zn3+2 0.039790 0.219290 0.289820 1.001944
Zn4   Zn    Zn3+2 0.039790 0.219290 0.710180 1.002237
Zn5   Zn    Zn3+2 0.039790 0.280710 0.210180 1.001357
Zn6   Zn    Zn3+2 0.039790 0.280710 0.789820 1.002126
Zn7   Zn    Zn3+2 0.039790 0.719290 0.789820 1.000961
Zn8   Zn    Zn3+2 0.039790 0.719290 0.210180 1.001722
Zn9   Zn    Zn3+2 0.460190 0.719300 0.210200 0.991147
Zn10  Zn    Zn3+2 0.460190 0.719300 0.789800 0.991541
Zn11  Zn    Zn3+2 0.460190 0.280700 0.789800 0.991326
Zn12  Zn    Zn3+2 0.539790 0.780710 0.789820 1.000966
Zn13  Zn    Zn3+2 0.460190 0.280700 0.210200 0.991712
Zn14  Zn    Zn3+2 0.460190 0.219300 0.710200 0.991158
Zn15  Zn    Zn3+2 0.460190 0.219300 0.289800 0.991246
Zn16  Zn    Zn3+2 0.460190 0.780700 0.289800 0.991617
Zn17  Zn    Zn3+2 0.460190 0.780700 0.710200 0.991713
Zn18  Zn    Zn3+2 0.960190 0.719300 0.710200 0.991699
Zn19  Zn    Zn3+2 0.960190 0.719300 0.289800 0.991627
Zn20  Zn    Zn3+2 0.960190 0.280700 0.289800 0.991278
Zn21  Zn    Zn3+2 0.960190 0.280700 0.710200 0.991153
Zn22  Zn    Zn3+2 0.960190 0.219300 0.210200 0.991718
Zn23  Zn    Zn3+2 0.539790 0.219290 0.789820 1.002137
Zn24  Zn    Zn3+2 0.960190 0.219300 0.789800 0.991322
Zn25  Zn    Zn3+2 0.960190 0.780700 0.789800 0.991538
Zn26  Zn    Zn3+2 0.960190 0.780700 0.210200 0.991157
Zn27  Zn    Zn3+2 0.539790 0.219290 0.210180 1.001354
Zn28  Zn    Zn3+2 0.539790 0.280710 0.710180 1.002230
Zn29  Zn    Zn3+2 0.539790 0.280710 0.289820 1.001982
Zn30  Zn    Zn3+2 0.539790 0.719290 0.289820 1.001154
Zn31  Zn    Zn3+2 0.539790 0.719290 0.710180 1.000842
Zn32  Zn    Zn3+2 0.039790 0.780710 0.710180 1.000849

loop_
_geom_bond_atom_site_label_1
_geom_bond_atom_site_label_2
_ccdc_geom_bond_type
O100  Zn8   S    
H62   O8    S    
C38   O58   A    
C37   O57   A    
C119  C167  S    
C8    C26   T    
C52   O73   A    
C19   C20   S    
C166  C193  S    
C74   C83   T    
C174  H40   S    
C15   C32   T    
C156  C185  S    
H85   O31   S    
C120  C168  S    
O70   Zn25  S    
O71   Zn15  S    
C13   C139  S    
O49   Zn12  S    
C17   C206  T    
C44   O65   A    
C60   C98   S    
H79   O25   S    
C106  C107  S    
C124  H56   S    
C171  H43   S    
O5    Zn24  S    
C46   O5    A    
C110  C111  S    
C187  O45   A    
O91   Zn31  S    
C122  C170  S    
C134  C169  S    
H73   O19   S    
C154  O35   A    
C57   O53   A    
C16   C44   S    
O127  Zn10  S    
C88   C97   T    
H72   O18   S    
C175  H39   S    
O130  Zn14  S    
C120  H59   S    
O134  Zn18  S    
C21   C22   S    
C47   O120  A    
H63   O9    S    
C147  C200  T    
C150  C203  T    
O60   Zn23  S    
C115  O16   S    
C185  O28   S    
C184  H30   S    
C105  C108  S    
C116  O15   S    
H94   O40   S    
C143  O129  A    
O112  Zn28  S    
O84   Zn20  S    
H68   O14   S    
C176  O132  A    
H90   O36   S    
H87   O33   S    
C139  C192  T    
C62   O98   A    
C35   O4    A    
C63   O95   A    
C123  C126  S    
C130  H21   S    
O108  Zn1   S    
C60   O85   A    
H83   O29   S    
C134  H7    S    
C129  C164  S    
O126  Zn30  S    
C120  O10   S    
O48   Zn5   S    
C111  C160  S    
C11   C49   S    
C101  H11   S    
C177  H38   S    
C115  C118  S    
O119  Zn3   S    
C163  C178  S    
C26   C27   S    
C42   C207  S    
C47   O67   A    
C113  H13   S    
C167  C174  S    
O81   Zn18  S    
C131  H22   S    
C159  C200  S    
O67   Zn21  S    
O125  Zn9   S    
C133  H6    S    
O98   Zn12  S    
C175  O38   S    
C8    C50   S    
C181  O32   S    
O82   Zn7   S    
O92   Zn28  S    
C125  H67   S    
C125  H16   S    
O104  Zn22  S    
O57   Zn11  S    
C183  O30   S    
O113  Zn29  S    
O90   Zn30  S    
O52   Zn4   S    
C94   C103  T    
O71   Zn13  S    
O101  Zn5   S    
O122  Zn6   S    
C105  O25   S    
C80   C88   S    
C136  C189  T    
O1    Zn9   S    
C35   O51   A    
C129  H20   S    
C84   C93   S    
C1    O126  A    
C86   C95   S    
C107  C156  S    
C67   O103  A    
C174  O39   S    
O55   Zn9   S    
C113  C157  S    
O93   Zn26  S    
O87   Zn24  S    
O1    Zn16  S    
C78   C87   S    
C105  C153  S    
C42   O63   A    
O136  Zn20  S    
C131  H5    S    
O109  Zn12  S    
C69   C77   S    
C138  C191  T    
O64   Zn18  S    
C14   C31   T    
O50   Zn6   S    
C128  C129  S    
O51   Zn3   S    
C51   O72   A    
C125  C160  S    
C44   O118  A    
C45   O119  A    
C60   O87   A    
H86   O32   S    
O4    Zn22  S    
C58   O89   A    
C110  H50   S    
C154  O130  A    
C180  O33   S    
C39   O112  A    
C164  C194  S    
C75   C84   T    
C79   H9    S    
C67   O101  A    
C170  C171  S    
O53   Zn32  S    
O85   Zn21  S    
O111  Zn27  S    
C112  C145  S    
C132  O128  A    
C135  C170  S    
C55   O76   A    
C122  H61   S    
O46   Zn7   S    
O6    Zn25  S    
C185  H29   S    
C172  O41   S    
C127  H18   S    
C64   C73   S    
C68   O7    A    
C68   C142  S    
C40   O61   A    
C157  C184  S    
C129  H3    S    
C115  H53   S    
C158  C183  S    
C90   H12   S    
C36   O56   A    
O24   Zn29  S    
C131  C167  S    
C40   O113  A    
C159  C182  S    
C143  O24   A    
C64   O94   A    
C56   C97   S    
O74   Zn10  S    
O104  Zn3   S    
H92   O38   S    
C198  O46   A    
C181  H33   S    
C160  C199  S    
C186  H28   S    
C149  C165  S    
C133  C168  S    
C37   O110  A    
O44   Zn1   S    
C108  C157  S    
C173  H41   S    
O76   Zn13  S    
O115  Zn21  S    
C65   C74   S    
C18   C207  T    
C79   C153  S    
C118  H57   S    
C63   O92   A    
C135  H8    S    
C39   C208  S    
C17   C18   S    
C135  H26   S    
C107  H47   S    
C4    C37   S    
O60   Zn11  S    
C39   O59   A    
C188  H27   S    
C109  C114  S    
H65   O11   S    
O58   Zn13  S    
C24   O50   A    
H66   O12   S    
O71   Zn29  S    
C127  C162  S    
C79   C113  S    
C19   C208  T    
C153  C205  S    
C111  O18   S    
C160  C181  S    
C173  O40   S    
O83   Zn19  S    
C120  C121  S    
C180  H35   S    
C118  O12   S    
C57   C144  S    
O93   Zn19  S    
C105  H44   S    
O107  Zn2   S    
O77   Zn14  S    
O59   Zn14  S    
C50   O123  A    
C144  C196  T    
C89   C98   T    
O135  Zn19  S    
C24   O3    A    
C126  H78   S    
C133  H24   S    
C15   C43   S    
O102  Zn6   S    
H84   O30   S    
C76   C85   T    
C137  C198  S    
C52   O79   A    
C62   C71   S    
O80   Zn17  S    
O65   Zn19  S    
C90   H10   S    
C137  C190  T    
C113  H34   S    
C158  C201  S    
H96   O42   S    
C64   O96   A    
C91   C99   T    
C156  C203  S    
C149  C202  T    
O96   Zn27  S    
O68   Zn22  S    
H77   O23   S    
C61   C70   S    
O78   Zn15  S    
C65   O106  A    
C53   O80   A    
H95   O41   S    
C7    C36   S    
C106  H46   S    
C116  C163  S    
C9    C51   S    
O121  Zn5   S    
C58   O83   A    
O79   Zn16  S    
C181  C182  S    
C95   C104  T    
C151  C187  S    
C170  C189  S    
C52   C102  S    
C166  C175  S    
O54   Zn2   S    
O110  Zn23  S    
C42   O116  A    
C54   C104  S    
C28   C29   S    
H93   O39   S    
C41   O62   A    
H80   O26   S    
C30   C31   S    
C117  O14   S    
C176  O44   A    
C41   C206  S    
C46   O52   A    
O35   Zn23  S    
C128  H2    S    
C142  C195  T    
O82   Zn32  S    
C114  O17   S    
C126  C161  S    
C72   C81   T    
O82   Zn18  S    
C81   C89   S    
C13   O136  A    
C178  O36   S    
O116  Zn31  S    
O129  Zn13  S    
C5    C38   S    
C108  H48   S    
C111  H51   S    
O60   Zn28  S    
C2    O135  A    
C117  C164  S    
O72   Zn26  S    
C171  C174  S    
C49   O69   A    
H91   O37   S    
H88   O34   S    
C112  O127  A    
O94   Zn29  S    
C109  O20   S    
O106  Zn32  S    
C101  C156  S    
C119  H58   S    
C6    C34   S    
O97   Zn1   S    
C107  O22   S    
C143  C147  S    
C167  C192  S    
C127  H89   S    
C178  H37   S    
C130  C166  S    
O117  Zn32  S    
C163  C195  S    
C122  O8    S    
C3    C20   T    
H64   O10   S    
C1    O125  A    
C69   O102  A    
O43   Zn27  S    
C123  C158  S    
C3    C40   S    
C53   O74   A    
C10   C48   S    
C133  C134  S    
C119  O11   S    
C61   O90   A    
O61   Zn15  S    
C171  O42   S    
C165  O43   A    
C73   C82   T    
C9    C27   T    
C46   C140  S    
O114  Zn30  S    
C10   C28   T    
C79   H1    S    
C12   C30   T    
O118  Zn2   S    
C45   O66   A    
O133  Zn17  S    
O49   Zn17  S    
C114  C161  S    
C93   C102  T    
C153  C188  S    
C62   O91   A    
C65   O99   A    
O89   Zn26  S    
C66   O100  A    
C56   O81   A    
C7    C25   T    
C161  C197  S    
H74   O20   S    
C32   C33   S    
H71   O17   S    
C41   O114  A    
C185  C186  S    
O2    Zn31  S    
C66   C75   S    
C172  H42   S    
O115  Zn6   S    
O128  Zn11  S    
C54   O77   A    
C123  H45   S    
C82   C91   S    
C117  H55   S    
O1    Zn1   S    
C63   C72   S    
C177  C178  S    
C43   O64   A    
C162  C196  S    
C108  O21   S    
O56   Zn10  S    
C114  H52   S    
C121  C169  S    
O120  Zn4   S    
C70   C78   T    
C59   C99   S    
C130  H4    S    
C55   O78   A    
O69   Zn24  S    
O63   Zn17  S    
C182  H32   S    
O124  Zn8   S    
O103  Zn3   S    
C83   C92   S    
C168  C191  S    
C36   O109  A    
C188  O26   S    
C57   O6    A    
C186  O27   S    
C131  C135  S    
C165  O131  A    
O86   Zn22  S    
C121  O9    S    
C124  C159  S    
C55   C103  S    
O115  Zn24  S    
C146  C199  T    
C116  C117  S    
C110  O19   S    
C58   C96   S    
C183  H31   S    
C50   O70   A    
H81   O27   S    
O95   Zn23  S    
C5    C22   T    
C157  C202  S    
O99   Zn7   S    
C106  O23   S    
C34   O108  A    
C59   O86   A    
C179  H36   S    
H75   O21   S    
C180  C183  S    
C23   C25   S    
C109  H49   S    
O75   Zn11  S    
C1    C146  S    
O93   Zn8   S    
C169  C190  S    
C151  C204  T    
C109  C158  S    
C121  H60   S    
O73   Zn9   S    
C71   C80   T    
C148  C201  T    
C168  C173  S    
C123  H14   S    
O62   Zn16  S    
C48   O121  A    
C132  C148  S    
C152  C205  T    
C175  C179  S    
C24   C138  S    
O1    Zn30  S    
C118  C166  S    
C128  C163  S    
C2    C136  S    
C184  C188  S    
O115  Zn4   S    
O13   Zn28  S    
C152  C176  S    
O49   Zn10  S    
C54   O75   A    
C90   C101  S    
C145  C197  T    
O104  Zn5   S    
O132  Zn16  S    
C16   C33   T    
C85   C94   S    
C124  H15   S    
C87   C96   T    
O123  Zn7   S    
C101  H23   S    
C161  C180  S    
C162  C179  S    
O47   Zn8   S    
C35   C141  S    
C51   O124  A    
C68   O54   A    
C77   C86   T    
C106  C155  S    
C150  C154  S    
C49   O122  A    
C169  C172  S    
O45   Zn12  S    
C155  C204  S    
C177  O37   S    
C172  C173  S    
C92   C100  T    
C53   C100  S    
C140  C193  T    
C119  C122  S    
C61   O97   A    
C2    O47   A    
C132  O13   A    
H76   O22   S    
C184  O29   S    
C34   O55   A    
C12   C45   S    
C155  C186  S    
C38   O111  A    
O3    Zn21  S    
C14   C47   S    
C67   C76   S    
O105  Zn4   S    
O71   Zn27  S    
C48   O68   A    
C115  C162  S    
C127  C130  S    
O7    Zn26  S    
C4    C21   T    
C179  O34   S    
C66   O107  A    
O131  Zn15  S    
C128  H19   S    
C6    C23   T    
C56   O88   A    
C134  H25   S    
O66   Zn20  S    
C141  C194  T    
C43   O117  A    
O60   Zn14  S    
C59   O84   A    
H69   O15   S    
C116  H54   S    
C110  C159  S    
C13   O48   A    
H70   O16   S    
O88   Zn25  S    
C126  H17   S    
C11   C29   T    
C112  O2    A    
C182  O31   S    
O49   Zn31  S    
C187  O133  A    
O104  Zn20  S    
O82   Zn25  S    
O93   Zn2   S    
C90   C155  S    
C198  O134  A    
C69   O105  A    
C164  C177  S    
H82   O28   S    
C124  C125  S    
