data_mof_unit_67398.cif
_audit_creation_date              2012-12-11T19:53:51-0500
_audit_creation_method            fapswitch 2.2
_symmetry_space_group_name_H-M    P1
_symmetry_Int_Tables_number       1
_space_group_crystal_system       triclinic
_cell_length_a                    8.902297
_cell_length_b                    16.74643
_cell_length_c                    17.456707
_cell_angle_alpha                 110.685026
_cell_angle_beta                  82.158137
_cell_angle_gamma                 96.7848
_cell_volume                      2405.06310495

loop_
_atom_site_label
_atom_site_type_symbol
_atom_type_description
_atom_site_fract_x
_atom_site_fract_y
_atom_site_fract_z
_atom_type_partial_charge
Ba1   Ba    Ba6+2 0.325860 0.460280 0.530510 1.868079
Ba2   Ba    Ba6+2 0.863950 0.539650 0.469460 1.852682
C1    C     C_3   0.003710 0.323232 0.895046 -0.326928
C2    C     C_3   0.003682 0.311291 0.802103 0.225409
C3    C     C_3   0.081289 0.750985 0.779506 0.219055
C4    C     C_3   0.059617 0.829819 0.862218 -0.257189
C5    C     C_3   0.748061 0.696735 0.284620 0.357589
C6    C     C_3   0.778224 0.702111 0.197594 -0.298769
C7    C     C_3   0.205356 0.735065 0.266805 0.108473
C8    C     C_3   0.168664 0.799065 0.226257 -0.193499
C9    C     C_2   0.741432 0.487203 0.722413 -0.148148
C10   C     C_3   0.818274 0.445179 0.767792 -0.000940
C11   C     C_2   0.786904 0.484716 0.858893 -0.047626
C12   C     C_3   0.484736 0.224046 0.704246 0.119867
C13   C     C_2   0.649681 0.513082 0.889913 -0.024968
C14   C     C_2   0.555111 0.533282 0.833667 -0.119752
C15   C     C_1   0.612914 0.527303 0.755645 0.042549
C16   C     C_R   0.398921 0.520928 0.144811 -0.118276
C17   C     C_R   0.338177 0.522564 0.223452 -0.046081
C18   C     C_R   0.565244 0.463605 0.239518 0.022827
C19   C     C_R   0.632141 0.468850 0.161828 -0.086513
C20   C     C_R   0.544770 0.494423 0.112122 0.028021
C21   C     C_2   0.603025 0.533970 0.980633 -0.125036
C22   C     C_2   0.589542 0.474839 0.020480 -0.026839
C23   C     C_3   0.404142 0.160971 0.749948 -0.296966
C24   C     C_R   0.412919 0.483385 0.265131 -0.133638
C25   C     C_2   0.388555 0.757239 0.512123 -0.269222
C26   C     C_R   0.853859 0.243336 0.501471 -0.112806
C27   C     C_2   0.203597 0.866172 0.551876 -0.065319
C28   C     C_2   0.233808 0.788457 0.552630 0.026557
C29   C     C_2   0.504260 0.809061 0.489705 0.003023
C30   C     C_3   0.475968 0.903523 0.509556 0.011824
C31   C     C_3   0.310650 0.910380 0.502100 0.038783
C32   C     C_2   0.577842 0.964418 0.471957 -0.084291
C33   C     C_2   0.660650 0.034202 0.519198 -0.127471
C34   C     C_3   0.721705 0.245998 0.258886 0.136052
C35   C     C_R   0.867960 0.070059 0.424754 0.188409
C36   C     C_R   0.745171 0.099598 0.483907 -0.053075
C37   C     C_R   0.973495 0.125531 0.397396 -0.125049
C38   C     C_R   0.971652 0.214899 0.438860 -0.001179
C39   C     C_R   0.723965 0.189506 0.512801 0.119039
C40   C     C_3   0.701203 0.162247 0.179708 -0.274507
C41   C     C_3   0.549272 0.771527 0.754595 0.116828
C42   C     C_3   0.502707 0.834665 0.842457 -0.158701
C43   C     C_3   0.160112 0.293363 0.239603 0.212442
C44   C     C_3   0.103470 0.260699 0.153017 -0.151843
H1    H     H_    0.503990 0.900772 0.841821 0.093956
H2    H     H_    0.385751 0.815321 0.862630 0.090175
H3    H     H_    0.133914 0.360482 0.266271 -0.044820
H4    H     H_    0.126731 0.192484 0.120545 0.184348
H5    H     H_    0.982571 0.267012 0.156666 -0.018895
H6    H     H_    0.884853 0.316133 0.794394 -0.005610
H7    H     H_    0.937871 0.378696 0.931428 0.110312
H8    H     H_    0.190927 0.725690 0.775727 0.066980
H9    H     H_    0.936500 0.839995 0.874930 0.085217
H10   H     H_    0.833333 0.656395 0.290608 0.076705
H11   H     H_    0.634266 0.662665 0.288823 -0.014188
H12   H     H_    0.702861 0.652162 0.157717 0.048169
H13   H     H_    0.894673 0.684763 0.171165 0.137153
H14   H     H_    0.044781 0.801886 0.234447 0.013594
H15   H     H_    0.328496 0.537910 0.108014 0.189946
H16   H     H_    0.865735 0.480386 0.898906 0.089245
H17   H     H_    0.862767 0.307829 0.538295 0.104743
H18   H     H_    0.299094 0.189192 0.783717 0.084231
H19   H     H_    0.836530 0.277139 0.259236 0.031427
O1    O     O_2   0.351410 0.559500 0.703710 -0.407206
O2    O     O_3   0.083369 0.247660 0.288802 -0.642808
O3    O     O_3   0.427856 0.197020 0.625225 -0.618375
O4    O     O_2   0.838300 0.440470 0.296230 -0.514803
O5    O     O_3   0.567380 0.446810 0.395500 -0.455228
O6    O     O_3   0.111820 0.604620 0.376600 -0.492843
O7    O     O_3   0.616639 0.302801 0.261247 -0.631017
O8    O     O_3   0.149150 0.609060 0.561440 -0.400546
O9    O     O_3   0.701290 0.652490 0.425560 -0.473353
O10   O     O_2   0.815938 0.809814 0.500511 -0.429608
O11   O     O_3   0.755843 0.777650 0.347859 -0.525377
O12   O     O_3   0.622300 0.553110 0.604480 -0.446572
O13   O     O_3   0.040530 0.390860 0.438530 -0.525090
O14   O     O_2   0.927940 0.718960 0.581060 -0.502676
O15   O     O_3   0.070520 0.780654 0.712969 -0.548752
O16   O     O_2   0.036253 0.505695 0.228624 -0.464567
O17   O     O_3   0.128939 0.654295 0.228161 -0.604642
O18   O     O_3   0.077860 0.395310 0.623380 -0.419324
O19   O     O_2   0.105316 0.519874 0.765545 -0.410199
O20   O     O_3   0.565414 0.692493 0.764707 -0.563929
O21   O     O_3   0.105763 0.374893 0.783482 -0.601045
O22   O     O_2   0.261760 0.281010 0.418880 -0.437310
O23   O     O_3   0.488390 0.347430 0.574410 -0.344361
O24   O     O_2   0.430471 0.191134 0.478613 -0.361290
P1    P     P_3+3 0.533580 0.585010 0.696460 1.172957
P2    P     P_3+3 0.097450 0.292710 0.397510 0.977572
P3    P     P_3+3 0.528791 0.237152 0.550621 1.181993
P4    P     P_3+3 0.656110 0.414920 0.303520 0.982057
P5    P     P_3+3 0.693035 0.762879 0.442412 1.072041
P6    P     P_3+3 0.024952 0.429802 0.732217 1.110603
P7    P     P_3+3 0.097529 0.720759 0.604374 1.111241
P8    P     P_3+3 0.158876 0.574472 0.267873 0.951632
C45   C     C_2   0.047476 0.225561 0.741806 0.863468
O25   O     O_2   0.041693 0.163245 0.763300 -0.618005
O26   O     O_R   0.091194 0.217371 0.659480 -0.682589
H20   H     H_    0.120358 0.157671 0.624374 0.343727
C46   C     C_2   0.747695 0.182759 0.101283 0.581062
H21   H     H_    0.827788 0.144906 0.053261 0.008150
O27   O     O_2   0.693000 0.240315 0.089549 -0.486730
C47   C     C_2   0.797777 0.091976 0.176988 0.794148
O28   O     O_2   0.935574 0.105072 0.175205 -0.606243
O29   O     O_R   0.730118 0.011022 0.173717 -0.678776
H22   H     H_    0.807017 0.968376 0.166803 0.348906
C48   C     C_2   0.536160 0.125240 0.178750 0.646804
H23   H     H_    0.476248 0.115239 0.233266 0.074461
O30   O     O_2   0.469700 0.103269 0.116826 -0.495730
C49   C     C_2   0.432381 0.769893 0.700885 0.646195
O31   O     O_2   0.366886 0.702541 0.664678 -0.576497
O32   O     O_R   0.396036 0.844946 0.691746 -0.741660
H24   H     H_    0.464227 0.897522 0.718454 0.319115
C50   C     C_2   0.695710 0.805569 0.720073 0.442066
H25   H     H_    0.714348 0.796411 0.655008 0.035999
O33   O     O_2   0.792585 0.846006 0.764711 -0.523379
C51   C     C_2   0.601245 0.837888 0.907580 1.021391
O34   O     O_2   0.611707 0.773756 0.924090 -0.566428
O35   O     O_R   0.676760 0.915648 0.950854 -0.704536
H26   H     H_    0.737079 0.910567 0.993960 0.313045
C52   C     C_2   0.322821 0.276529 0.228655 0.475338
H27   H     H_    0.363306 0.252185 0.271040 0.056917
O36   O     O_2   0.409213 0.288284 0.172406 -0.512077
C53   C     C_2   0.926578 0.249383 0.919476 0.543188
H28   H     H_    0.981928 0.222502 0.955545 0.022635
O37   O     O_2   0.799985 0.219613 0.900029 -0.508246
C54   C     C_2   0.173539 0.312234 0.100768 0.482393
H29   H     H_    0.148111 0.378042 0.116480 0.046704
O38   O     O_2   0.259624 0.279739 0.039837 -0.479581
C55   C     C_2   0.959167 0.683310 0.787727 0.885363
O39   O     O_2   0.956764 0.654401 0.842974 -0.538280
O40   O     O_R   0.840267 0.657996 0.740113 -0.761085
H30   H     H_    0.849614 0.678812 0.692867 0.293049
C56   C     C_2   0.098616 0.816591 0.938465 0.482980
H31   H     H_    0.066997 0.863043 0.998546 0.032076
O41   O     O_2   0.164255 0.755187 0.934492 -0.492768
C57   C     C_2   0.135954 0.913992 0.857824 0.934303
O42   O     O_2   0.090081 0.946610 0.813860 -0.420966
O43   O     O_R   0.248814 0.958581 0.908840 -0.770407
H32   H     H_    0.287196 0.014916 0.900980 0.349162
C58   C     C_2   0.160594 0.344115 0.921993 0.552853
H33   H     H_    0.240582 0.295425 0.901440 0.102375
O44   O     O_2   0.197931 0.415362 0.968585 -0.538839
C59   C     C_2   0.351871 0.074436 0.692088 0.620688
H34   H     H_    0.386574 0.055035 0.626907 0.005394
O45   O     O_2   0.269395 0.024623 0.718591 -0.501564
C60   C     C_2   0.755941 0.787746 0.192744 0.653671
H35   H     H_    0.830303 0.843325 0.221376 0.069891
O46   O     O_2   0.655169 0.796001 0.155899 -0.501086
C61   C     C_2   0.375165 0.730709 0.255185 0.335178
H36   H     H_    0.429360 0.685380 0.201528 0.093086
O47   O     O_2   0.454244 0.781175 0.305194 -0.617389
C62   C     C_2   0.151103 0.765655 0.357156 0.680409
H37   H     H_    0.214153 0.753357 0.399084 -0.164289
O48   O     O_2   0.033291 0.800179 0.383251 -0.514735
C63   C     C_2   0.228593 0.890118 0.271082 0.881827
O49   O     O_2   0.328552 0.927210 0.238191 -0.525318
O50   O     O_R   0.163644 0.932440 0.350880 -0.712371
H38   H     H_    0.210937 0.991916 0.377825 0.341604
C64   C     C_2   0.438989 0.313255 0.752222 0.840739
O51   O     O_2   0.463709 0.347467 0.823932 -0.696520
O52   O     O_R   0.371806 0.357375 0.713617 -0.665866
H39   H     H_    0.359986 0.419117 0.747995 0.288849
C65   C     C_2   0.213840 0.768343 0.133637 0.930243
O53   O     O_2   0.143439 0.705982 0.088964 -0.521086
O54   O     O_R   0.335493 0.809647 0.098883 -0.638772
H40   H     H_    0.355552 0.781561 0.037133 0.382093
C66   C     C_2   0.612700 0.383396 0.972795 0.651802
H41   H     H_    0.665700 0.362885 0.910304 0.010504
O55   O     O_2   0.572048 0.328761 0.004003 -0.447237
C67   C     C_2   0.400987 0.561149 0.869367 0.576135
H42   H     H_    0.328082 0.525643 0.903038 0.094501
O56   O     O_2   0.358822 0.626911 0.867376 -0.468174
C68   C     C_2   0.579372 0.624678 0.023580 0.533124
H43   H     H_    0.670659 0.672299 0.019242 0.102095
O57   O     O_2   0.454199 0.647034 0.055498 -0.566070
C69   C     C_2   0.788039 0.442690 0.129912 0.557419
H44   H     H_    0.831812 0.392753 0.144496 0.043466
O58   O     O_2   0.870409 0.477519 0.087191 -0.583315
C70   C     C_2   0.812487 0.477443 0.639558 0.822477
O59   O     O_2   0.928916 0.520013 0.628255 -0.564200
O60   O     O_R   0.741349 0.421991 0.573915 -0.744330
H45   H     H_    0.801791 0.419806 0.521007 0.319000
C71   C     C_2   0.337614 0.457014 0.334304 0.187409
H46   H     H_    0.232347 0.479668 0.369725 -0.030288
O61   O     O_2   0.220082 0.481679 0.374504 0.007460
C72   C     C_2   0.063145 0.908996 0.588208 0.986842
O62   O     O_2   0.017773 0.953478 0.555084 -0.565500
O63   O     O_R   0.986422 0.903377 0.661053 -0.633243
H47   H     H_    0.895670 0.939243 0.680281 0.351526
C73   C     C_2   0.656393 0.228151 0.701570 0.297284
H48   H     H_    0.710775 0.192100 0.728358 0.107322
O64   O     O_2   0.737705 0.279020 0.676265 -0.680711
C74   C     C_2   0.076251 0.086255 0.322839 0.963360
O65   O     O_2   0.207757 0.115138 0.315364 -0.591907
O66   O     O_R   0.022549 0.013290 0.261279 -0.735322
H49   H     H_    0.097955 0.995147 0.210369 0.334022
C75   C     C_2   0.405956 0.665189 0.477820 0.872279
O67   O     O_2   0.441210 0.626220 0.518768 -0.502197
O68   O     O_R   0.415025 0.626258 0.393860 -0.790350
H50   H     H_    0.402482 0.666174 0.364283 0.217963
C76   C     C_2   0.556073 0.964241 0.390004 0.953797
O69   O     O_2   0.630771 0.920112 0.329524 -0.516642
O70   O     O_R   0.473309 0.027030 0.384555 -0.727296
H51   H     H_    0.486781 0.030965 0.327590 0.388672
C77   C     C_2   0.710665 0.033339 0.596518 0.881822
O71   O     O_2   0.644098 0.987388 0.633343 -0.621077
O72   O     O_R   0.842436 0.081891 0.624624 -0.726708
H52   H     H_    0.866953 0.072711 0.675535 0.363384
C78   C     C_2   0.485191 0.147816 0.815181 0.889428
O73   O     O_2   0.587434 0.099409 0.795724 -0.554037
O74   O     O_R   0.430771 0.183493 0.897861 -0.660904
H53   H     H_    0.485227 0.164599 0.935216 0.396868
C79   C     C_2   0.688744 0.228098 0.337898 0.769567
O75   O     O_2   0.661929 0.155645 0.339185 -0.628097
O76   O     O_R   0.686013 0.296100 0.411379 -0.745146
H54   H     H_    0.748285 0.347361 0.403838 0.258761

loop_
_geom_bond_atom_site_label_1
_geom_bond_atom_site_label_2
_ccdc_geom_bond_type
C14   C67   S    
Ba1   O22   S    
C65   O54   S    
C18   P4    S    
C7    C61   S    
C53   H28   S    
C2    C45   S    
C62   O48   D    
C24   C71   S    
O9    P5    S    
C34   C40   S    
C4    H9    S    
C44   C54   S    
C49   O32   S    
O60   H45   S    
C17   P8    S    
C1    C53   S    
C52   H27   S    
O1    P1    D    
C43   C44   S    
C43   C52   S    
C10   C11   S    
C47   O29   S    
Ba1   P1    S    
C18   C24   A    
C2    H6    S    
O52   H39   S    
C40   C48   S    
C79   O76   S    
Ba1   Ba2   S    
O22   P2    D    
C48   O30   D    
C6    H13   S    
C3    C4    S    
C52   O36   D    
C2    O21   S    
C66   H41   S    
C26   C38   A    
C58   H33   S    
C27   C31   S    
C26   C39   A    
Ba1   O12   S    
C50   H25   S    
C32   C33   D    
C4    C57   S    
C72   O63   S    
C17   C24   A    
C70   O59   D    
C4    C56   S    
Ba2   O14   S    
C6    H12   S    
C3    C55   S    
C11   H16   S    
O23   P3    S    
C32   C76   S    
C77   O71   D    
C73   O64   D    
C43   O2    S    
C28   P7    S    
C21   C22   D    
C10   P6    S    
C68   H43   S    
O66   H49   S    
O15   P7    S    
Ba2   O4    S    
C22   C66   S    
C7    C8    S    
C8    C63   S    
C64   O52   S    
Ba2   O9    S    
C42   H1    S    
C8    C65   S    
C7    O17   S    
O11   P5    S    
Ba1   O23   S    
C68   O57   D    
Ba1   P2    S    
C16   C20   A    
C19   C20   A    
C1    H7    S    
C25   C28   S    
C63   O50   S    
Ba1   O13   S    
C46   H21   S    
C9    C70   S    
C5    H10   S    
C40   C46   S    
C49   O31   D    
O32   H24   S    
C59   O45   D    
C51   O35   S    
C57   O42   D    
O12   P1    S    
O68   H50   S    
C25   C75   S    
C25   C29   D    
O63   H47   S    
C41   O20   S    
C3    H8    S    
C5    C6    S    
C33   C36   S    
C1    C58   S    
C79   O75   D    
C36   C39   A    
C56   O41   D    
C51   O34   D    
C37   C38   A    
O70   H51   S    
C16   C17   A    
C21   C68   S    
C42   C51   S    
C67   H42   S    
C44   H5    S    
O24   P3    D    
C23   H18   S    
C30   C32   S    
C63   O49   D    
C12   C64   S    
C23   C78   S    
C8    H14   S    
C41   C42   S    
C35   C36   A    
Ba2   O13   S    
C41   C50   S    
O6    P8    S    
C29   C30   S    
C43   H3    S    
C9    C10   S    
O18   P6    S    
O5    P4    S    
O2    P2    S    
Ba1   O1    S    
Ba2   O6    S    
C78   O73   D    
C3    O15   S    
C46   O27   D    
C42   H2    S    
Ba2   O8    S    
O35   H26   S    
C23   C59   S    
C67   O56   D    
C55   O40   S    
O7    P4    S    
C75   O68   S    
O54   H40   S    
C12   C73   S    
C61   O47   D    
C73   H48   S    
C45   O26   S    
C11   C13   D    
C65   O53   D    
O17   P8    S    
C20   C22   S    
Ba1   O18   S    
C41   C49   S    
O29   H22   S    
C71   O61   D    
C1    C2    S    
C59   H34   S    
C47   O28   D    
C38   P2    S    
C5    H11   S    
C58   O44   D    
C9    C15   D    
C53   O37   D    
C18   C19   A    
O74   H53   S    
Ba2   P4    S    
C15   P1    S    
C76   O70   S    
C74   O65   D    
O20   P1    S    
C16   H15   S    
C5    O11   S    
O13   P2    S    
C64   O51   D    
C29   P5    S    
C37   C74   S    
C44   H4    S    
O40   H30   S    
O4    P4    D    
Ba1   O5    S    
Ba1   O8    S    
O50   H38   S    
C34   H19   S    
C60   O46   D    
C6    C60   S    
C54   H29   S    
O14   P7    D    
C35   C37   A    
Ba2   O12   S    
Ba2   O5    S    
C60   H35   S    
C30   C31   S    
C57   O43   S    
O76   H54   S    
C14   C15   D    
O16   P8    D    
C75   O67   D    
C13   C21   S    
O26   H20   S    
O3    P3    S    
C50   O33   D    
C55   O39   D    
C27   C72   S    
O72   H52   S    
C12   C23   S    
C72   O62   D    
C40   C47   S    
C70   O60   S    
C74   O66   S    
O21   P6    S    
C78   O74   S    
C27   C28   D    
C69   H44   S    
C26   H17   S    
C34   O7    S    
C33   C77   S    
C19   C69   S    
C39   P3    S    
C76   O69   D    
C7    C62   S    
C77   O72   S    
C45   O25   D    
C48   H23   S    
C62   H37   S    
C12   O3    S    
C56   H31   S    
C61   H36   S    
C66   O55   D    
O8    P7    S    
C69   O58   D    
C71   H46   S    
O43   H32   S    
O19   P6    D    
C34   C79   S    
C13   C14   S    
O10   P5    D    
C54   O38   D    
