data_mof_unit_43872.cif
_audit_creation_date              2013-03-05T15:43:18-0500
_audit_creation_method            fapswitch 2.2
_symmetry_space_group_name_H-M    P1
_symmetry_Int_Tables_number       1
_space_group_crystal_system       triclinic
_cell_length_a                    10.658471
_cell_length_b                    10.628412
_cell_length_c                    10.011164
_cell_angle_alpha                 88.172711
_cell_angle_beta                  92.331489
_cell_angle_gamma                 89.093468
_cell_volume                      1132.40945814

loop_
_atom_site_label
_atom_site_type_symbol
_atom_site_description
_atom_site_fract_x
_atom_site_fract_y
_atom_site_fract_z
_atom_type_partial_charge
O1    O     O_R   0.499980 0.319060 0.613040 -0.581761
O2    O     O_R   0.500020 0.319100 0.386900 -0.574374
C1    C     C_R   0.482038 0.263427 0.501667 0.905704
O3    O     O_R   0.316750 0.499980 0.613090 -0.614529
O4    O     O_R   0.316790 0.500020 0.386950 -0.599178
C2    C     C_R   0.260537 0.501519 0.496887 0.867775
Zn1   Zn    Zn3+2 0.499970 0.499970 0.650990 1.000916
Zn2   Zn    Zn3+2 0.500030 0.500030 0.349010 0.978669
O5    O     O_R   0.499980 0.680900 0.613100 -0.577104
O6    O     O_R   0.500020 0.680940 0.386960 -0.624027
O7    O     O_R   0.683210 0.499980 0.613050 -0.590614
O8    O     O_R   0.683250 0.500020 0.386910 -0.605719
C3    C     C_R   0.499528 0.738096 0.497584 0.914922
C4    C     C_R   0.739858 0.507731 0.503477 0.858453
H1    H     H_    0.116267 0.314417 0.441717 0.181772
C5    C     C_R   0.128493 0.738301 0.515561 -0.161330
H2    H     H_    0.223790 0.745613 0.483433 0.129691
C6    C     C_R   0.065991 0.847417 0.550252 -0.112787
H3    H     H_    0.111737 0.937237 0.543755 0.205161
C7    C     C_R   0.948443 0.839348 0.604195 -0.199991
H4    H     H_    0.910304 0.921695 0.649855 0.174105
C8    C     C_R   0.886927 0.723698 0.611972 -0.079945
C9    C     C_R   0.939984 0.616976 0.550076 0.022490
C10   C     C_R   0.066665 0.621994 0.518030 0.081293
C11   C     C_R   0.128434 0.509721 0.488710 -0.090985
C12   C     C_R   0.065117 0.399717 0.464571 -0.230975
C13   C     C_R   0.936655 0.398436 0.471923 -0.013025
C14   C     C_R   0.873799 0.506690 0.514552 -0.120352
C15   C     C_2   0.414829 0.932101 0.403291 -0.186184
C16   C     C_2   0.494778 0.871585 0.490419 -0.294096
H5    H     H_    0.358525 0.880022 0.331512 0.169363
H6    H     H_    0.554859 0.919256 0.560825 0.171355
C17   C     C_2   0.406246 0.069988 0.398030 -0.070099
C18   C     C_2   0.434420 0.135125 0.509751 -0.315752
C19   C     C_2   0.429006 0.572078 0.919455 -0.094063
N1    N     N_2   0.501340 0.501330 0.852150 -0.189019
H7    H     H_    0.365894 0.638214 0.864770 0.175118
H8    H     H_    0.556022 0.433484 0.902379 0.179794
C20   C     C_2   0.423894 0.566366 0.069479 -0.115599
N2    N     N_2   0.501380 0.501360 0.147810 -0.183028
H9    H     H_    0.351448 0.621977 0.114215 0.163612
H10   H     H_    0.574374 0.453945 0.107041 0.174616
C21   C     C_2   0.410633 0.080686 0.646721 0.942112
O9    O     O_2   0.479762 0.105022 0.742692 -0.586897
O10   O     O_R   0.309873 0.000288 0.664753 -0.820924
H11   H     H_    0.304380 0.968425 0.760842 0.353882
C22   C     C_2   0.792731 0.712227 0.715795 0.938080
O11   O     O_2   0.715007 0.796407 0.728172 -0.652700
O12   O     O_R   0.801864 0.611465 0.809204 -0.775283
H12   H     H_    0.736786 0.617147 0.879930 0.339879
C23   C     C_R   0.871908 0.279618 0.444055 0.113948
C24   C     C_R   0.811248 0.215255 0.546622 -0.125965
C25   C     C_R   0.756309 0.099550 0.522889 -0.189373
C26   C     C_R   0.760830 0.047409 0.396588 -0.101368
C27   C     C_R   0.820561 0.111427 0.293683 -0.102924
C28   C     C_R   0.876751 0.226995 0.317366 -0.132242
H13   H     H_    0.808627 0.253532 0.645512 0.160605
H14   H     H_    0.712380 0.049966 0.603819 0.179988
H15   H     H_    0.719462 0.956932 0.378653 0.150556
H16   H     H_    0.824406 0.070936 0.196031 0.151093
H17   H     H_    0.924226 0.275269 0.237494 0.145604
C29   C     C_2   0.370608 0.130989 0.265850 0.954758
O13   O     O_2   0.404335 0.083678 0.163167 -0.611420
O14   O     O_R   0.293640 0.239003 0.258546 -0.806299
H18   H     H_    0.275257 0.271047 0.163178 0.344616

loop_
_geom_bond_atom_site_label_1
_geom_bond_atom_site_label_2
_geom_bond_distance
_ccdc_geom_bond_type
O4    Zn2   2.004760 S    
C19   C20   1.504445 S    
C21   O9    1.223594 D    
Zn1   O5    1.948153 S    
C15   C16   1.336809 D    
C28   H17   1.083351 S    
C25   H14   1.079279 S    
C16   H6    1.076996 S    
Zn1   N1    2.013818 S    
C5    C10   1.410005 A    
N2    H10   1.025855 S    
C22   O11   1.222336 D    
Zn2   O8    1.974151 S    
C27   H16   1.082648 S    
O14   H18   1.013826 S    
C27   C28   1.397829 A    
N1    H8    1.025801 S    
O2    C1    1.298112 A    
O8    C4    1.297288 A    
C22   O12   1.398668 S    
C25   C26   1.398919 A    
C7    H4    1.081471 S    
Zn1   O7    2.004761 S    
C21   O10   1.396813 S    
C12   C13   1.374430 A    
C29   O13   1.223156 D    
C24   C25   1.393471 A    
O3    Zn1   1.974150 S    
C5    C6    1.389041 A    
C19   H7    1.084829 S    
C13   C23   1.477587 S    
C8    C22   1.477798 S    
C6    C7    1.387145 A    
C26   H15   1.081368 S    
C8    C9    1.429468 A    
O4    C2    1.274976 A    
O7    C4    1.274497 A    
O10   H11   1.013865 S    
O3    C2    1.286211 A    
C9    C14   1.424932 A    
C24   H13   1.083494 S    
C9    C10   1.401890 A    
C23   C24   1.401264 A    
C2    C11   1.408218 S    
C15   C17   1.466056 S    
C3    C16   1.418295 S    
C20   N2    1.291935 D    
C17   C18   1.359788 D    
C10   C11   1.398834 A    
C20   H9    1.084775 S    
C15   H5    1.087975 S    
C6    H3    1.080132 S    
C13   C14   1.408887 A    
O12   H12   1.013640 S    
O5    C3    1.289017 A    
C26   C27   1.397123 A    
C17   C29   1.487377 S    
H1    C12   1.085933 S    
C29   O14   1.398666 S    
Zn2   N2    2.014482 S    
C1    C18   1.463516 S    
C4    C14   1.427235 S    
C11   C12   1.382209 A    
O1    Zn1   1.971810 S    
Zn2   O6    1.971810 S    
O2    Zn2   1.948153 S    
C18   C21   1.503883 S    
C19   N1    1.292296 D    
C7    C8    1.403712 A    
C5    H2    1.081057 S    
O1    C1    1.287495 A    
O6    C3    1.280171 A    
C23   C28   1.404890 A    
