data_mof_unit_23386.cif
_audit_creation_date              2013-03-05T15:47:08-0500
_audit_creation_method            fapswitch 2.2
_symmetry_space_group_name_H-M    P1
_symmetry_Int_Tables_number       1
_space_group_crystal_system       triclinic
_cell_length_a                    10.202529
_cell_length_b                    10.585251
_cell_length_c                    13.693199
_cell_angle_alpha                 92.687151
_cell_angle_beta                  100.671441
_cell_angle_gamma                 94.916913
_cell_volume                      1444.91449392

loop_
_atom_site_label
_atom_site_type_symbol
_atom_site_description
_atom_site_fract_x
_atom_site_fract_y
_atom_site_fract_z
_atom_type_partial_charge
O1    O     O_R   0.935190 0.693030 0.507870 -0.572993
O2    O     O_R   0.064810 0.306970 0.492130 -0.575868
O3    O     O_R   0.142080 0.658430 0.482770 -0.607090
O4    O     O_R   0.857920 0.341570 0.517230 -0.598496
C1    C     C_R   0.054072 0.734369 0.499179 0.964457
C2    C     C_R   0.950756 0.266703 0.511345 0.964385
O5    O     O_R   0.969700 0.527180 0.651960 -0.595469
O6    O     O_R   0.030300 0.472820 0.348040 -0.619635
O7    O     O_R   0.176600 0.492580 0.626860 -0.595214
O8    O     O_R   0.823400 0.507420 0.373140 -0.620977
C3    C     C_R   0.094731 0.515361 0.685783 0.972839
C4    C     C_R   0.906476 0.488610 0.314261 0.856201
Zn1   Zn    Zn3+2 0.861850 0.523100 0.516760 0.989990
Zn2   Zn    Zn3+2 0.138150 0.476900 0.483240 0.985093
C5    C     C_R   0.151608 0.543263 0.791243 -0.047261
C6    C     C_R   0.860520 0.496236 0.207590 -0.057662
C7    C     C_R   0.147572 0.642718 0.953175 -0.194175
C8    C     C_R   0.887982 0.468245 0.036672 -0.201855
C9    C     C_R   0.081116 0.599965 0.857392 -0.135698
C10   C     C_R   0.937766 0.461519 0.137923 -0.192627
C11   C     C_R   0.286520 0.527078 0.822028 -0.217205
C12   C     C_R   0.737179 0.542797 0.176083 -0.260252
C13   C     C_R   0.357175 0.577245 0.914364 0.086220
C14   C     C_R   0.686393 0.552973 0.075378 0.096167
C15   C     C_R   0.285193 0.631324 0.982252 0.169266
C16   C     C_R   0.761740 0.511269 0.004814 0.164137
C17   C     C_R   0.496439 0.568597 0.942139 0.071895
C18   C     C_R   0.557155 0.592401 0.043317 0.069751
C19   C     C_R   0.485114 0.651240 0.109090 -0.222877
C20   C     C_R   0.576549 0.535689 0.872390 -0.187377
C21   C     C_R   0.351506 0.672019 0.078193 -0.217348
C22   C     C_R   0.708052 0.509123 0.903594 -0.209785
H1    H     H_    0.298915 0.716259 0.130545 0.151317
H2    H     H_    0.765420 0.480843 0.848454 0.154509
H3    H     H_    0.678670 0.565122 0.231349 0.161092
H4    H     H_    0.335403 0.473873 0.772553 0.186294
H5    H     H_    0.034629 0.426600 0.161449 0.164266
H6    H     H_    0.976210 0.613663 0.834585 0.181398
H7    H     H_    0.091944 0.685610 0.004048 0.154180
H8    H     H_    0.946253 0.436372 0.983315 0.157867
H9    H     H_    0.530579 0.684736 0.184379 0.150209
H10   H     H_    0.540347 0.531482 0.792949 0.149011
C23   C     C_2   0.087977 0.870992 0.515414 -0.464139
C24   C     C_2   0.934294 0.133909 0.533181 -0.455638
C25   C     C_2   0.029387 0.939194 0.578384 0.275303
C26   C     C_2   0.041246 0.076478 0.576996 0.269986
H11   H     H_    0.837869 0.079829 0.506097 0.159190
H12   H     H_    0.152086 0.917821 0.470136 0.156647
H13   H     H_    0.578511 0.413216 0.436905 0.167760
H14   H     H_    0.421509 0.586141 0.563723 0.166458
N1    N     N_2   0.322180 0.446120 0.460900 -0.180133
N2    N     N_2   0.677820 0.553880 0.539100 -0.184761
C27   C     C_2   0.430769 0.511598 0.508946 -0.108134
C28   C     C_2   0.569248 0.488031 0.491448 -0.132157
H15   H     H_    0.664812 0.623897 0.590370 0.190703
H16   H     H_    0.335250 0.376256 0.409541 0.168747
N3    N     N_R   0.164762 0.145987 0.627123 0.236453
O9    O     O_R   0.161614 0.239108 0.691779 -0.401170
O10   O     O_R   0.278335 0.099483 0.625077 -0.379119
N4    N     N_R   0.959491 0.881958 0.649867 0.230964
O11   O     O_R   0.858433 0.933765 0.675018 -0.383672
O12   O     O_R   0.014191 0.796792 0.704976 -0.403969

loop_
_geom_bond_atom_site_label_1
_geom_bond_atom_site_label_2
_geom_bond_distance
_ccdc_geom_bond_type
C15   C21   1.391765 A    
C20   C22   1.387569 A    
O7    Zn2   1.929129 S    
N2    H15   1.030719 S    
C25   N4    1.440061 S    
C16   C22   1.391170 A    
C12   H3    1.076839 S    
C9    H6    1.082208 S    
C13   C17   1.413242 A    
Zn1   N2    2.008294 S    
O7    C3    1.293328 A    
C23   H12   1.086903 S    
Zn2   N1    2.008293 S    
C8    C16   1.402753 A    
C24   H11   1.086966 S    
C6    C10   1.400510 A    
O6    C4    1.290308 A    
C7    C15   1.403922 A    
O3    C1    1.297837 A    
C11   C13   1.390740 A    
C1    C23   1.454699 S    
C19   C21   1.389987 A    
C11   H4    1.078138 S    
C2    C24   1.452942 S    
C25   C26   1.449147 S    
C17   C20   1.417129 A    
O5    C3    1.292822 A    
C10   H5    1.083013 S    
C23   C25   1.352226 D    
N3    O9    1.300232 A    
O2    C2    1.282128 A    
O3    Zn2   1.918857 S    
O8    C4    1.294232 A    
O1    C1    1.282234 A    
N4    O12   1.299102 A    
C18   C19   1.417863 A    
C7    C9    1.395406 A    
C14   C16   1.418707 A    
C5    C9    1.400784 A    
C8    C10   1.392811 A    
C13   C15   1.416402 A    
C26   N3    1.440108 S    
O2    Zn2   1.906243 S    
C12   C14   1.393037 A    
C5    C11   1.390669 A    
N3    O10   1.301647 A    
H14   C27   1.085217 S    
O1    Zn1   1.906242 S    
C21   H1    1.084036 S    
H13   C28   1.085085 S    
C14   C18   1.415144 A    
O5    Zn1   1.967212 S    
O4    C2    1.297146 A    
N1    H16   1.030598 S    
C7    H7    1.083732 S    
C17   C18   1.410443 A    
C8    H8    1.083162 S    
C20   H10   1.079614 S    
C6    C12   1.392040 A    
O6    Zn2   1.967211 S    
C19   H9    1.078971 S    
C27   C28   1.515236 S    
C3    C5    1.459329 S    
C24   C26   1.351164 D    
C4    C6    1.457318 S    
O4    Zn1   1.918857 S    
N2    C28   1.302281 D    
N4    O11   1.301199 A    
N1    C27   1.302418 D    
O8    Zn1   1.929128 S    
C22   H2    1.083871 S    
