data_mof_unit_43376.cif
_audit_creation_date              2012-12-10T19:44:27-0500
_audit_creation_method            fapswitch 2.2
_symmetry_space_group_name_H-M    P1
_symmetry_Int_Tables_number       1
_space_group_crystal_system       triclinic
_cell_length_a                    10.844452
_cell_length_b                    12.420179
_cell_length_c                    13.151471
_cell_angle_alpha                 117.014779
_cell_angle_beta                  75.597573
_cell_angle_gamma                 101.061565
_cell_volume                      1522.10053337

loop_
_atom_site_label
_atom_site_type_symbol
_atom_type_description
_atom_site_fract_x
_atom_site_fract_y
_atom_site_fract_z
_atom_type_partial_charge
C1    C     C_R   0.514394 0.855285 0.286127 0.853794
C2    C     C_R   0.652846 0.731396 0.724284 -0.325047
C3    C     C_R   0.038675 0.942879 0.556382 -0.218327
C4    C     C_R   0.130207 0.998412 0.495244 -0.063384
C5    C     C_R   0.092236 0.054005 0.436400 0.080144
C6    C     C_R   0.962697 0.055505 0.444201 -0.256231
C7    C     C_R   0.870446 0.000446 0.505516 -0.065114
C8    C     C_R   0.909027 0.941118 0.561285 0.082364
C9    C     C_R   0.178745 0.228362 0.384158 -0.256095
C10   C     C_R   0.262990 0.278273 0.313872 0.575379
C11   C     C_R   0.352820 0.208053 0.222013 -0.278002
C12   C     C_R   0.736862 0.001037 0.502862 0.843240
C13   C     C_R   0.357737 0.087530 0.199681 0.586465
C14   C     C_R   0.271848 0.036433 0.268098 -0.187579
C15   C     C_R   0.183083 0.107162 0.362357 -0.045744
C16   C     C_R   0.277675 0.302532 0.008655 -0.115315
C17   C     C_R   0.443238 0.228693 0.837474 -0.104517
C18   C     C_R   0.631899 0.803957 0.086395 -0.131812
C19   C     C_R   0.669900 0.719015 0.973776 -0.153394
C20   C     C_R   0.613138 0.600441 0.936460 -0.131083
C21   C     C_R   0.515347 0.564137 0.011493 0.032225
C22   C     C_R   0.464969 0.655693 0.120876 -0.075923
C23   C     C_R   0.479032 0.145060 0.714247 0.830542
C24   C     C_R   0.459943 0.441769 0.978304 0.061756
C25   C     C_R   0.342116 0.418642 0.044897 -0.056561
C26   C     C_R   0.286881 0.512204 0.145805 -0.195865
C27   C     C_R   0.346995 0.628945 0.184121 0.587472
C28   C     C_R   0.516775 0.341337 0.881833 0.086262
C29   C     C_R   0.323727 0.209208 0.903373 0.106852
C30   C     C_R   0.531949 0.772833 0.161809 -0.083490
C31   C     C_R   0.668303 0.321462 0.297275 -0.237116
C32   C     C_R   0.331933 0.765730 0.653750 0.050680
C33   C     C_R   0.293731 0.672731 0.689720 0.115846
C34   C     C_R   0.263372 0.999029 0.497709 0.819679
C35   C     C_R   0.351809 0.563763 0.627282 -0.202561
C36   C     C_R   0.447681 0.546449 0.528335 -0.007415
C37   C     C_R   0.485854 0.645522 0.495067 0.295132
C38   C     C_R   0.510323 0.435633 0.463346 -0.010955
C39   C     C_R   0.594828 0.419573 0.358079 0.058698
C40   C     C_R   0.620331 0.508637 0.319972 -0.275628
C41   C     C_R   0.583321 0.623846 0.392346 0.182893
C42   C     C_R   0.497080 0.340252 0.498073 -0.037508
C43   C     C_R   0.663630 0.240513 0.342831 0.380869
C44   C     C_R   0.639718 0.855757 0.767830 0.096015
C45   C     C_R   0.725288 0.925757 0.717132 0.671055
C46   C     C_R   0.820347 0.870884 0.620370 -0.079060
C47   C     C_R   0.835548 0.747603 0.581256 -0.255941
C48   C     C_R   0.753092 0.677741 0.633138 0.205850
Cu1   Cu    Cu3+1 0.529370 0.098270 0.475420 0.938633
Cu2   Cu    Cu3+1 0.470630 0.901730 0.524580 0.989194
H1    H     H_    0.586653 0.677057 0.762786 0.154997
H2    H     H_    0.419013 0.247229 0.168535 0.191401
H3    H     H_    0.275669 0.942464 0.248931 0.177547
H4    H     H_    0.195246 0.495209 0.195115 0.197716
H5    H     H_    0.186883 0.285715 0.059235 0.170305
H6    H     H_    0.683406 0.893169 0.115371 0.165114
H7    H     H_    0.642899 0.540664 0.846549 0.159179
H8    H     H_    0.746076 0.744511 0.915699 0.172051
H9    H     H_    0.689601 0.495536 0.240649 0.151738
H10   H     H_    0.739138 0.314243 0.220364 0.166973
H11   H     H_    0.428434 0.339883 0.572884 0.135486
H12   H     H_    0.284688 0.848211 0.699959 0.125414
H13   H     H_    0.318968 0.492929 0.656255 0.128896
H14   H     H_    0.911381 0.705254 0.509318 0.184994
H15   H     H_    0.068110 0.900549 0.601719 0.167861
H16   H     H_    0.934438 0.095091 0.396645 0.154038
H17   H     H_    0.110559 0.284187 0.455924 0.178211
N1    N     N_R   0.573890 0.246290 0.438210 -0.205471
N2    N     N_R   0.426890 0.754320 0.561170 -0.216770
O1    O     O_R   0.536940 0.972510 0.318130 -0.592461
O2    O     O_R   0.487330 0.806530 0.359650 -0.511083
O3    O     O_R   0.705160 0.082990 0.479250 -0.608985
O4    O     O_R   0.655550 0.917010 0.520760 -0.558821
O5    O     O_R   0.512670 0.193470 0.640350 -0.599053
O6    O     O_R   0.463060 0.027490 0.681870 -0.590247
O7    O     O_R   0.344450 0.082990 0.479240 -0.587137
O8    O     O_R   0.294840 0.917010 0.520750 -0.555655
F1    F     F_    0.446614 0.020349 0.112291 -0.662489
N3    N     N_3   0.244674 0.097131 0.864461 -0.584484
H18   H     H_    0.227431 0.076194 0.782445 0.212399
H19   H     H_    0.293180 0.029569 0.859457 0.226109
N4    N     N_3   0.652139 0.348893 0.838568 -0.596654
H20   H     H_    0.691453 0.282335 0.845211 0.282852
H21   H     H_    0.669747 0.332515 0.751287 0.235425
N5    N     N_3   0.541532 0.912574 0.864887 -0.462866
H22   H     H_    0.486291 0.848669 0.892626 0.240975
H23   H     H_    0.480407 0.943487 0.835891 0.230494
F2    F     F_    0.282145 0.717277 0.277109 -0.676010
N6    N     N_3   0.764810 0.163361 0.296198 -0.595100
H24   H     H_    0.821987 0.195008 0.358847 0.215398
H25   H     H_    0.729781 0.074068 0.277800 0.252385
N7    N     N_3   0.194300 0.690257 0.789547 -0.578883
H26   H     H_    0.229291 0.759122 0.861716 0.211585
H27   H     H_    0.174037 0.612262 0.804377 0.226205
N8    N     N_3   0.665578 0.715701 0.366675 -0.521375
H28   H     H_    0.675013 0.694338 0.278518 0.198111
H29   H     H_    0.756874 0.714635 0.379115 0.202377
F3    F     F_    0.715080 0.046610 0.761319 -0.696292
N9    N     N_3   0.775038 0.553679 0.594630 -0.562428
H30   H     H_    0.701585 0.511741 0.636555 0.206863
H31   H     H_    0.771652 0.508033 0.506199 0.223679
F4    F     F_    0.258426 0.395252 0.335641 -0.665881

loop_
_geom_bond_atom_site_label_1
_geom_bond_atom_site_label_2
_ccdc_geom_bond_type
Cu1   N1    S    
C37   N2    A    
N8    H28   S    
C17   C29   A    
C35   C36   A    
C7    C8    A    
C41   N8    S    
C45   C46   A    
C26   C27   A    
C17   C23   S    
C31   C43   A    
C37   C41   A    
C36   C37   A    
Cu2   N2    S    
C38   C42   A    
C45   F3    S    
C34   O8    A    
C5    C6    A    
C18   C19   A    
C1    C30   S    
C11   H2    S    
C46   C47   A    
C19   C20   A    
C2    C44   A    
C43   N1    A    
Cu1   O3    S    
C18   C30   A    
N6    H25   S    
C9    C10   A    
C18   H6    S    
C12   O3    A    
C40   H9    S    
C21   C22   A    
C42   N1    A    
C3    H15   S    
C26   H4    S    
C12   O4    A    
N5    H23   S    
C19   H8    S    
C7    C12   S    
C4    C34   S    
C28   N4    S    
C47   C48   A    
C10   F4    S    
C24   C25   A    
C3    C8    A    
C10   C11   A    
Cu2   O4    S    
C39   C40   A    
N3    H19   S    
C2    C48   A    
C16   C29   A    
N5    H22   S    
C31   H10   S    
Cu2   O2    S    
C9    H17   S    
N9    H30   S    
C29   N3    S    
N7    H27   S    
Cu1   O7    S    
C43   N6    S    
C42   H11   S    
C6    C7    A    
C40   C41   A    
N9    H31   S    
N4    H20   S    
N4    H21   S    
Cu1   O1    S    
C33   N7    S    
C23   O5    A    
C3    C4    A    
Cu2   O8    S    
C47   H14   S    
C44   C45   A    
C16   C25   A    
C20   H7    S    
C48   N9    S    
C13   F1    S    
C22   C30   A    
Cu1   O5    S    
C17   C28   A    
C24   C28   A    
C23   O6    A    
C4    C5    A    
N8    H29   S    
C32   N2    A    
C1    O1    A    
C22   C27   A    
C32   C33   A    
C36   C38   A    
C25   C26   A    
C16   H5    S    
C32   H12   S    
Cu2   O6    S    
C11   C13   A    
C38   C39   A    
C1    O2    A    
N7    H26   S    
C33   C35   A    
C31   C39   A    
C9    C15   A    
C27   F2    S    
C8    C46   S    
C5    C15   S    
C2    H1    S    
N3    H18   S    
C6    H16   S    
C14   H3    S    
C20   C21   A    
Cu1   Cu2   S    
C21   C24   A    
C14   C15   A    
C35   H13   S    
N6    H24   S    
C13   C14   A    
C44   N5    S    
C34   O7    A    
