data_mof_unit_21079.cif
_audit_creation_date              2012-12-11T14:49:51-0500
_audit_creation_method            fapswitch 2.2
_symmetry_space_group_name_H-M    P1
_symmetry_Int_Tables_number       1
_space_group_crystal_system       triclinic
_cell_length_a                    16.879692
_cell_length_b                    16.660602
_cell_length_c                    19.738913
_cell_angle_alpha                 116.769094
_cell_angle_beta                  62.980911
_cell_angle_gamma                 100.68592
_cell_volume                      4413.9503902

loop_
_atom_site_label
_atom_site_type_symbol
_atom_type_description
_atom_site_fract_x
_atom_site_fract_y
_atom_site_fract_z
_atom_type_partial_charge
C1    C     C_R   0.029344 0.761078 0.023768 -0.213888
C2    C     C_R   0.250975 0.525275 0.833242 -0.220181
C3    C     C_3   0.583958 0.853066 0.037030 -0.978498
C4    C     C_3   0.808132 0.580929 0.385621 0.191610
C5    C     C_3   0.778611 0.669483 0.395765 -0.406745
C6    C     C_3   0.712946 0.722971 0.485667 -0.942672
C7    C     C_R   0.181610 0.498591 0.092542 0.702654
C8    C     C_R   0.756921 0.431782 0.167060 -0.157021
C9    C     C_R   0.979852 0.343324 0.765543 0.736311
C10   C     C_R   0.252286 0.554508 0.073326 -0.107317
C11   C     C_R   0.930524 0.268594 0.767697 -0.213319
C12   C     C_R   0.260136 0.464339 0.754805 -0.133516
C13   C     C_R   0.043226 0.223691 0.990128 0.019047
C14   C     C_R   0.019357 0.135991 0.656174 0.564358
C15   C     C_R   0.945611 0.191662 0.691135 -0.068215
C16   C     C_R   0.754525 0.461510 0.244827 -0.166731
C17   C     C_R   0.892193 0.178046 0.650491 -0.238078
C18   C     C_R   0.909925 0.104494 0.574461 0.118187
C19   C     C_R   0.983541 0.046779 0.539003 -0.003629
C20   C     C_R   0.805702 0.546022 0.945378 -0.186022
C21   C     C_R   0.038782 0.063024 0.579896 -0.030793
C22   C     C_R   0.855170 0.087303 0.533674 -0.178267
C23   C     C_R   0.873097 0.013141 0.457696 -0.164544
C24   C     C_R   0.945571 0.955775 0.422625 0.159244
C25   C     C_R   0.001406 0.972389 0.463055 0.006708
C26   C     C_R   0.074283 0.913795 0.428026 -0.075884
C27   C     C_R   0.723217 0.521314 0.991478 -0.077079
C28   C     C_R   0.129403 0.931417 0.468579 -0.144707
C29   C     C_R   0.111802 0.005924 0.544231 -0.152872
C30   C     C_R   0.962385 0.880797 0.348324 -0.353346
C31   C     C_R   0.032963 0.822777 0.315525 -0.122052
C32   C     C_R   0.003591 0.664254 0.242114 -0.088375
C33   C     C_R   0.089398 0.838039 0.353648 0.697521
C34   C     C_R   0.412615 0.397671 0.644387 0.543001
C35   C     C_R   0.341249 0.460064 0.683525 -0.067189
C36   C     C_R   0.344303 0.523674 0.655333 -0.254043
C37   C     C_R   0.412195 0.521490 0.582231 0.159937
C38   C     C_R   0.043166 0.743937 0.242440 0.160106
C39   C     C_R   0.478910 0.453523 0.535349 -0.082348
C40   C     C_R   0.480816 0.391406 0.565981 -0.262544
C41   C     C_R   0.411597 0.584800 0.554154 -0.167306
C42   C     C_R   0.477530 0.581526 0.478690 -0.217880
C43   C     C_R   0.543478 0.514244 0.430741 0.180238
C44   C     C_R   0.738230 0.464301 0.018413 0.798342
C45   C     C_R   0.543945 0.448918 0.457981 0.022845
C46   C     C_R   0.609620 0.379716 0.407681 -0.124764
C47   C     C_R   0.607521 0.313276 0.433683 0.373575
C48   C     C_R   0.549816 0.324206 0.515740 0.447404
C49   C     C_R   0.246478 0.575477 0.015702 -0.269664
C50   C     C_R   0.610962 0.513307 0.357082 -0.242423
C51   C     C_R   0.679498 0.450004 0.312107 0.111889
C52   C     C_R   0.678275 0.381081 0.334074 -0.163698
C53   C     C_R   0.637886 0.557725 0.014424 -0.139567
C54   C     C_R   0.319252 0.590780 0.107288 0.177401
C55   C     C_R   0.406011 0.572404 0.169152 -0.172767
C56   C     C_R   0.069427 0.743448 0.165866 -0.141279
C57   C     C_R   0.324688 0.566472 0.164604 -0.081921
C58   C     C_R   0.390833 0.634289 0.066360 -0.161900
C59   C     C_R   0.474206 0.621870 0.056875 0.075945
C60   C     C_R   0.917193 0.263124 0.840022 0.503692
C61   C     C_R   0.482808 0.591993 0.109339 -0.024852
C62   C     C_R   0.567751 0.572609 0.094129 0.464592
C63   C     C_R   0.627462 0.580301 0.957748 0.546962
C64   C     C_R   0.547010 0.622301 0.985241 -0.453130
C65   C     C_R   0.886783 0.207351 0.169772 0.004479
C66   C     C_R   0.945450 0.870127 0.019387 -0.188699
C67   C     C_R   0.824981 0.972380 0.069230 -0.421818
C68   C     C_R   0.834106 0.503503 0.244544 0.581875
C69   C     C_R   0.858187 0.883401 0.032541 0.543843
C70   C     C_R   0.997948 0.945496 0.041517 0.664859
C71   C     C_R   0.175028 0.450545 0.755617 0.570094
C72   C     C_R   0.962169 0.033127 0.082589 -0.114251
C73   C     C_R   0.875696 0.046566 0.094911 0.088456
C74   C     C_R   0.839773 0.134280 0.136049 -0.306156
C75   C     C_R   0.970937 0.193988 0.160515 0.737745
C76   C     C_R   0.009726 0.107688 0.115168 -0.293203
C77   C     C_R   0.956645 0.694836 0.943131 0.755741
C78   C     C_R   0.977692 0.778895 0.993761 0.009340
C79   C     C_3   0.843136 0.131062 0.840432 0.195225
C80   C     C_3   0.766728 0.105077 0.813425 -0.264050
C81   C     C_3   0.774860 0.006615 0.751529 -1.005761
C82   C     C_R   0.060777 0.307955 0.042645 -0.063426
C83   C     C_3   0.197268 0.323585 0.632323 0.229463
C84   C     C_3   0.247974 0.315388 0.542560 -0.270496
C85   C     C_3   0.296389 0.224358 0.483286 -0.987692
C86   C     C_3   0.396009 0.380378 0.761385 0.191204
C87   C     C_3   0.444346 0.331698 0.782100 -0.294760
C88   C     C_3   0.410686 0.365287 0.876735 -0.973945
C89   C     C_3   0.634405 0.171424 0.327513 0.171600
C90   C     C_3   0.567598 0.114374 0.370545 -0.244163
C91   C     C_3   0.547987 0.027751 0.307283 -1.035694
C92   C     C_3   0.613991 0.296884 0.584098 0.237699
C93   C     C_R   0.981606 0.239424 0.968385 -0.082905
C94   C     C_3   0.713155 0.280006 0.523841 -0.316482
C95   C     C_3   0.771461 0.309654 0.571331 -0.985531
C96   C     C_3   0.583479 0.640091 0.217275 0.185230
C97   C     C_3   0.680223 0.667845 0.199495 -0.331437
C98   C     C_3   0.686335 0.752707 0.272369 -1.000100
C99   C     C_3   0.686449 0.584288 0.823863 0.264322
C100  C     C_3   0.626519 0.525020 0.781150 -0.338335
C101  C     C_3   0.613370 0.564904 0.730755 -1.033273
C102  C     C_3   0.743374 0.813764 0.991024 0.262754
C103  C     C_3   0.648815 0.831418 0.061080 -0.346961
F1    F     F_    0.150472 0.477684 0.158984 -0.697638
F2    F     F_    0.988247 0.383728 0.716483 -0.648194
F3    F     F_    0.071726 0.153506 0.696997 -0.755444
F4    F     F_    0.157443 0.778966 0.318713 -0.706135
F5    F     F_    0.015228 0.265089 0.195166 -0.671067
F6    F     F_    0.083405 0.933749 0.025142 -0.706105
F7    F     F_    0.678325 0.409951 0.050205 -0.681499
F8    F     F_    0.929489 0.681461 0.884058 -0.706492
H1    H     H_    0.059563 0.809590 0.063140 0.198006
H2    H     H_    0.185599 0.887460 0.442333 0.185013
H3    H     H_    0.154891 0.018217 0.574998 0.189686
H4    H     H_    0.290692 0.573528 0.689562 0.167252
H5    H     H_    0.359995 0.636788 0.590605 0.139172
H6    H     H_    0.477141 0.631559 0.457909 0.132335
H7    H     H_    0.613260 0.564876 0.336950 0.129680
H8    H     H_    0.818559 0.586567 0.912237 0.256941
H9    H     H_    0.732690 0.332042 0.296054 0.171517
H10   H     H_    0.410562 0.549602 0.210740 0.170900
H11   H     H_    0.535583 0.643919 0.946361 0.159099
H12   H     H_    0.106201 0.321111 0.070989 0.196021
H13   H     H_    0.269190 0.537524 0.201325 0.201081
H14   H     H_    0.387299 0.660603 0.026925 0.114295
H15   H     H_    0.774401 0.146278 0.144338 0.146503
H16   H     H_    0.983147 0.640959 0.290374 0.177297
H17   H     H_    0.757591 0.984721 0.082759 0.157765
H18   H     H_    0.075585 0.099156 0.107969 0.219415
H19   H     H_    0.108532 0.793328 0.144327 0.123744
H20   H     H_    0.279937 0.627959 0.995883 0.143243
H21   H     H_    0.830860 0.100782 0.884187 0.110646
H22   H     H_    0.907718 0.100896 0.786737 0.113109
H23   H     H_    0.953405 0.188817 0.928076 0.131621
H24   H     H_    0.702407 0.116772 0.869568 0.212059
H25   H     H_    0.765998 0.147949 0.784066 0.213304
H26   H     H_    0.837305 0.994452 0.693600 0.271885
H27   H     H_    0.717696 0.989600 0.734462 0.276216
H28   H     H_    0.774777 0.962272 0.779983 0.268271
H29   H     H_    0.144266 0.273132 0.633402 0.155463
H30   H     H_    0.242318 0.304742 0.650544 0.098919
H31   H     H_    0.200534 0.323488 0.521196 0.231745
H32   H     H_    0.297408 0.369268 0.540155 0.210054
H33   H     H_    0.345556 0.215999 0.502673 0.272901
H34   H     H_    0.303236 0.557051 0.853102 0.137586
H35   H     H_    0.332338 0.220297 0.418697 0.274322
H36   H     H_    0.248123 0.169042 0.483372 0.278004
H37   H     H_    0.323821 0.376870 0.799099 0.140370
H38   H     H_    0.418124 0.451405 0.780274 0.073838
H39   H     H_    0.434355 0.258084 0.754151 0.226548
H40   H     H_    0.516353 0.345109 0.756563 0.174490
H41   H     H_    0.420560 0.438799 0.905762 0.264428
H42   H     H_    0.448236 0.330372 0.889977 0.281092
H43   H     H_    0.338877 0.351314 0.905405 0.264128
H44   H     H_    0.691933 0.127202 0.274451 0.146883
H45   H     H_    0.836825 0.223947 0.678621 0.163491
H46   H     H_    0.604869 0.196812 0.300227 0.086303
H47   H     H_    0.594991 0.096857 0.403991 0.232802
H48   H     H_    0.504323 0.153321 0.416773 0.205056
H49   H     H_    0.523124 0.043056 0.270929 0.277215
H50   H     H_    0.496505 0.990101 0.340675 0.282866
H51   H     H_    0.609214 0.984773 0.263838 0.263912
H52   H     H_    0.599148 0.259297 0.622561 0.122889
H53   H     H_    0.600374 0.369381 0.627396 0.087033
H54   H     H_    0.725435 0.207151 0.481624 0.228990
H55   H     H_    0.733163 0.318883 0.485646 0.234386
H56   H     H_    0.798135 0.130410 0.560843 0.134391
H57   H     H_    0.770966 0.384155 0.603085 0.277438
H58   H     H_    0.841053 0.285602 0.526666 0.294688
H59   H     H_    0.747566 0.281864 0.618781 0.251829
H60   H     H_    0.553471 0.630148 0.275933 0.129593
H61   H     H_    0.543908 0.695673 0.229247 0.082661
H62   H     H_    0.718608 0.612508 0.188690 0.207025
H63   H     H_    0.710568 0.680634 0.142263 0.202092
H64   H     H_    0.651019 0.809907 0.282495 0.275223
H65   H     H_    0.757257 0.769930 0.258059 0.269493
H66   H     H_    0.656542 0.741814 0.330553 0.262299
H67   H     H_    0.710068 0.387681 0.145037 0.224027
H68   H     H_    0.754150 0.580962 0.773780 0.147173
H69   H     H_    0.666667 0.656678 0.857121 0.057163
H70   H     H_    0.657299 0.456743 0.739066 0.207500
H71   H     H_    0.560411 0.517217 0.827703 0.205235
H72   H     H_    0.585150 0.634445 0.771734 0.273269
H73   H     H_    0.566205 0.523919 0.704149 0.263441
H74   H     H_    0.677834 0.565964 0.678688 0.276105
H75   H     H_    0.745227 0.747220 0.939687 0.137633
H76   H     H_    0.761674 0.862862 0.962519 0.082852
H77   H     H_    0.626458 0.771383 0.075068 0.203361
H78   H     H_    0.829964 0.000122 0.426790 0.128905
H79   H     H_    0.647843 0.888479 0.119241 0.209364
H80   H     H_    0.601011 0.917840 0.030846 0.265620
H81   H     H_    0.515284 0.859019 0.086440 0.283390
H82   H     H_    0.586285 0.799223 0.976776 0.257339
H83   H     H_    0.843478 0.599153 0.426094 0.148736
H84   H     H_    0.750727 0.541963 0.410468 0.121266
H85   H     H_    0.837318 0.711347 0.379156 0.212536
H86   H     H_    0.746126 0.655859 0.353930 0.199370
H87   H     H_    0.652451 0.683391 0.503509 0.268368
H88   H     H_    0.693002 0.786306 0.491202 0.269027
H89   H     H_    0.919517 0.865913 0.316668 0.162520
H90   H     H_    0.744075 0.740154 0.529320 0.267055
N1    N     N_R   0.036080 0.671900 0.995420 -0.091834
N2    N     N_R   0.867430 0.509300 0.948100 -0.108396
N3    N     N_R   0.003360 0.617250 0.167070 -0.058715
N4    N     N_R   0.825450 0.461270 0.995400 -0.136394
N5    N     N_R   0.045340 0.665280 0.119770 -0.055531
N6    N     N_R   0.883740 0.497640 0.167070 -0.098340
N7    N     N_R   0.987050 0.628910 0.948110 -0.123145
N8    N     N_R   0.174550 0.538730 0.004600 -0.071388
N9    N     N_R   0.954660 0.334720 0.880230 -0.133292
N10   N     N_R   0.116260 0.502360 0.832930 -0.082480
N11   N     N_R   0.012950 0.371090 0.051890 -0.054710
N12   N     N_R   0.963920 0.328100 0.004580 -0.051334
N13   N     N_R   0.165290 0.545350 0.880240 -0.061578
N14   N     N_R   0.132570 0.490700 0.051900 -0.111667
N15   N     N_R   0.996640 0.382750 0.832930 -0.152731
N16   N     N_R   0.834710 0.454650 0.119760 -0.091350
Ni1   Ni    Ni4+2 0.104370 0.604370 0.000010 0.194470
Ni2   Ni    Ni4+2 0.895630 0.395630 0.999990 0.252174
Ni3   Ni    Ni4+2 0.991920 0.505780 0.891500 0.299709
Ni4   Ni    Ni4+2 0.008080 0.494220 0.108500 0.300520
O1    O     O_3   0.843446 0.225506 0.884412 -0.648735
O2    O     O_3   0.156153 0.410253 0.686235 -0.617833
O3    O     O_3   0.413041 0.337040 0.675379 -0.630554
O4    O     O_3   0.667544 0.241144 0.382136 -0.658084
O5    O     O_3   0.557559 0.262978 0.542098 -0.613035
O6    O     O_3   0.580042 0.557087 0.152063 -0.614044
O7    O     O_3   0.693778 0.551060 0.875410 -0.658363
O8    O     O_3   0.803818 0.809049 0.020656 -0.653282
O9    O     O_3   0.868486 0.527658 0.302841 -0.652595

loop_
_geom_bond_atom_site_label_1
_geom_bond_atom_site_label_2
_ccdc_geom_bond_type
N7    Ni3   S    
C7    C10   A    
C30   H89   S    
C87   C88   S    
C55   H10   S    
C90   H47   S    
N3    Ni4   S    
C4    H84   S    
C41   C42   A    
C35   C36   A    
C33   F4    S    
C16   C51   S    
C72   C76   A    
C2    C12   A    
C95   H57   S    
C94   H55   S    
C97   C98   S    
N12   Ni2   S    
C66   C70   A    
C45   C46   A    
N5    Ni1   S    
C2    H34   S    
C81   H26   S    
N10   Ni3   S    
N2    N4    A    
C59   C64   A    
C102  H75   S    
C80   H24   S    
N2    Ni3   S    
C5    C6    S    
N8    Ni1   S    
C14   C21   A    
C28   C29   A    
C19   C21   A    
C34   C35   A    
C3    H80   S    
C85   H35   S    
C1    H1    S    
C6    H88   S    
N9    N15   A    
C89   H44   S    
C66   C69   A    
C9    F2    S    
C62   O6    S    
C46   C52   A    
C48   O5    S    
C94   H54   S    
C15   C17   A    
C18   C19   A    
C76   H18   S    
C90   H48   S    
C77   F8    S    
C7    N14   A    
C100  C101  S    
C8    N16   A    
C29   H3    S    
C102  C103  S    
C11   C15   S    
C27   C44   A    
N4    Ni2   S    
C83   C84   S    
C34   O3    S    
C96   H60   S    
C102  O8    S    
C23   C24   A    
C31   C33   A    
C91   H51   S    
C67   C73   A    
C32   C38   A    
C100  H71   S    
C17   H45   S    
C99   O7    S    
C101  H72   S    
C39   C45   A    
C83   O2    S    
C92   H53   S    
C92   O5    S    
C75   F5    S    
C8    C16   A    
C87   H40   S    
C1    C78   A    
C88   H41   S    
C9    C11   A    
C94   C95   S    
C86   O3    S    
C79   H22   S    
C1    N1    A    
N14   Ni4   S    
C85   H33   S    
C83   H29   S    
C68   O9    S    
C17   C18   A    
C82   N11   A    
N11   Ni4   S    
C9    N15   A    
C101  H74   S    
C81   H27   S    
C66   C78   S    
C59   C61   A    
C49   H20   S    
C71   O2    S    
C14   C15   A    
C93   N12   A    
C51   C52   A    
C96   O6    S    
N15   Ni3   S    
C97   H62   S    
C84   C85   S    
C6    H90   S    
C93   H23   S    
N13   Ni1   S    
C77   N7    A    
C39   C40   A    
C6    H87   S    
C86   C87   S    
C80   C81   S    
C5    H86   S    
C84   H32   S    
C25   C26   A    
C77   C78   A    
C21   C29   A    
C13   C82   A    
C87   H39   S    
N9    Ni2   S    
C63   C64   A    
C13   C93   A    
C67   C69   A    
C88   H43   S    
C32   N3    A    
C4    H83   S    
C75   C76   A    
C99   H68   S    
C70   F6    S    
C69   O8    S    
C98   H65   S    
C53   C62   A    
C26   C33   A    
C47   C48   A    
C47   O4    S    
C84   H31   S    
C30   C31   A    
C96   C97   S    
C68   N6    A    
C92   C94   S    
C50   C51   A    
C19   C25   A    
C38   C56   A    
C42   H6    S    
C103  H79   S    
C3    H82   S    
C24   C25   A    
C12   C35   S    
C89   H46   S    
C100  H70   S    
C95   H58   S    
C91   H49   S    
C101  H73   S    
C5    H85   S    
C16   C68   A    
C22   H56   S    
C52   H9    S    
C92   H52   S    
C12   C71   A    
N3    N5    A    
C2    N13   A    
C71   N10   A    
C7    F1    S    
C55   C57   A    
C34   C40   A    
C86   H38   S    
C42   C43   A    
C41   H5    S    
C11   C60   A    
C73   C74   A    
C82   H12   S    
C23   H78   S    
C32   H16   S    
C79   O1    S    
C83   H30   S    
C54   C58   A    
C3    C103  S    
C40   C48   A    
C46   C47   A    
C36   C37   A    
C97   H63   S    
C36   H4    S    
C56   H19   S    
C18   C22   A    
C26   C28   A    
C103  H77   S    
C85   H36   S    
C20   N2    A    
C89   O4    S    
C72   C73   A    
C86   H37   S    
C27   C53   S    
C43   C50   A    
N6    Ni4   S    
C63   O7    S    
C20   C27   A    
N16   Ni2   S    
C60   O1    S    
C102  H76   S    
N8    N14   A    
C99   C100  S    
C88   H42   S    
N1    Ni1   S    
C31   C38   S    
C58   C59   A    
C99   H69   S    
C43   C45   A    
C3    H81   S    
C57   H13   S    
C98   H64   S    
C53   C63   A    
C98   H66   S    
C90   C91   S    
C74   H15   S    
C64   H11   S    
C79   H21   S    
C55   C61   A    
C44   N4    A    
C50   H7    S    
C37   C41   A    
C61   C62   A    
C10   C54   S    
C95   H59   S    
C24   C30   A    
C80   H25   S    
C28   H2    S    
C65   C74   A    
N6    N16   A    
C79   C80   S    
C8    H67   S    
C4    C5    S    
N10   N13   A    
C56   N5    A    
N11   N12   A    
C58   H14   S    
C37   C39   A    
C96   H61   S    
C14   F3    S    
C49   N8    A    
C22   C23   A    
C91   H50   S    
N1    N7    A    
C70   C72   A    
C89   C90   S    
C67   H17   S    
C10   C49   A    
C60   N9    A    
C20   H8    S    
C81   H28   S    
C65   C75   A    
C4    O9    S    
C54   C57   A    
C44   F7    S    
