data_mof_unit_17694.cif
_audit_creation_date              2012-12-11T16:19:14-0500
_audit_creation_method            fapswitch 2.2
_symmetry_space_group_name_H-M    P1
_symmetry_Int_Tables_number       1
_space_group_crystal_system       triclinic
_cell_length_a                    6.903307
_cell_length_b                    31.504326
_cell_length_c                    35.073288
_cell_angle_alpha                 89.999715
_cell_angle_beta                  90.002303
_cell_angle_gamma                 90.011105
_cell_volume                      7627.88001758

loop_
_atom_site_label
_atom_site_type_symbol
_atom_type_description
_atom_site_fract_x
_atom_site_fract_y
_atom_site_fract_z
_atom_type_partial_charge
O1    O     O_R   0.417270 0.211480 0.210950 -0.537315
O2    O     O_R   0.582730 0.788520 0.789050 -0.518598
O3    O     O_R   0.582730 0.788520 0.710950 -0.537336
O4    O     O_R   0.417270 0.211480 0.289050 -0.518680
O5    O     O_R   0.917270 0.288520 0.289050 -0.513537
O6    O     O_R   0.082730 0.711480 0.710950 -0.538344
O7    O     O_R   0.082730 0.711480 0.789050 -0.513517
O8    O     O_R   0.917270 0.288520 0.210950 -0.538348
O9    O     O_R   0.746940 0.206370 0.288750 -0.535633
O10   O     O_R   0.253060 0.793630 0.711250 -0.508144
O11   O     O_R   0.253060 0.793630 0.788750 -0.535594
O12   O     O_R   0.746940 0.206370 0.211250 -0.508139
O13   O     O_R   0.246940 0.293630 0.211250 -0.513555
O14   O     O_R   0.753060 0.706370 0.788750 -0.530235
O15   O     O_R   0.753060 0.706370 0.711250 -0.513544
O16   O     O_R   0.246940 0.293630 0.288750 -0.530197
C1    C     C_R   0.577928 0.195336 0.301634 0.797999
C2    C     C_R   0.422402 0.804625 0.698419 0.788135
C3    C     C_R   0.422079 0.804667 0.801632 0.797953
C4    C     C_R   0.577593 0.195377 0.198417 0.788204
C5    C     C_R   0.077741 0.304571 0.198379 0.798272
C6    C     C_R   0.922111 0.695366 0.801691 0.788232
C7    C     C_R   0.922254 0.695427 0.698380 0.798205
C8    C     C_R   0.077893 0.304631 0.301694 0.788249
O17   O     O_3   0.583760 0.276950 0.250000 -0.344446
O18   O     O_3   0.416240 0.723050 0.750000 -0.344454
O19   O     O_3   0.083760 0.223050 0.250000 -0.348126
O20   O     O_3   0.916240 0.776950 0.750000 -0.348069
V1    V     V_3+5 0.858600 0.245000 0.250000 1.632129
V2    V     V_3+5 0.141400 0.755000 0.750000 1.632280
V3    V     V_3+5 0.358600 0.255000 0.250000 1.636813
V4    V     V_3+5 0.641400 0.745000 0.750000 1.636876
C9    C     C_R   0.966030 0.586928 0.539085 0.665536
C10   C     C_R   0.033704 0.412146 0.461730 0.670569
C11   C     C_R   0.034024 0.413057 0.039073 0.665541
C12   C     C_R   0.966383 0.587840 0.961719 0.670570
C13   C     C_R   0.465689 0.913954 0.960378 0.666974
C14   C     C_R   0.539959 0.088774 0.037395 0.668269
C15   C     C_R   0.534087 0.086074 0.460404 0.666936
C16   C     C_R   0.460105 0.911239 0.537404 0.668277
N1    N     N_R   0.958273 0.572534 0.575814 -0.549136
N2    N     N_R   0.023004 0.426527 0.425045 -0.548773
N3    N     N_R   0.041773 0.427451 0.075802 -0.549136
N4    N     N_R   0.977085 0.573460 0.925034 -0.548778
N5    N     N_R   0.480287 0.928072 0.923655 -0.549574
N6    N     N_R   0.544678 0.074464 0.074171 -0.548484
N7    N     N_R   0.519633 0.071959 0.423678 -0.549567
N8    N     N_R   0.455214 0.925547 0.574179 -0.548497
C17   C     C_R   0.951494 0.530076 0.583546 0.715828
C18   C     C_R   0.989332 0.468303 0.417161 0.721579
C19   C     C_R   0.048569 0.469908 0.083535 0.715840
C20   C     C_R   0.010761 0.531684 0.917150 0.721576
C21   C     C_R   0.517930 0.969685 0.915712 0.721012
C22   C     C_R   0.549576 0.032014 0.082002 0.716455
C23   C     C_R   0.482086 0.030342 0.415728 0.721085
C24   C     C_R   0.450143 0.967995 0.582011 0.716455
C25   C     C_R   0.973746 0.499770 0.553946 -0.099726
C26   C     C_R   0.969764 0.498434 0.446999 -0.101045
C27   C     C_R   0.026335 0.500215 0.053935 -0.099719
C28   C     C_R   0.030331 0.501552 0.946988 -0.101047
C29   C     C_R   0.536877 0.999936 0.945498 -0.101146
C30   C     C_R   0.527719 0.001664 0.052434 -0.099548
C31   C     C_R   0.463181 0.000085 0.445509 -0.101094
C32   C     C_R   0.471968 0.998352 0.552447 -0.099529
C33   C     C_R   0.971600 0.514034 0.515672 -0.101182
C34   C     C_R   0.983726 0.484254 0.485265 -0.099680
C35   C     C_R   0.028483 0.485952 0.015661 -0.101183
C36   C     C_R   0.016366 0.515732 0.985253 -0.099681
C37   C     C_R   0.520077 0.985954 0.983777 -0.099957
C38   C     C_R   0.532258 0.015809 0.014132 -0.101223
C39   C     C_R   0.479802 0.014066 0.483791 -0.099955
C40   C     C_R   0.467624 0.984207 0.514143 -0.101209
C41   C     C_R   0.957535 0.558171 0.507907 -0.113920
C42   C     C_R   0.009027 0.440305 0.493065 -0.114997
C43   C     C_R   0.042541 0.441815 0.007896 -0.113914
C44   C     C_R   0.991070 0.559681 0.993053 -0.114994
C45   C     C_R   0.491843 0.942115 0.991651 -0.114283
C46   C     C_R   0.548661 0.059894 0.006288 -0.114718
C47   C     C_R   0.507859 0.057909 0.491671 -0.114265
C48   C     C_R   0.451432 0.940119 0.506295 -0.114725
C49   C     C_R   0.995447 0.455890 0.561752 0.208025
C50   C     C_R   0.935844 0.542095 0.439510 0.207908
C51   C     C_R   0.004654 0.544096 0.061741 0.208023
C52   C     C_R   0.064256 0.457892 0.939500 0.207908
C53   C     C_R   0.572868 0.043515 0.937960 0.207416
C54   C     C_R   0.504075 0.957841 0.060306 0.208000
C55   C     C_R   0.427432 0.956498 0.437962 0.207413
C56   C     C_R   0.495393 0.042179 0.560324 0.208017
C57   C     C_R   0.010509 0.426272 0.531678 0.249327
C58   C     C_R   0.934196 0.571884 0.469582 0.248046
C59   C     C_R   0.989602 0.573714 0.031665 0.249325
C60   C     C_R   0.065895 0.428102 0.969572 0.248044
C61   C     C_R   0.574148 0.073420 0.967956 0.247994
C62   C     C_R   0.488917 0.928177 0.030278 0.249174
C63   C     C_R   0.426190 0.926590 0.467956 0.247989
C64   C     C_R   0.510554 0.071847 0.530299 0.249180
O21   O     O_2   0.986382 0.628925 0.533189 -0.469545
O22   O     O_2   0.071877 0.370724 0.467345 -0.467657
O23   O     O_2   0.013654 0.371061 0.033176 -0.469554
O24   O     O_2   0.928193 0.629261 0.967333 -0.467653
O25   O     O_2   0.421763 0.872817 0.966095 -0.469854
O26   O     O_2   0.522357 0.130803 0.031376 -0.467322
O27   O     O_2   0.577960 0.127212 0.466131 -0.469876
O28   O     O_2   0.477838 0.869212 0.531388 -0.467320
O29   O     O_2   0.922057 0.517509 0.619857 -0.451827
O30   O     O_2   0.977508 0.480414 0.380348 -0.450895
O31   O     O_2   0.078004 0.482474 0.119847 -0.451825
O32   O     O_2   0.022584 0.519573 0.880337 -0.450892
O33   O     O_2   0.534317 0.981530 0.878900 -0.450468
O34   O     O_2   0.576546 0.019498 0.118402 -0.451869
O35   O     O_2   0.465754 0.018502 0.378914 -0.450488
O36   O     O_2   0.423036 0.980503 0.618409 -0.451867
C65   C     C_R   0.204236 0.396284 0.369950 0.291423
C66   C     C_R   0.103520 0.605437 0.633817 0.283374
C67   C     C_R   0.795821 0.603703 0.869940 0.291456
C68   C     C_R   0.896498 0.394554 0.133804 0.283420
C69   C     C_R   0.395422 0.107367 0.131722 0.277448
C70   C     C_R   0.301311 0.898434 0.867905 0.299867
C71   C     C_R   0.604489 0.892650 0.631732 0.277436
C72   C     C_R   0.698656 0.101583 0.367929 0.299913
C73   C     C_R   0.214838 0.367619 0.338977 0.145161
C74   C     C_R   0.090831 0.634162 0.664670 0.139602
C75   C     C_R   0.785187 0.632373 0.838971 0.145146
C76   C     C_R   0.909175 0.365833 0.164660 0.139579
C77   C     C_R   0.406909 0.135605 0.162939 0.148017
C78   C     C_R   0.289713 0.869261 0.837305 0.146142
C79   C     C_R   0.593038 0.864406 0.662946 0.148036
C80   C     C_R   0.710262 0.130747 0.337321 0.146222
C81   C     C_R   0.066772 0.336660 0.333382 -0.205676
C82   C     C_R   0.932738 0.662987 0.667242 -0.203348
C83   C     C_R   0.933245 0.663335 0.833378 -0.205729
C84   C     C_R   0.067253 0.337004 0.167236 -0.203353
C85   C     C_R   0.567140 0.163755 0.166582 -0.202595
C86   C     C_R   0.433041 0.837080 0.832952 -0.212876
C87   C     C_R   0.432836 0.836248 0.666583 -0.202609
C88   C     C_R   0.566977 0.162935 0.332963 -0.212939
C89   C     C_R   0.905460 0.336741 0.358691 0.252337
C90   C     C_R   0.784926 0.660797 0.639247 0.235677
C91   C     C_R   0.094562 0.663254 0.858687 0.252472
C92   C     C_R   0.215052 0.339183 0.139241 0.235605
C93   C     C_R   0.717375 0.161715 0.138967 0.251384
C94   C     C_R   0.588776 0.835966 0.859350 0.233057
C95   C     C_R   0.282602 0.838283 0.638966 0.251389
C96   C     C_R   0.411306 0.164077 0.359371 0.232835
C97   C     C_R   0.893110 0.367097 0.387786 -0.149145
C98   C     C_R   0.793893 0.630243 0.610253 -0.130287
C99   C     C_R   0.106948 0.632893 0.887777 -0.149100
C100  C     C_R   0.206109 0.369736 0.110245 -0.130260
C101  C     C_R   0.707965 0.131812 0.109383 -0.140050
C102  C     C_R   0.604664 0.866989 0.887776 -0.133241
C103  C     C_R   0.291980 0.868189 0.609384 -0.140050
C104  C     C_R   0.395377 0.133060 0.387802 -0.133009
H1    H     H_    0.768544 0.367197 0.406588 0.173195
H2    H     H_    0.678447 0.628608 0.589370 0.183446
H3    H     H_    0.231517 0.632795 0.906580 0.173179
H4    H     H_    0.321556 0.371365 0.089365 0.183474
H5    H     H_    0.824614 0.130077 0.088778 0.177428
H6    H     H_    0.726714 0.866148 0.907198 0.178878
H7    H     H_    0.175333 0.869919 0.588776 0.177369
H8    H     H_    0.273335 0.133912 0.407223 0.178907
C105  C     C_R   0.040935 0.396513 0.393939 0.231693
C106  C     C_R   0.952275 0.602823 0.606935 0.224097
C107  C     C_R   0.959138 0.603473 0.893928 0.231675
C108  C     C_R   0.047746 0.397162 0.106924 0.224076
C109  C     C_R   0.548655 0.104765 0.105310 0.228576
C110  C     C_R   0.461924 0.897902 0.892653 0.222691
C111  C     C_R   0.451260 0.895245 0.605316 0.228589
C112  C     C_R   0.538057 0.102132 0.392679 0.222559
N9    N     N_2   0.010180 0.441627 0.600234 -0.465819
H9    H     H_    0.928358 0.415321 0.606988 0.299871
C113  C     C_3   0.205869 0.440120 0.614989 -0.315960
H10   H     H_    0.291867 0.415635 0.599743 0.196308
H11   H     H_    0.202097 0.432076 0.645796 0.217457
H12   H     H_    0.277599 0.471472 0.611691 0.224331
N10   N     N_2   0.900000 0.556106 0.401497 -0.465073
H13   H     H_    0.970931 0.583500 0.393547 0.300198
C114  C     C_3   0.698173 0.555160 0.390287 -0.309485
H14   H     H_    0.613293 0.578595 0.407027 0.194538
H15   H     H_    0.636226 0.523007 0.394809 0.226007
H16   H     H_    0.685712 0.563122 0.359552 0.218656
N11   N     N_2   0.989933 0.558359 0.100222 -0.465817
H17   H     H_    0.071772 0.584662 0.106977 0.299871
C115  C     C_3   0.794246 0.559872 0.114974 -0.315966
H18   H     H_    0.708263 0.584359 0.099726 0.196311
H19   H     H_    0.798026 0.567915 0.145781 0.217457
H20   H     H_    0.722498 0.528521 0.111676 0.224332
N12   N     N_2   0.100118 0.443882 0.901488 -0.465074
H21   H     H_    0.029207 0.416486 0.893537 0.300202
C116  C     C_3   0.301948 0.444832 0.890285 -0.309493
H22   H     H_    0.386834 0.421402 0.907029 0.194535
H23   H     H_    0.363873 0.476987 0.894806 0.226011
H24   H     H_    0.314427 0.436868 0.859550 0.218659
N13   N     N_2   0.610564 0.057347 0.899965 -0.464900
H25   H     H_    0.540232 0.084734 0.891809 0.300065
C117  C     C_3   0.812897 0.056315 0.889129 -0.308314
H26   H     H_    0.897060 0.079891 0.905856 0.194255
H27   H     H_    0.826794 0.064006 0.858362 0.219281
H28   H     H_    0.874567 0.024211 0.893998 0.226147
N14   N     N_2   0.487512 0.943693 0.098793 -0.465625
H29   H     H_    0.568616 0.917346 0.105729 0.300033
C118  C     C_3   0.291182 0.942348 0.113222 -0.315829
H30   H     H_    0.205486 0.917870 0.097889 0.196236
H31   H     H_    0.220061 0.973734 0.109731 0.224482
H32   H     H_    0.293522 0.934391 0.144053 0.217649
N15   N     N_2   0.390024 0.942658 0.399959 -0.464900
H33   H     H_    0.460613 0.915299 0.391813 0.300037
C119  C     C_3   0.187739 0.943618 0.389079 -0.308297
H34   H     H_    0.103671 0.920008 0.405783 0.194291
H35   H     H_    0.174060 0.935927 0.358308 0.219225
H36   H     H_    0.125793 0.975699 0.393939 0.226131
N16   N     N_2   0.511723 0.056330 0.598813 -0.465630
H37   H     H_    0.430469 0.082660 0.605734 0.300021
C120  C     C_3   0.707984 0.057718 0.613281 -0.315817
H38   H     H_    0.793646 0.082212 0.597962 0.196251
H39   H     H_    0.779254 0.026346 0.609806 0.224487
H40   H     H_    0.705472 0.065677 0.644111 0.217620
Br1   Br    Br    0.029263 0.366811 0.545894 -0.392987
Br2   Br    Br    0.877260 0.630480 0.456533 -0.397634
Br3   Br    Br    0.970896 0.633176 0.045881 -0.392988
Br4   Br    Br    0.122857 0.369508 0.956526 -0.397634
Br5   Br    Br    0.632900 0.131904 0.954804 -0.396259
Br6   Br    Br    0.469699 0.868738 0.044550 -0.394978
Br7   Br    Br    0.367901 0.868089 0.454785 -0.396257
Br8   Br    Br    0.529404 0.131290 0.544572 -0.395003
Br9   Br    Br    0.415241 0.434608 0.380659 -0.464237
Br10  Br    Br    0.331668 0.570872 0.627210 -0.463014
Br11  Br    Br    0.584832 0.565376 0.880648 -0.464220
Br12  Br    Br    0.668362 0.429122 0.127189 -0.463000
Br13  Br    Br    0.166810 0.073178 0.124079 -0.466525
Br14  Br    Br    0.094161 0.938139 0.877246 -0.455701
Br15  Br    Br    0.833039 0.926860 0.624099 -0.466346
Br16  Br    Br    0.905783 0.061872 0.377277 -0.455542
Br17  Br    Br    0.426131 0.374323 0.303317 -0.357715
Br18  Br    Br    0.284228 0.630740 0.704383 -0.366240
Br19  Br    Br    0.573844 0.625679 0.803318 -0.357745
Br20  Br    Br    0.715792 0.369266 0.204372 -0.366303
Br21  Br    Br    0.208346 0.132310 0.201667 -0.354154
Br22  Br    Br    0.082655 0.876284 0.800773 -0.371470
Br23  Br    Br    0.791612 0.867700 0.701674 -0.354124
Br24  Br    Br    0.917270 0.123703 0.300785 -0.371590
N17   N     N_2   0.754061 0.306228 0.355503 -0.471775
H41   H     H_    0.620536 0.317165 0.364358 0.276722
C121  C     C_3   0.799669 0.265491 0.372146 -0.528806
H42   H     H_    0.826182 0.268796 0.403263 0.215180
H43   H     H_    0.928153 0.251469 0.358115 0.192383
H44   H     H_    0.677129 0.243487 0.367638 0.187423
N18   N     N_2   0.627938 0.690022 0.639368 -0.498252
H45   H     H_    0.494244 0.675423 0.638725 0.288849
C122  C     C_3   0.643294 0.724366 0.611969 -0.537027
H46   H     H_    0.775743 0.721819 0.594060 0.221170
H47   H     H_    0.646506 0.755109 0.627409 0.195358
H48   H     H_    0.516462 0.724120 0.592463 0.212264
N19   N     N_2   0.245901 0.693782 0.855509 -0.471833
H49   H     H_    0.379439 0.682863 0.864378 0.276633
C123  C     C_3   0.200149 0.734518 0.872139 -0.528811
H50   H     H_    0.173773 0.731223 0.903260 0.215178
H51   H     H_    0.071543 0.748502 0.858118 0.192451
H52   H     H_    0.322547 0.756550 0.867602 0.187278
N20   N     N_2   0.372005 0.309948 0.139364 -0.498345
H53   H     H_    0.505723 0.324539 0.138771 0.288867
C124  C     C_3   0.356758 0.275640 0.111927 -0.537036
H54   H     H_    0.224410 0.278216 0.093991 0.221262
H55   H     H_    0.353416 0.244877 0.127335 0.195390
H56   H     H_    0.483702 0.275902 0.092452 0.212259
N21   N     N_2   0.879333 0.189681 0.140557 -0.472051
H57   H     H_    0.004901 0.177169 0.129222 0.281345
C125  C     C_3   0.841062 0.231953 0.126392 -0.521891
H58   H     H_    0.808688 0.230947 0.095368 0.214836
H59   H     H_    0.969728 0.252154 0.131223 0.185674
H60   H     H_    0.718400 0.246686 0.141891 0.190152
N22   N     N_2   0.728261 0.802805 0.858345 -0.508305
H61   H     H_    0.867377 0.813399 0.853449 0.279986
C126  C     C_3   0.716377 0.772393 0.889327 -0.536859
H62   H     H_    0.582188 0.776345 0.906504 0.224677
H63   H     H_    0.842172 0.776253 0.908783 0.213297
H64   H     H_    0.717903 0.739766 0.877394 0.196690
N23   N     N_2   0.120682 0.810307 0.640551 -0.472091
H65   H     H_    0.995106 0.822807 0.629207 0.281305
C127  C     C_3   0.159031 0.768033 0.626398 -0.521849
H66   H     H_    0.191335 0.769030 0.595371 0.214826
H67   H     H_    0.030435 0.747819 0.631247 0.185618
H68   H     H_    0.281758 0.753321 0.641893 0.190146
N24   N     N_2   0.271909 0.197255 0.358357 -0.508592
H69   H     H_    0.132890 0.186703 0.353287 0.280048
C128  C     C_3   0.283149 0.227549 0.389440 -0.536739
H70   H     H_    0.417477 0.223672 0.406591 0.224784
H71   H     H_    0.157453 0.223471 0.408884 0.213411
H72   H     H_    0.280889 0.260223 0.377616 0.196713

loop_
_geom_bond_atom_site_label_1
_geom_bond_atom_site_label_2
_ccdc_geom_bond_type
O17   V3    S    
C113  H10   S    
C104  H8    S    
C79   Br23  S    
C65   Br9   S    
C92   N20   S    
C6    C83   S    
C38   C46   A    
N9    C113  S    
N9    H9    S    
C37   C45   A    
C49   C57   A    
C10   N2    A    
C95   N23   S    
N8    C111  S    
N3    C19   A    
C11   N3    A    
C92   C100  A    
C123  H51   S    
N2    C105  S    
C93   C101  A    
O15   V4    S    
N10   C114  S    
O14   V4    S    
N15   H33   S    
C3    C86   S    
O18   V4    S    
C98   C106  A    
N20   H53   S    
C22   O34   S    
C122  H46   S    
C82   C90   A    
C97   C105  A    
O12   C4    A    
C68   Br12  S    
O8    V1    S    
C42   C57   A    
C89   C97   A    
C91   N19   S    
C27   C51   A    
C41   C58   A    
C128  H72   S    
C115  H20   S    
C115  H19   S    
C71   C79   A    
N19   H49   S    
O12   V1    S    
C125  H60   S    
C66   C106  A    
O19   V1    S    
N16   C120  S    
C46   C61   A    
C77   C85   A    
C121  H42   S    
C102  C110  A    
C122  H48   S    
C101  H5    S    
C45   C62   A    
O1    V3    S    
C126  H64   S    
C17   C25   A    
C119  H35   S    
C30   C38   A    
O3    C2    A    
C60   Br4   S    
N17   H41   S    
C118  H30   S    
C127  H68   S    
N1    C17   A    
C116  H23   S    
N7    C23   A    
C94   N22   S    
C55   N15   S    
C90   N18   S    
C20   C28   A    
C27   C35   A    
C21   C29   A    
C86   C94   A    
C26   C34   A    
C68   C76   A    
N16   H37   S    
O11   V2    S    
C69   C109  A    
C64   Br8   S    
C51   N11   S    
C55   C63   A    
C119  H36   S    
C127  H66   S    
C16   C48   A    
C65   C73   A    
C126  H63   S    
N4    C107  S    
C49   N9    S    
C4    C85   S    
C54   C62   A    
N21   H57   S    
N8    C24   A    
C71   Br15  S    
C54   N14   S    
C24   O36   S    
C117  H28   S    
C89   N17   S    
N3    C108  S    
C114  H16   S    
C70   Br14  S    
C95   C103  A    
C123  H52   S    
N5    C21   A    
N14   H29   S    
O16   C8    A    
O7    V2    S    
N23   H65   S    
C59   Br3   S    
O4    V3    S    
C118  H31   S    
C72   Br16  S    
C116  H22   S    
C53   C61   A    
C1    C88   S    
C19   O31   S    
C11   O23   S    
C8    C81   S    
C74   Br18  S    
C39   C47   A    
C104  C112  A    
C76   C84   A    
C68   C108  A    
O8    C5    A    
C19   C27   A    
O5    V1    S    
N18   C122  S    
O17   V1    S    
C113  H12   S    
C122  H47   S    
C67   C75   A    
O19   V3    S    
C119  H34   S    
C100  C108  A    
O20   V4    S    
C77   Br21  S    
C101  C109  A    
C26   C50   A    
C96   C104  A    
N11   C115  S    
C73   C81   A    
C124  H55   S    
C128  H71   S    
C17   O29   S    
C14   C46   A    
C121  H43   S    
N11   H17   S    
C15   N7    A    
C75   C83   A    
C56   N16   S    
C63   Br7   S    
C35   C36   A    
C7    C82   S    
C23   C31   A    
C56   C64   A    
O16   V3    S    
C103  H7    S    
C116  H24   S    
C115  H18   S    
C5    C84   S    
C67   Br11  S    
C128  H70   S    
C66   Br10  S    
C113  H11   S    
C100  H4    S    
O10   V2    S    
N12   H21   S    
N19   C123  S    
N10   H13   S    
C98   H2    S    
C120  H38   S    
N2    C18   A    
N18   H45   S    
C121  H44   S    
O11   C3    A    
N6    C22   A    
C96   N24   S    
N13   C117  S    
C126  H62   S    
C18   C26   A    
O13   C5    A    
C2    C87   S    
C12   O24   S    
C36   C44   A    
O9    C1    A    
C48   C63   A    
O2    V4    S    
N21   C125  S    
C70   C110  A    
C12   C44   A    
C29   C53   A    
C43   C60   A    
C10   C42   A    
C75   Br19  S    
O4    C1    A    
C91   C99   A    
C9    C41   A    
O6    V2    S    
C80   C88   A    
C31   C39   A    
C33   C34   A    
N6    C109  S    
C73   Br17  S    
N23   C127  S    
C33   C41   A    
O14   C6    A    
C118  H32   S    
C25   C49   A    
C12   N4    A    
C23   O35   S    
C35   C43   A    
C28   C52   A    
N22   C126  S    
C13   N5    A    
C123  H50   S    
C78   Br22  S    
C71   C111  A    
C99   H3    S    
C72   C112  A    
C18   O30   S    
N5    C110  S    
C120  H40   S    
C29   C37   A    
C16   N8    A    
C52   N12   S    
O1    C4    A    
C65   C105  A    
C102  H6    S    
C93   N21   S    
C31   C55   A    
O2    C3    A    
O13   V3    S    
C11   C43   A    
C25   C33   A    
N20   C124  S    
N4    C20   A    
C124  H56   S    
C61   Br5   S    
C125  H58   S    
C72   C80   A    
C15   O27   S    
O9    V1    S    
C84   C92   A    
O7    C6    A    
C70   C78   A    
O3    V4    S    
C85   C93   A    
C50   C58   A    
C90   C98   A    
C28   C36   A    
C9    N1    A    
O15   C7    A    
C94   C102  A    
O20   V2    S    
C16   O28   S    
C120  H39   S    
C97   H1    S    
C39   C40   A    
C88   C96   A    
C80   Br24  S    
C99   C107  A    
C14   N6    A    
C13   O25   S    
N7    C112  S    
C125  H59   S    
C53   N13   S    
C24   C32   A    
C124  H54   S    
O5    C8    A    
C13   C45   A    
O10   C2    A    
C103  C111  A    
O6    C7    A    
C51   C59   A    
C66   C74   A    
C69   Br13  S    
C87   C95   A    
C10   O22   S    
C114  H15   S    
C9    O21   S    
C32   C40   A    
C67   C107  A    
C37   C38   A    
C79   C87   A    
N14   C118  S    
C58   Br2   S    
C40   C48   A    
C83   C91   A    
C114  H14   S    
C44   C59   A    
C57   Br1   S    
C117  H26   S    
C76   Br20  S    
C127  H67   S    
C47   C64   A    
C81   C89   A    
C50   N10   S    
C78   C86   A    
C14   O26   S    
N13   H25   S    
N24   H69   S    
C62   Br6   S    
C22   C30   A    
C20   O32   S    
C21   O33   S    
C30   C54   A    
C52   C60   A    
N17   C121  S    
C32   C56   A    
N1    C106  S    
N15   C119  S    
C69   C77   A    
N12   C116  S    
C74   C82   A    
N22   H61   S    
C15   C47   A    
N24   C128  S    
C117  H27   S    
O18   V2    S    
C34   C42   A    
