data_mof_unit_19930.cif
_audit_creation_date              2012-12-10T18:16:16-0500
_audit_creation_method            fapswitch 2.2
_symmetry_space_group_name_H-M    P1
_symmetry_Int_Tables_number       1
_space_group_crystal_system       triclinic
_cell_length_a                    12.588265
_cell_length_b                    13.11889
_cell_length_c                    26.439214
_cell_angle_alpha                 90.603427
_cell_angle_beta                  100.665023
_cell_angle_gamma                 82.390504
_cell_volume                      4252.63123678

loop_
_atom_site_label
_atom_site_type_symbol
_atom_type_description
_atom_site_fract_x
_atom_site_fract_y
_atom_site_fract_z
_atom_type_partial_charge
C1    C     C_R   0.439433 0.690668 0.490156 0.868700
C2    C     C_R   0.427197 0.771268 0.027884 -0.027532
C3    C     C_R   0.274668 0.669598 0.012869 0.047384
C4    C     C_R   0.498691 0.502900 0.594539 0.856543
C5    C     C_R   0.353503 0.716941 0.046830 0.010315
C6    C     C_R   0.483616 0.838797 0.062051 0.148278
C7    C     C_R   0.507773 0.814597 0.115432 0.194355
C8    C     C_R   0.442228 0.749397 0.134991 -0.104818
C9    C     C_R   0.360258 0.707674 0.100239 -0.087526
C10   C     C_R   0.285640 0.654881 0.119257 -0.031512
C11   C     C_R   0.307682 0.626990 0.171488 0.534727
C12   C     C_R   0.388642 0.622353 0.706488 -0.108816
C13   C     C_R   0.450562 0.724252 0.187558 0.514263
C14   C     C_R   0.554883 0.596658 0.279848 0.216917
C15   C     C_R   0.566701 0.574096 0.332432 -0.220913
C16   C     C_R   0.561343 0.307825 0.506842 0.858014
C17   C     C_R   0.421673 0.468729 0.314006 -0.209130
C18   C     C_R   0.411046 0.490264 0.261375 0.222009
C19   C     C_R   0.457531 0.575967 0.246462 0.122571
C20   C     C_R   0.445823 0.751478 0.977080 -0.006168
C21   C     C_R   0.380719 0.688286 0.944763 0.081198
C22   C     C_R   0.294759 0.647053 0.962565 0.046735
C23   C     C_R   0.465883 0.579032 0.748150 0.328645
C24   C     C_R   0.538135 0.780110 0.960963 -0.226969
C25   C     C_R   0.264824 0.547713 0.884286 -0.150422
C26   C     C_R   0.182192 0.644748 0.032401 0.144249
C27   C     C_R   0.192495 0.631656 0.085819 -0.217173
C28   C     C_R   0.499738 0.501606 0.405200 0.871826
C29   C     C_R   0.243121 0.572239 0.932670 -0.222826
C30   C     C_R   0.726586 0.045616 0.497140 -0.214453
C31   C     C_R   0.597461 0.195995 0.506678 -0.128517
C32   C     C_R   0.291704 0.837921 0.475786 -0.187904
C33   C     C_R   0.256386 0.943668 0.469463 0.237112
C34   C     C_R   0.406091 0.660285 0.895853 -0.073017
C35   C     C_R   0.334534 0.009981 0.468654 -0.279224
C36   C     C_R   0.446131 0.971444 0.471131 0.076878
C37   C     C_R   0.474714 0.865138 0.466293 0.085418
C38   C     C_R   0.531599 0.033397 0.480764 0.094659
C39   C     C_R   0.640088 0.989989 0.479535 0.120633
C40   C     C_R   0.512842 0.667762 0.828261 0.492464
C41   C     C_R   0.661071 0.889741 0.462759 -0.250318
C42   C     C_R   0.578029 0.828630 0.454562 -0.168784
C43   C     C_R   0.513158 0.135125 0.495326 -0.293022
C44   C     C_R   0.707469 0.147940 0.512743 0.172512
C45   C     C_R   0.494138 0.697608 0.878181 -0.092505
C46   C     C_R   0.401055 0.798699 0.475768 -0.173814
C47   C     C_R   0.087329 0.372755 0.413628 0.081785
C48   C     C_R   0.796456 0.635770 0.556634 0.004052
C49   C     C_R   0.896307 0.674961 0.562143 0.140502
C50   C     C_R   0.976867 0.623168 0.537778 -0.309972
C51   C     C_R   0.957216 0.535612 0.507865 0.004839
C52   C     C_R   0.368273 0.564265 0.817020 0.500257
C53   C     C_R   0.851812 0.508318 0.498538 0.221124
C54   C     C_R   0.037892 0.478019 0.484764 -0.055706
C55   C     C_R   0.006983 0.416782 0.441403 0.132142
C56   C     C_R   0.561090 0.759699 0.911555 0.170248
C57   C     C_R   0.898378 0.397628 0.429381 -0.299171
C58   C     C_R   0.824585 0.436354 0.460336 -0.197634
C59   C     C_R   0.149079 0.473078 0.505504 0.210273
C60   C     C_R   0.193943 0.394790 0.429618 -0.081463
C61   C     C_R   0.556416 0.510944 0.739538 -0.093661
C62   C     C_R   0.568275 0.485150 0.689223 -0.233931
C63   C     C_R   0.400345 0.596704 0.656577 -0.220342
C64   C     C_3   0.067576 0.648853 0.000323 -0.411526
C65   C     C_3   0.034689 0.745435 0.966212 -0.832531
C66   C     C_3   0.367507 0.411448 0.223299 -0.358718
C67   C     C_R   0.344998 0.591619 0.865303 -0.007977
C68   C     C_3   0.437187 0.306323 0.232678 -0.916787
C69   C     C_3   0.805593 0.195617 0.540072 -0.399190
C70   C     C_3   0.890994 0.198833 0.506111 -0.872649
C71   C     C_3   0.138390 0.990650 0.466378 -0.409064
C72   C     C_3   0.056225 0.913852 0.464448 -0.906170
C73   C     C_3   0.063997 0.303940 0.367664 -0.438071
C74   C     C_3   0.010483 0.366491 0.319234 -0.837066
C75   C     C_3   0.186420 0.472100 0.563385 -0.376438
C76   C     C_3   0.244074 0.365835 0.582992 -0.784008
C77   C     C_3   0.658296 0.801405 0.895576 -0.303675
C78   C     C_R   0.488781 0.526468 0.647660 -0.028115
C79   C     C_3   0.722193 0.869327 0.934181 -0.977417
C80   C     C_3   0.920758 0.770872 0.592182 -0.422631
C81   C     C_3   0.824632 0.829961 0.612556 -0.873977
C82   C     C_3   0.652597 0.627916 0.260534 -0.358654
C83   C     C_3   0.754389 0.549531 0.276167 -0.935009
C84   C     C_3   0.612455 0.846490 0.146830 -0.388163
C85   C     C_3   0.712661 0.790109 0.128644 -0.917126
C86   C     C_3   0.500285 0.944171 0.043419 -0.444960
C87   C     C_3   0.429678 0.030291 0.066012 -0.846198
C88   C     C_R   0.495176 0.515711 0.349943 -0.128540
H1    H     H_    0.221518 0.490334 0.862697 0.190058
H2    H     H_    0.341775 0.634016 0.624887 0.127411
H3    H     H_    0.616635 0.477551 0.771732 0.137297
H4    H     H_    0.042833 0.815385 0.989908 0.260809
H5    H     H_    0.085452 0.745406 0.936141 0.267961
H6    H     H_    0.948422 0.748043 0.946605 0.250633
H7    H     H_    0.055342 0.579197 0.977387 0.193777
H8    H     H_    0.006962 0.651207 0.026200 0.204613
H9    H     H_    0.376993 0.411634 0.326634 0.151987
H10   H     H_    0.523710 0.313294 0.231480 0.265960
H11   H     H_    0.432074 0.273302 0.270510 0.263443
H12   H     H_    0.127754 0.603202 0.101179 0.180832
H13   H     H_    0.407329 0.252557 0.202220 0.261362
H14   H     H_    0.282237 0.403457 0.226579 0.240085
H15   H     H_    0.369142 0.434049 0.183184 0.214195
H16   H     H_    0.192302 0.525165 0.947597 0.150318
H17   H     H_    0.940611 0.122449 0.505958 0.248370
H18   H     H_    0.851064 0.219961 0.465956 0.266860
H19   H     H_    0.946912 0.255296 0.521366 0.260024
H20   H     H_    0.784576 0.272914 0.555105 0.232644
H21   H     H_    0.843861 0.147720 0.574754 0.198050
H22   H     H_    0.305293 0.091179 0.465185 0.128378
H23   H     H_    0.742417 0.857231 0.458094 0.155961
H24   H     H_    0.060979 0.860797 0.431685 0.272093
H25   H     H_    0.071260 0.869299 0.501146 0.247853
H26   H     H_    0.972395 0.956066 0.458831 0.247503
H27   H     H_    0.132908 0.041027 0.500108 0.202288
H28   H     H_    0.113520 0.040064 0.431155 0.207514
H29   H     H_    0.596725 0.751832 0.440554 0.176023
H30   H     H_    0.870839 0.347523 0.398382 0.167692
H31   H     H_    0.931165 0.408888 0.324216 0.264243
H32   H     H_    0.064264 0.422170 0.310661 0.268193
H33   H     H_    0.996142 0.314189 0.286095 0.250374
H34   H     H_    0.809486 0.007642 0.500458 0.149073
H35   H     H_    0.141079 0.259612 0.360219 0.202576
H36   H     H_    0.012397 0.245721 0.375496 0.203849
H37   H     H_    0.183664 0.310398 0.579587 0.227023
H38   H     H_    0.307604 0.335395 0.560755 0.279963
H39   H     H_    0.282604 0.370477 0.624134 0.253723
H40   H     H_    0.235776 0.534651 0.574361 0.214757
H41   H     H_    0.117789 0.486866 0.584453 0.199434
H42   H     H_    0.667434 0.936880 0.944343 0.268901
H43   H     H_    0.763419 0.824427 0.969377 0.262676
H44   H     H_    0.786183 0.898209 0.916542 0.268066
H45   H     H_    0.319560 0.676145 0.712927 0.132179
H46   H     H_    0.717401 0.735555 0.887233 0.238372
H47   H     H_    0.627802 0.849484 0.860227 0.249858
H48   H     H_    0.054258 0.652809 0.541352 0.144513
H49   H     H_    0.755531 0.853245 0.580392 0.265679
H50   H     H_    0.798004 0.782353 0.641157 0.263972
H51   H     H_    0.850148 0.900661 0.631899 0.255328
H52   H     H_    0.988527 0.749087 0.625161 0.215608
H53   H     H_    0.949191 0.824203 0.566717 0.206900
H54   H     H_    0.747222 0.408706 0.453362 0.219842
H55   H     H_    0.632921 0.600510 0.359388 0.167259
H56   H     H_    0.432111 0.168485 0.498629 0.171724
H57   H     H_    0.782926 0.548927 0.318495 0.264888
H58   H     H_    0.737073 0.471355 0.263606 0.267545
H59   H     H_    0.821006 0.570358 0.257633 0.268024
H60   H     H_    0.638036 0.632162 0.217936 0.210969
H61   H     H_    0.670217 0.703987 0.276303 0.240314
H62   H     H_    0.714975 0.705677 0.133123 0.264031
H63   H     H_    0.711974 0.808557 0.087707 0.256655
H64   H     H_    0.787849 0.813468 0.152246 0.265008
H65   H     H_    0.612795 0.930626 0.143734 0.214282
H66   H     H_    0.624763 0.829286 0.188224 0.256756
H67   H     H_    0.235245 0.785747 0.481565 0.171407
H68   H     H_    0.342158 0.020534 0.054606 0.264539
H69   H     H_    0.451110 0.030884 0.108618 0.257822
H70   H     H_    0.441872 0.105781 0.050993 0.248963
H71   H     H_    0.587346 0.955957 0.053219 0.211293
H72   H     H_    0.474783 0.952965 0.001058 0.222581
H73   H     H_    0.596275 0.814551 0.988502 0.167089
H74   H     H_    0.638084 0.432382 0.682732 0.143823
H75   H     H_    0.256153 0.368644 0.407421 0.150556
H76   H     H_    0.731316 0.671871 0.574804 0.161944
N1    N     N_R   0.449845 0.603221 0.799404 -0.347174
N2    N     N_R   0.407013 0.640038 0.200705 -0.326701
N3    N     N_R   0.222180 0.444690 0.474320 -0.116230
N4    N     N_R   0.776980 0.554780 0.525420 -0.155821
O1    O     O_R   0.366730 0.627160 0.487740 -0.609464
O2    O     O_R   0.410930 0.482330 0.420550 -0.605861
O3    O     O_R   0.589030 0.517690 0.436960 -0.639742
O4    O     O_2   0.591976 0.702683 0.807974 -0.597266
O5    O     O_2   0.488729 0.788149 0.224629 -0.595621
O6    O     O_2   0.309809 0.498810 0.787627 -0.571043
O7    O     O_2   0.230465 0.590611 0.192647 -0.591382
O8    O     O_R   0.544830 0.662520 0.504140 -0.618399
O9    O     O_R   0.410970 0.482310 0.563040 -0.606653
O10   O     O_R   0.589070 0.517670 0.579450 -0.604429
O11   O     O_R   0.455170 0.337480 0.495860 -0.617897
O12   O     O_R   0.633270 0.372840 0.512260 -0.628497
Zn1   Zn    Zn3+2 0.381080 0.476390 0.489050 0.924293
Zn2   Zn    Zn3+2 0.618920 0.523610 0.510950 0.913599

loop_
_geom_bond_atom_site_label_1
_geom_bond_atom_site_label_2
_ccdc_geom_bond_type
C10   C27   A    
C65   H4    S    
C66   C68   S    
C72   H24   S    
C1    O8    A    
C8    C13   A    
C22   C29   A    
C52   O6    S    
C17   C88   A    
C76   H38   S    
C73   C74   S    
C66   H14   S    
O3    Zn2   S    
C35   C36   A    
C25   C67   A    
C4    O9    A    
C13   N2    A    
C7    C8    A    
C39   C41   A    
C62   H74   S    
C16   C31   S    
C81   H49   S    
C74   H31   S    
C12   C23   A    
C26   C27   A    
C31   C43   A    
C36   C37   A    
C18   C19   A    
C70   H19   S    
C38   C39   A    
C1    C46   S    
C83   H58   S    
C72   H26   S    
C60   H75   S    
C75   H40   S    
C41   C42   A    
C37   C42   A    
C26   C64   S    
C85   H62   S    
C28   O3    A    
C47   C60   A    
C83   H57   S    
C84   H66   S    
C20   C24   A    
C45   C56   A    
C8    C9    A    
C73   H35   S    
C24   H73   S    
C28   C88   S    
C11   N2    A    
C19   N2    S    
C9    C10   A    
C16   O11   A    
C69   C70   S    
C65   H5    S    
C7    C84   S    
C23   N1    S    
C21   C22   A    
C76   H37   S    
C30   C44   A    
C43   H56   S    
C2    C6    A    
C69   H21   S    
C14   C19   A    
C81   H50   S    
C69   H20   S    
O12   Zn2   S    
C50   C51   A    
C54   C59   A    
C77   C79   S    
C25   C29   A    
C40   C45   A    
C27   H12   S    
C60   N3    A    
C31   C44   A    
C2    C20   A    
C30   H34   S    
C68   H13   S    
C47   C73   S    
C70   H18   S    
C12   C63   A    
C86   C87   S    
C21   C34   A    
C80   H52   S    
C79   H42   S    
C75   H41   S    
C72   H25   S    
C82   C83   S    
C56   C77   S    
C87   H69   S    
C29   H16   S    
C51   C53   A    
C13   O5    S    
C75   C76   S    
C85   H63   S    
C4    C78   S    
C52   N1    A    
C32   H67   S    
C84   H65   S    
C58   H54   S    
C53   N4    A    
C48   N4    A    
C73   H36   S    
C79   H43   S    
C17   C18   A    
C71   H27   S    
C44   C69   S    
C34   C45   A    
C84   C85   S    
C11   O7    S    
C35   H22   S    
O1    Zn1   S    
C40   N1    A    
O10   Zn2   S    
C52   C67   A    
C15   H55   S    
C28   O2    A    
C48   C49   A    
C80   H53   S    
N4    Zn2   S    
C12   H45   S    
C55   C57   A    
O2    Zn1   S    
C83   H59   S    
C2    C5    A    
C18   C66   S    
C77   H46   S    
C14   C82   S    
C59   C75   S    
C40   O4    S    
C59   N3    A    
C47   C55   A    
C86   H71   S    
C81   H51   S    
C54   C55   A    
C65   H6    S    
O8    Zn2   S    
C14   C15   A    
C32   C46   A    
C66   H15   S    
C62   C78   A    
C3    C26   A    
C64   H7    S    
C4    O10   A    
C80   C81   S    
C3    C5    A    
C70   H17   S    
C34   C67   A    
C82   H60   S    
C53   C58   A    
C87   H70   S    
C42   H29   S    
C6    C7    A    
C48   H76   S    
C24   C56   A    
C74   H32   S    
C25   H1    S    
C6    C86   S    
C49   C80   S    
C51   C54   A    
C64   C65   S    
C36   C38   A    
C85   H64   S    
C38   C43   A    
C50   H48   S    
C32   C33   A    
C57   C58   A    
N3    Zn1   S    
C86   H72   S    
O9    Zn1   S    
C79   H44   S    
C63   H2    S    
C1    O1    A    
C33   C35   A    
C30   C39   A    
C64   H8    S    
C61   C62   A    
C68   H10   S    
C71   H28   S    
C82   H61   S    
C10   C11   A    
C33   C71   S    
C16   O12   A    
C23   C61   A    
C74   H33   S    
C71   C72   S    
C20   C21   A    
C49   C50   A    
C41   H23   S    
C76   H39   S    
C87   H68   S    
C15   C88   A    
C3    C22   A    
C5    C9    A    
C77   H47   S    
C37   C46   A    
C17   H9    S    
C61   H3    S    
C57   H30   S    
O11   Zn1   S    
C63   C78   A    
C68   H11   S    
