data_mof_unit_46679.cif
_audit_creation_date              2012-12-10T17:18:17-0500
_audit_creation_method            fapswitch 2.2
_symmetry_space_group_name_H-M    P1
_symmetry_Int_Tables_number       1
_space_group_crystal_system       triclinic
_cell_length_a                    10.210658
_cell_length_b                    10.461361
_cell_length_c                    14.919244
_cell_angle_alpha                 91.531994
_cell_angle_beta                  82.804834
_cell_angle_gamma                 95.328713
_cell_volume                      1574.06809547

loop_
_atom_site_label
_atom_site_type_symbol
_atom_type_description
_atom_site_fract_x
_atom_site_fract_y
_atom_site_fract_z
_atom_type_partial_charge
C1    C     C_R   0.555260 0.734965 0.498103 0.941057
C2    C     C_R   0.445528 0.265033 0.509774 1.018703
C3    C     C_R   0.698276 0.674797 0.941786 -0.089866
C4    C     C_R   0.446036 0.259066 0.046423 -0.143646
C5    C     C_2   0.584355 0.873381 0.510414 -0.219824
C6    C     C_2   0.421140 0.127447 0.529046 -0.243637
C7    C     C_2   0.511513 0.935435 0.578227 0.019145
C8    C     C_2   0.507886 0.074379 0.576110 -0.006067
C9    C     C_2   0.920942 0.464683 0.526451 0.065358
C10   C     C_2   0.069857 0.466745 0.505298 -0.097004
C11   C     C_R   0.502754 0.502169 0.672714 0.889870
C12   C     C_R   0.498710 0.500294 0.327288 0.936925
C13   C     C_R   0.449921 0.387552 0.187662 -0.071613
C14   C     C_R   0.594571 0.595005 0.807139 -0.038162
C15   C     C_R   0.499007 0.498967 0.230889 -0.139958
C16   C     C_R   0.511887 0.499660 0.768111 -0.148596
C17   C     C_R   0.567746 0.602926 0.182897 0.002111
C18   C     C_R   0.451544 0.392496 0.816573 0.028084
C19   C     C_R   0.592168 0.595550 0.087870 0.068076
C20   C     C_R   0.477038 0.377048 0.905766 0.115288
C21   C     C_R   0.540140 0.483243 0.043437 0.019637
C22   C     C_R   0.545794 0.480428 0.948887 0.001470
C23   C     C_R   0.477201 0.375811 0.093168 0.040920
C24   C     C_R   0.614918 0.583606 0.898239 -0.007807
C25   C     C_R   0.674329 0.691225 0.035781 -0.069274
C26   C     C_R   0.436705 0.261802 0.953490 -0.070133
N1    N     N_2   0.842700 0.448880 0.462930 -0.205458
N2    N     N_2   0.157300 0.551120 0.537070 -0.204790
O1    O     O_R   0.431060 0.692470 0.507460 -0.668390
O2    O     O_R   0.568940 0.307530 0.492540 -0.614511
O3    O     O_R   0.651120 0.659650 0.483670 -0.502860
O4    O     O_R   0.348880 0.340350 0.516330 -0.615313
O5    O     O_R   0.389960 0.516440 0.644050 -0.661833
O6    O     O_R   0.610040 0.483560 0.355950 -0.578266
O7    O     O_R   0.610030 0.483620 0.620260 -0.586458
O8    O     O_R   0.389970 0.516380 0.379740 -0.654475
Zn1   Zn    Zn3+2 0.353060 0.521920 0.515880 0.927192
Zn2   Zn    Zn3+2 0.646940 0.478080 0.484120 1.056568
C27   C     C_2   0.360788 0.289262 0.240851 0.447346
H1    H     H_    0.268245 0.252131 0.217278 0.061866
O9    O     O_2   0.393719 0.244296 0.308279 -0.529564
C28   C     C_2   0.637935 0.717124 0.758461 0.363203
H2    H     H_    0.621120 0.808142 0.792544 0.090921
O10   O     O_2   0.697442 0.717633 0.682263 -0.502015
N3    N     N_3   0.610271 0.716321 0.231835 -0.440298
H3    H     H_    0.680773 0.694123 0.272547 0.285689
H4    H     H_    0.528720 0.749137 0.272463 0.191470
N4    N     N_3   0.356298 0.304860 0.777736 -0.435576
H5    H     H_    0.277395 0.355127 0.764145 0.209758
H6    H     H_    0.400610 0.266836 0.717273 0.205657
C29   C     C_2   0.736977 0.808969 0.076679 0.475359
H7    H     H_    0.675137 0.879111 0.110252 0.128048
O11   O     O_2   0.857523 0.828769 0.072380 -0.531139
C30   C     C_2   0.399327 0.139499 0.906548 0.426946
H8    H     H_    0.304424 0.086056 0.927231 0.061171
O12   O     O_2   0.477546 0.095177 0.847634 -0.579542
C31   C     C_2   0.816293 0.748542 0.893019 0.199026
H9    H     H_    0.875145 0.707094 0.835745 -0.030740
O13   O     O_2   0.882475 0.701951 0.828628 0.012865
C32   C     C_2   0.441518 0.131844 0.089967 0.415019
H10   H     H_    0.370494 0.053816 0.074238 0.050529
O14   O     O_2   0.521866 0.111835 0.140823 -0.521567
N5    N     N_3   0.602635 0.152765 0.622004 -0.442695
H11   H     H_    0.590217 0.126470 0.689304 0.262199
H12   H     H_    0.697488 0.131984 0.595109 0.191963
N6    N     N_3   0.429757 0.871020 0.652280 -0.402137
H13   H     H_    0.331548 0.864927 0.638423 0.175797
H14   H     H_    0.455226 0.778084 0.660501 0.199100
C33   C     C_2   0.313811 0.047796 0.489153 0.461025
H15   H     H_    0.294940 0.946097 0.502314 0.075570
O15   O     O_2   0.245546 0.094592 0.439520 -0.463874
C34   C     C_2   0.683127 0.943693 0.442968 0.453423
H16   H     H_    0.702785 0.046685 0.446846 0.104743
O16   O     O_2   0.744091 0.886621 0.381478 -0.510712
C35   C     C_2   0.114202 0.356784 0.449188 0.428601
H17   H     H_    0.205099 0.365322 0.404266 0.161279
O17   O     O_2   0.044450 0.255372 0.449751 -0.547006
C36   C     C_2   0.865891 0.435966 0.620174 0.545227
H18   H     H_    0.798946 0.350259 0.635001 0.057637
O18   O     O_2   0.892496 0.509537 0.681651 -0.553631
C37   C     C_2   0.117001 0.661804 0.586592 0.656309
H19   H     H_    0.170751 0.698671 0.641055 0.013601
O19   O     O_2   0.026910 0.719236 0.566171 -0.525060
C38   C     C_2   0.898807 0.486893 0.374363 0.634374
H20   H     H_    0.966351 0.428971 0.333415 -0.004927
O20   O     O_2   0.870517 0.585877 0.343406 -0.517701

loop_
_geom_bond_atom_site_label_1
_geom_bond_atom_site_label_2
_ccdc_geom_bond_type
C6    C33   S    
N6    H14   S    
N5    H12   S    
C37   H19   S    
C7    C8    S    
C27   O9    D    
N3    H3    S    
C13   C23   A    
C1    C5    S    
C22   C24   A    
C2    O4    A    
N1    C38   S    
C19   C21   A    
C38   O20   D    
C5    C34   S    
C36   O18   D    
C31   O13   D    
N1    Zn2   S    
C1    O3    A    
O2    Zn2   S    
C32   O14   D    
C10   C35   S    
C14   C24   A    
C33   O15   D    
C12   O8    A    
C9    C10   S    
C14   C28   S    
N4    H6    S    
N6    H13   S    
C21   C22   A    
C3    C24   A    
C2    C6    S    
C28   O10   D    
C26   C30   S    
C37   O19   D    
N3    H4    S    
C30   O12   D    
C29   H7    S    
C11   O5    A    
O7    Zn2   S    
C38   H20   S    
C34   O16   D    
C27   H1    S    
C5    C7    D    
C4    C23   A    
C36   H18   S    
C6    C8    D    
O5    Zn1   S    
C32   H10   S    
C29   O11   D    
C35   H17   S    
C25   C29   S    
C11   C16   S    
C12   C15   S    
C3    C25   A    
C4    C32   S    
C1    O1    A    
O4    Zn1   S    
C35   O17   D    
C3    C31   S    
N4    H5    S    
C20   C22   A    
C13   C15   A    
C14   C16   A    
C28   H2    S    
C12   O6    A    
C9    N1    D    
C10   N2    D    
C15   C17   A    
C30   H8    S    
O8    Zn1   S    
N2    C37   S    
O6    Zn2   S    
C17   N3    S    
C34   H16   S    
C18   N4    S    
C4    C26   A    
O3    Zn2   S    
C2    O2    A    
C21   C23   A    
C7    N6    S    
C31   H9    S    
C20   C26   A    
N2    Zn1   S    
C11   O7    A    
C17   C19   A    
C18   C20   A    
C9    C36   S    
C33   H15   S    
C19   C25   A    
C13   C27   S    
C8    N5    S    
N5    H11   S    
C16   C18   A    
O1    Zn1   S    
