data_mof_unit_29638.cif
_audit_creation_date              2013-03-05T15:42:41-0500
_audit_creation_method            fapswitch 2.2
_symmetry_space_group_name_H-M    P1
_symmetry_Int_Tables_number       1
_space_group_crystal_system       triclinic
_cell_length_a                    7.813925
_cell_length_b                    8.535387
_cell_length_c                    27.7306
_cell_angle_alpha                 92.717041
_cell_angle_beta                  84.360461
_cell_angle_gamma                 94.036501
_cell_volume                      1834.44382448

loop_
_atom_site_label
_atom_site_type_symbol
_atom_site_description
_atom_site_fract_x
_atom_site_fract_y
_atom_site_fract_z
_atom_type_partial_charge
O1    O     O_R   0.389250 0.738570 0.503220 -0.602264
O2    O     O_R   0.610750 0.261430 0.496780 -0.602357
O3    O     O_R   0.678390 0.711630 0.494810 -0.581355
O4    O     O_R   0.321610 0.288370 0.505190 -0.581426
C1    C     C_R   0.545817 0.794645 0.498797 0.947372
C2    C     C_R   0.454183 0.205355 0.501203 0.947256
O5    O     O_R   0.355440 0.513440 0.575450 -0.602376
O6    O     O_R   0.644560 0.486560 0.424550 -0.602359
O7    O     O_R   0.644590 0.486500 0.567040 -0.560142
O8    O     O_R   0.355410 0.513500 0.432960 -0.559929
C3    C     C_R   0.499677 0.498598 0.594092 0.908709
C4    C     C_R   0.500314 0.501398 0.405908 0.908773
Zn1   Zn    Zn3+2 0.306940 0.517990 0.505620 1.152688
Zn2   Zn    Zn3+2 0.693060 0.482010 0.494380 1.152634
C5    C     C_R   0.490651 0.631292 0.824079 0.612950
C6    C     C_R   0.508966 0.367556 0.175913 0.613035
O9    O     O_2   0.529188 0.763098 0.799027 -0.459222
O10   O     O_2   0.470423 0.235764 0.200971 -0.459023
N1    N     N_R   0.447802 0.493024 0.800261 -0.351905
N2    N     N_R   0.551907 0.505814 0.199723 -0.352010
C7    C     C_R   0.397861 0.358887 0.824212 0.634945
C8    C     C_R   0.601821 0.639945 0.175766 0.634748
C9    C     C_R   0.317364 0.479737 0.724090 -0.065323
C10   C     C_R   0.682469 0.519253 0.275879 -0.065242
C11   C     C_R   0.331646 0.482289 0.674017 -0.158906
C12   C     C_R   0.668243 0.517156 0.325959 -0.158956
C13   C     C_R   0.645084 0.496817 0.672044 0.217703
C14   C     C_R   0.354793 0.502887 0.327963 0.217653
C15   C     C_R   0.629540 0.494163 0.722915 0.287750
C16   C     C_R   0.370293 0.505044 0.277085 0.287882
C17   C     C_R   0.464961 0.487034 0.748541 0.112966
C18   C     C_R   0.534834 0.511849 0.251442 0.112931
C19   C     C_R   0.456744 0.497594 0.899849 -0.102025
C20   C     C_R   0.542799 0.501245 0.100140 -0.102067
C21   C     C_R   0.498199 0.635874 0.874119 -0.015433
C22   C     C_R   0.501340 0.362974 0.125874 -0.015541
C23   C     C_R   0.548618 0.775416 0.898527 -0.042937
C24   C     C_R   0.450843 0.223443 0.101472 -0.042907
C25   C     C_R   0.397498 0.358280 0.875062 -0.123404
C26   C     C_R   0.602102 0.640553 0.124920 -0.123412
C27   C     C_R   0.494354 0.492262 0.647258 -0.223849
C28   C     C_R   0.505566 0.507509 0.352738 -0.223793
H1    H     H_    0.576909 0.883756 0.879585 0.219714
H2    H     H_    0.422537 0.115111 0.120417 0.219701
C29   C     C_R   0.564541 0.639067 0.024067 -0.007723
C30   C     C_R   0.434951 0.359770 0.975923 -0.007715
C31   C     C_R   0.462533 0.358919 0.025700 0.081958
C32   C     C_R   0.536929 0.639926 0.974294 0.081975
C33   C     C_R   0.523459 0.499787 0.049771 0.087453
C34   C     C_R   0.476036 0.499053 0.950221 0.087439
C35   C     C_R   0.637408 0.772193 0.048748 -0.274823
C36   C     C_R   0.362128 0.226636 0.951235 -0.274809
C37   C     C_R   0.656239 0.774388 0.098047 0.437489
C38   C     C_R   0.343344 0.224444 0.901933 0.437443
O11   O     O_2   0.644674 0.772118 0.201631 -0.422716
O12   O     O_2   0.355069 0.226713 0.798340 -0.422749
C39   C     C_R   0.565302 0.778297 0.947724 -0.204831
C40   C     C_R   0.434113 0.220561 0.052277 -0.204804
H3    H     H_    0.786012 0.523012 0.343674 0.253374
H4    H     H_    0.213893 0.476551 0.656294 0.253325
H5    H     H_    0.808619 0.525243 0.255823 0.229967
H6    H     H_    0.191199 0.473547 0.744134 0.230016
H7    H     H_    0.685328 0.877262 0.030560 0.177333
H8    H     H_    0.314222 0.121555 0.969418 0.177312
H9    H     H_    0.599428 0.892180 0.963698 0.146918
H10   H     H_    0.399913 0.106687 0.036309 0.146930
C41   C     C_2   0.569832 0.958421 0.498082 -0.312176
C42   C     C_2   0.430168 0.041579 0.501918 -0.312146
H11   H     H_    0.701609 0.009917 0.494416 0.223979
H12   H     H_    0.298391 0.990084 0.505583 0.224011
N3    N     N_2   0.950320 0.457960 0.486880 0.151014
N4    N     N_2   0.049680 0.542040 0.513120 0.151055
N5    N     N_R   0.813062 0.500037 0.646263 0.232294
O13   O     O_R   0.872301 0.370526 0.626854 -0.355806
O14   O     O_R   0.915846 0.626221 0.648559 -0.296078
N6    N     N_R   0.186838 0.500268 0.353756 0.232248
O15   O     O_R   0.128494 0.629909 0.373335 -0.355351
O16   O     O_R   0.083185 0.374730 0.351278 -0.296953
Cl1   Cl    Cl    0.028005 0.291925 0.457283 -0.399850
Cl2   Cl    Cl    0.972101 0.708237 0.542638 -0.399699
N7    N     N_R   0.780129 0.495956 0.748729 0.211188
O17   O     O_R   0.795409 0.386259 0.778742 -0.358276
O18   O     O_R   0.889925 0.617845 0.747435 -0.306135
N8    N     N_R   0.219698 0.503251 0.251282 0.211062
O19   O     O_R   0.110516 0.380928 0.252325 -0.305909
O20   O     O_R   0.204113 0.613313 0.221421 -0.358022
Cl3   Cl    Cl    0.756385 0.948305 0.122629 -0.500232
Cl4   Cl    Cl    0.243222 0.050533 0.877340 -0.500230

loop_
_geom_bond_atom_site_label_1
_geom_bond_atom_site_label_2
_geom_bond_distance
_ccdc_geom_bond_type
C38   Cl4   1.768045 S    
C10   H5    1.082340 S    
C13   C15   1.405084 A    
Zn2   N3    2.024405 S    
C1    C41   1.398096 S    
N1    C17   1.426097 S    
N3    Cl1   1.721450 S    
N7    O17   1.301059 A    
C32   C39   1.414376 A    
C31   C33   1.422553 A    
O5    C3    1.301683 A    
C19   C25   1.417146 A    
O1    C1    1.278468 A    
N1    C7    1.364737 A    
N6    O16   1.300248 A    
C25   C38   1.410651 A    
C29   C35   1.412634 A    
C30   C36   1.412649 A    
N5    O13   1.300992 A    
C14   C28   1.418279 A    
O4    Zn1   1.970690 S    
C4    C28   1.474254 S    
C24   C40   1.382104 A    
C40   H10   1.076143 S    
C9    H6    1.082317 S    
C11   H4    1.082024 S    
C12   H3    1.081984 S    
C6    N2    1.362011 A    
C2    C42   1.398095 S    
N5    O14   1.300330 A    
O2    C2    1.278469 A    
C5    C21   1.393265 A    
N7    O18   1.300592 A    
C36   C38   1.388421 A    
C41   C42   1.336108 D    
C35   H7    1.075794 S    
N8    O19   1.300533 A    
O4    C2    1.288724 A    
C36   H8    1.075791 S    
C39   H9    1.076150 S    
C19   C34   1.418987 A    
N4    Cl2   1.721418 S    
C35   C37   1.388385 A    
C9    C17   1.390441 A    
C23   H1    1.083670 S    
C5    N1    1.362020 A    
O7    Zn2   2.012333 S    
C10   C18   1.390457 A    
C24   H2    1.083671 S    
C13   C27   1.418196 A    
C7    C25   1.410060 A    
C29   C33   1.416336 A    
O6    C4    1.301735 A    
C8    C26   1.410020 A    
C37   Cl3   1.768055 S    
N6    O15   1.300941 A    
O7    C3    1.302987 A    
O3    Zn2   1.970690 S    
O8    C4    1.302938 A    
C42   H12   1.087998 S    
N2    C8    1.364735 A    
C15   N7    1.434994 S    
C20   C26   1.417151 A    
O1    Zn1   1.948275 S    
C11   C27   1.407000 A    
C14   N6    1.430857 S    
C12   C28   1.406982 A    
N2    C18   1.426083 S    
C29   C32   1.418226 A    
C5    O9    1.350644 S    
C30   C31   1.418273 A    
C20   C33   1.418990 A    
O6    Zn2   2.012043 S    
C21   C23   1.393497 A    
C10   C12   1.383125 A    
O3    C1    1.288724 A    
O8    Zn1   2.012333 S    
C7    O12   1.347810 S    
C8    O11   1.347818 S    
Zn1   N4    2.024405 S    
C30   C34   1.416341 A    
C22   C24   1.393507 A    
C14   C16   1.405035 A    
C15   C17   1.405699 A    
C6    C22   1.393308 A    
C31   C40   1.414385 A    
C16   C18   1.405631 A    
C32   C34   1.422538 A    
C19   C21   1.409837 A    
C3    C27   1.474261 S    
C20   C22   1.409846 A    
C9    C11   1.383142 A    
C16   N8    1.434884 S    
O2    Zn2   1.948275 S    
O5    Zn1   2.012043 S    
N3    N4    1.276859 D    
C6    O10   1.350637 S    
C26   C37   1.410648 A    
N8    O20   1.301029 A    
C41   H11   1.087999 S    
C13   N5    1.430760 S    
C23   C39   1.382068 A    
