data_mof_unit_13980.cif
_audit_creation_date              2012-12-11T15:22:42-0500
_audit_creation_method            fapswitch 2.2
_symmetry_space_group_name_H-M    P1
_symmetry_Int_Tables_number       1
_space_group_crystal_system       triclinic
_cell_length_a                    22.555477
_cell_length_b                    12.95447
_cell_length_c                    26.81548
_cell_angle_alpha                 89.95989
_cell_angle_beta                  90.9591
_cell_angle_gamma                 90.014053
_cell_volume                      7834.22919681

loop_
_atom_site_label
_atom_site_type_symbol
_atom_type_description
_atom_site_fract_x
_atom_site_fract_y
_atom_site_fract_z
_atom_type_partial_charge
C1    C     C_R   0.704423 0.304276 0.173277 0.564285
C2    C     C_R   0.486325 0.259858 0.895451 0.181579
C3    C     C_R   0.014044 0.598028 0.555015 -0.169553
C4    C     C_R   0.503014 0.080428 0.393685 -0.128305
C5    C     C_R   0.502702 0.094110 0.605973 -0.130951
C6    C     C_R   0.003013 0.580428 0.393686 -0.128305
C7    C     C_R   0.002702 0.594109 0.605973 -0.130951
C8    C     C_R   0.734654 0.982436 0.376617 -0.022643
C9    C     C_R   0.256250 0.946237 0.630796 -0.042778
C10   C     C_R   0.234654 0.482436 0.376617 -0.022643
C11   C     C_R   0.756250 0.446237 0.630796 -0.042778
C12   C     C_R   0.716684 0.887653 0.396169 -0.088371
C13   C     C_R   0.013637 0.759901 0.104510 0.181407
C14   C     C_R   0.300554 0.883903 0.610120 -0.085520
C15   C     C_R   0.216683 0.387653 0.396169 -0.088371
C16   C     C_R   0.800554 0.383902 0.610120 -0.085519
C17   C     C_R   0.713807 0.875205 0.447758 0.462278
C18   C     C_R   0.295984 0.853225 0.560566 0.429283
C19   C     C_R   0.213806 0.375205 0.447758 0.462279
C20   C     C_R   0.795983 0.353224 0.560567 0.429283
C21   C     C_R   0.725957 0.959712 0.479451 0.062278
C22   C     C_R   0.247005 0.884820 0.531689 0.054521
C23   C     C_R   0.225957 0.459712 0.479451 0.062278
C24   C     C_R   0.986325 0.759858 0.895451 0.181579
C25   C     C_R   0.747005 0.384820 0.531689 0.054520
C26   C     C_R   0.741128 0.055357 0.459148 -0.189038
C27   C     C_R   0.200302 0.938620 0.553635 -0.152850
C28   C     C_R   0.241129 0.555357 0.459148 -0.189038
C29   C     C_R   0.700303 0.438621 0.553635 -0.152850
C30   C     C_R   0.746803 0.065891 0.408326 -0.124176
C31   C     C_R   0.204729 0.968787 0.603030 -0.132226
C32   C     C_R   0.246803 0.565891 0.408326 -0.124176
C33   C     C_R   0.704729 0.468788 0.603030 -0.132227
C34   C     C_R   0.784148 0.982936 0.556700 -0.145974
C35   C     C_R   0.505093 0.260307 0.052427 0.022790
C36   C     C_R   0.193330 0.824920 0.457279 -0.189604
C37   C     C_R   0.284148 0.482936 0.556700 -0.145974
C38   C     C_R   0.693330 0.324921 0.457279 -0.189605
C39   C     C_R   0.720552 0.345851 0.322304 0.550193
C40   C     C_R   0.278503 0.348598 0.678712 0.561826
C41   C     C_R   0.220552 0.845851 0.322304 0.550193
C42   C     C_R   0.778503 0.848598 0.678712 0.561826
C43   C     C_R   0.796312 0.959046 0.605923 -0.132630
C44   C     C_R   0.185985 0.821719 0.406217 -0.130268
C45   C     C_R   0.296312 0.459046 0.605923 -0.132630
C46   C     C_R   0.494842 0.260282 0.947535 0.022681
C47   C     C_R   0.685985 0.321720 0.406217 -0.130268
C48   C     C_R   0.702974 0.866353 0.610535 -0.087994
C49   C     C_R   0.282693 0.900139 0.395337 -0.094260
C50   C     C_R   0.202974 0.366353 0.610535 -0.087993
C51   C     C_R   0.782693 0.400137 0.395337 -0.094260
C52   C     C_R   0.690035 0.892451 0.561149 0.434481
C53   C     C_R   0.289885 0.905342 0.447075 0.460671
C54   C     C_R   0.190035 0.392451 0.561149 0.434481
C55   C     C_R   0.789885 0.405339 0.447075 0.460670
C56   C     C_R   0.732201 0.946376 0.533373 0.053499
C57   C     C_R   0.005093 0.760307 0.052427 0.022790
C58   C     C_R   0.244716 0.868110 0.478054 0.060185
C59   C     C_R   0.232201 0.446375 0.533373 0.053499
C60   C     C_R   0.744716 0.368109 0.478054 0.060184
C61   C     C_R   0.757485 0.895666 0.632305 -0.044866
C62   C     C_R   0.229852 0.860950 0.375156 -0.028491
C63   C     C_R   0.257485 0.395666 0.632305 -0.044866
C64   C     C_R   0.729852 0.360950 0.375156 -0.028491
C65   C     C_R   0.553497 0.158900 0.321104 0.540583
C66   C     C_R   0.445291 0.159182 0.678274 0.547557
C67   C     C_R   0.053497 0.658900 0.321104 0.540583
C68   C     C_R   0.994842 0.760282 0.947535 0.022681
C69   C     C_R   0.945291 0.659181 0.678274 0.547557
C70   C     C_R   0.731210 0.004530 0.323796 0.542041
C71   C     C_R   0.267884 0.000888 0.677453 0.553859
C72   C     C_R   0.231210 0.504530 0.323796 0.542041
C73   C     C_R   0.767884 0.500888 0.677453 0.553859
C74   C     C_R   0.503509 0.073160 0.104967 0.318970
C75   C     C_R   0.496359 0.073104 0.895135 0.318519
C76   C     C_R   0.003509 0.573160 0.104967 0.318970
C77   C     C_R   0.996359 0.573103 0.895135 0.318519
C78   C     C_R   0.499241 0.071229 0.052675 -0.047211
C79   C     C_R   0.501241 0.165598 0.026285 -0.098694
C80   C     C_R   0.500625 0.071202 0.947429 -0.046907
C81   C     C_R   0.999241 0.571229 0.052675 -0.047211
C82   C     C_R   0.000624 0.571202 0.947429 -0.046908
C83   C     C_R   0.502248 0.976744 0.973939 0.286005
C84   C     C_R   0.497606 0.976756 0.026237 0.285861
C85   C     C_R   0.002248 0.476744 0.973939 0.286005
C86   C     C_R   0.997606 0.476757 0.026237 0.285861
C87   C     C_3   0.654632 0.037634 0.999510 -0.015679
C88   C     C_3   0.654999 0.053063 0.943267 -0.342280
C89   C     C_3   0.345195 0.037639 0.000488 -0.016080
C90   C     C_R   0.498654 0.165585 0.973748 -0.098665
C91   C     C_3   0.344828 0.053013 0.056723 -0.341703
C92   C     C_3   0.154632 0.537634 0.999510 -0.015679
C93   C     C_3   0.154999 0.553063 0.943267 -0.342280
C94   C     C_3   0.845195 0.537640 0.000488 -0.016080
C95   C     C_3   0.844828 0.553013 0.056723 -0.341703
C96   C     C_3   0.465221 0.828711 0.938255 0.056155
C97   C     C_3   0.482723 0.740412 0.903993 -0.354049
C98   C     C_3   0.534773 0.828899 0.062048 0.055824
C99   C     C_3   0.517365 0.740528 0.096367 -0.353358
C100  C     C_3   0.965221 0.328711 0.938255 0.056156
C101  C     C_R   0.001241 0.665598 0.026285 -0.098694
C102  C     C_3   0.982723 0.240412 0.903993 -0.354049
C103  C     C_3   0.034773 0.328899 0.062048 0.055823
C104  C     C_3   0.017365 0.240529 0.096367 -0.353359
C105  C     C_3   0.532450 0.383266 0.850514 -0.012915
C106  C     C_3   0.523627 0.483275 0.821664 -0.357368
C107  C     C_3   0.467580 0.383254 0.149422 -0.013594
C108  C     C_3   0.476479 0.483106 0.178319 -0.354502
C109  C     C_3   0.032450 0.883266 0.850514 -0.012915
C110  C     C_3   0.023627 0.983275 0.821664 -0.357368
C111  C     C_3   0.967580 0.883254 0.149422 -0.013594
C112  C     C_R   0.295542 0.304299 0.826750 0.564342
C113  C     C_R   0.998654 0.665585 0.973748 -0.098665
C114  C     C_3   0.976479 0.983106 0.178319 -0.354502
C115  C     C_3   0.697681 0.655064 0.009339 -0.011861
C116  C     C_3   0.650567 0.643044 0.048493 -0.372134
C117  C     C_3   0.302150 0.655007 0.990708 -0.011821
C118  C     C_3   0.349288 0.643069 0.951580 -0.372501
C119  C     C_3   0.197681 0.155064 0.009339 -0.011862
C120  C     C_3   0.150567 0.143044 0.048493 -0.372134
C121  C     C_3   0.802150 0.155007 0.990708 -0.011821
C122  C     C_3   0.849288 0.143069 0.951580 -0.372501
C123  C     C_R   0.503054 0.353615 0.025794 -0.131074
C124  C     C_R   0.496899 0.353603 0.974098 -0.131137
C125  C     C_R   0.003054 0.853615 0.025794 -0.131074
C126  C     C_R   0.996899 0.853603 0.974098 -0.131137
C127  C     C_R   0.741054 0.949436 0.132125 -0.010095
C128  C     C_R   0.258930 0.949329 0.867871 -0.009920
C129  C     C_R   0.241054 0.449436 0.132125 -0.010095
C130  C     C_R   0.758930 0.449329 0.867871 -0.009920
C131  C     C_R   0.795832 0.905374 0.120807 -0.147333
C132  C     C_R   0.204423 0.804276 0.173277 0.564285
C133  C     C_R   0.204142 0.905222 0.879180 -0.148330
C134  C     C_R   0.295832 0.405374 0.120807 -0.147333
C135  C     C_R   0.704142 0.405222 0.879180 -0.148330
C136  C     C_R   0.805397 0.865469 0.073226 -0.195833
C137  C     C_R   0.194535 0.865325 0.926778 -0.195915
C138  C     C_R   0.305397 0.365469 0.073226 -0.195833
C139  C     C_R   0.694535 0.365325 0.926778 -0.195915
C140  C     C_R   0.760878 0.872067 0.036009 0.043649
C141  C     C_R   0.239026 0.871973 0.964009 0.043707
C142  C     C_R   0.260877 0.372067 0.036009 0.043649
C143  C     C_R   0.795542 0.804299 0.826750 0.564342
C144  C     C_R   0.739026 0.371974 0.964009 0.043707
C145  C     C_R   0.706359 0.919300 0.047123 0.285003
C146  C     C_R   0.293556 0.919246 0.952902 0.285000
C147  C     C_R   0.206359 0.419300 0.047123 0.285003
C148  C     C_R   0.793556 0.419246 0.952902 0.285000
C149  C     C_R   0.551901 0.157605 0.178153 0.569098
C150  C     C_R   0.448086 0.157581 0.821853 0.567979
C151  C     C_R   0.051901 0.657605 0.178153 0.569098
C152  C     C_R   0.948086 0.657581 0.821853 0.567979
C153  C     C_R   0.696132 0.954148 0.095575 -0.143968
C154  C     C_R   0.480783 0.164800 0.870135 -0.004363
C155  C     C_R   0.303827 0.954087 0.904437 -0.143695
C156  C     C_R   0.196132 0.454148 0.095575 -0.143968
C157  C     C_R   0.803827 0.454087 0.904437 -0.143695
C158  C     C_R   0.732488 0.778525 0.956313 0.309239
C159  C     C_R   0.267363 0.778340 0.043722 0.309237
C160  C     C_R   0.232488 0.278525 0.956313 0.309239
C161  C     C_R   0.767363 0.278340 0.043722 0.309238
C162  C     C_R   0.739773 0.768013 0.904890 -0.106122
C163  C     C_R   0.260094 0.767847 0.095149 -0.105941
C164  C     C_R   0.239773 0.268013 0.904890 -0.106122
C165  C     C_R   0.519158 0.164854 0.129891 -0.004283
C166  C     C_R   0.760094 0.267847 0.095149 -0.105941
C167  C     C_R   0.831539 0.864546 0.910222 -0.154582
C168  C     C_R   0.168384 0.864484 0.089782 -0.154517
C169  C     C_R   0.331539 0.364546 0.910222 -0.154582
C170  C     C_R   0.668384 0.364484 0.089782 -0.154517
C171  C     C_R   0.824284 0.876695 0.961307 -0.198809
C172  C     C_R   0.175622 0.876610 0.038689 -0.198706
C173  C     C_R   0.324284 0.376695 0.961307 -0.198809
C174  C     C_R   0.675622 0.376611 0.038689 -0.198706
C175  C     C_R   0.773342 0.839125 0.984364 0.036528
C176  C     C_R   0.980783 0.664800 0.870135 -0.004363
C177  C     C_R   0.226534 0.838986 0.015651 0.036531
C178  C     C_R   0.273342 0.339125 0.984364 0.036529
C179  C     C_R   0.726534 0.338986 0.015651 0.036531
C180  C     C_R   0.788258 0.813793 0.881162 -0.041121
C181  C     C_R   0.211653 0.813702 0.118858 -0.041654
C182  C     C_R   0.288258 0.313793 0.881162 -0.041121
C183  C     C_R   0.711653 0.313702 0.118858 -0.041654
C184  C     C_R   0.524051 0.168677 0.369277 -0.049379
C185  C     C_R   0.468050 0.170920 0.627802 -0.039216
C186  C     C_R   0.024051 0.668677 0.369278 -0.049379
C187  C     C_R   0.019158 0.664854 0.129891 -0.004283
C188  C     C_R   0.968051 0.670920 0.627802 -0.039216
C189  C     C_R   0.526948 0.262820 0.395077 -0.105031
C190  C     C_R   0.445907 0.252466 0.598338 -0.085492
C191  C     C_R   0.026948 0.762820 0.395077 -0.105031
C192  C     C_R   0.945908 0.752466 0.598338 -0.085493
C193  C     C_R   0.515689 0.266358 0.445859 0.430229
C194  C     C_R   0.455395 0.254610 0.547389 0.457563
C195  C     C_R   0.015689 0.766358 0.445859 0.430229
C196  C     C_R   0.955396 0.754610 0.547389 0.457563
C197  C     C_R   0.731391 0.000733 0.179860 0.530530
C198  C     C_R   0.513637 0.259901 0.104510 0.181407
C199  C     C_R   0.268604 0.000696 0.820134 0.528022
C200  C     C_R   0.231391 0.500733 0.179860 0.530530
C201  C     C_R   0.768604 0.500696 0.820134 0.528022
C202  C     C_R   0.497910 0.176537 0.470966 0.057069
C203  C     C_R   0.489476 0.177164 0.525225 0.059455
C204  C     C_R   0.997911 0.676537 0.470966 0.057068
C205  C     C_R   0.989477 0.677164 0.525225 0.059455
C206  C     C_R   0.489642 0.084588 0.444117 -0.140962
C207  C     C_R   0.514044 0.098028 0.555015 -0.169553
C208  C     C_R   0.989642 0.584588 0.444117 -0.140963
Cr1   Cr    Cr6+3 0.756570 0.170940 0.251190 1.028085
Cr2   Cr    Cr6+3 0.374010 0.036240 0.749520 1.051441
Cr3   Cr    Cr6+3 0.125990 0.536240 0.250480 1.053087
Cr4   Cr    Cr6+3 0.874010 0.536240 0.749520 1.051442
Cr5   Cr    Cr6+3 0.243430 0.170940 0.748810 1.023614
Cr6   Cr    Cr6+3 0.256570 0.670940 0.251190 1.028085
Cr7   Cr    Cr6+3 0.743430 0.670940 0.748810 1.023614
Cr8   Cr    Cr6+3 0.623740 0.299110 0.249580 1.033168
Cr9   Cr    Cr6+3 0.376260 0.299110 0.750420 1.029648
Cr10  Cr    Cr6+3 0.123740 0.799110 0.249580 1.033168
Cr11  Cr    Cr6+3 0.876260 0.799110 0.750420 1.029648
Cr12  Cr    Cr6+3 0.625990 0.036240 0.250480 1.053087
F1    F     F_    0.502256 0.984729 0.868450 -0.614230
F2    F     F_    0.340063 0.796336 0.540386 -0.593906
F3    F     F_    0.201879 0.280240 0.466513 -0.562774
F4    F     F_    0.840063 0.296333 0.540387 -0.593906
F5    F     F_    0.637659 0.862296 0.540164 -0.589030
F6    F     F_    0.339360 0.950306 0.466740 -0.585901
F7    F     F_    0.137659 0.362297 0.540164 -0.589029
F8    F     F_    0.839361 0.450302 0.466740 -0.585901
F9    F     F_    0.497542 0.984812 0.131725 -0.613006
F10   F     F_    0.002256 0.484729 0.868450 -0.614230
F11   F     F_    0.997542 0.484812 0.131725 -0.613006
F12   F     F_    0.526620 0.355527 0.470957 -0.585354
F13   F     F_    0.427833 0.328379 0.519461 -0.571118
F14   F     F_    0.026621 0.855527 0.470958 -0.585354
F15   F     F_    0.927834 0.828380 0.519462 -0.571118
F16   F     F_    0.701880 0.780240 0.466513 -0.562774
H1    H     H_    0.870196 0.898035 0.893240 0.195516
H2    H     H_    0.417421 0.311001 0.614006 0.156107
H3    H     H_    0.068775 0.376936 0.081671 0.176819
H4    H     H_    0.054224 0.296108 0.027737 0.189132
H5    H     H_    0.988411 0.185151 0.075775 0.139720
H6    H     H_    0.057146 0.199238 0.110671 0.081044
H7    H     H_    0.992953 0.270933 0.128844 0.221888
H8    H     H_    0.550126 0.324104 0.824509 0.131172
H9    H     H_    0.565461 0.397687 0.881050 0.119578
H10   H     H_    0.506436 0.544081 0.846732 0.147405
H11   H     H_    0.566583 0.509252 0.806355 0.107707
H12   H     H_    0.491488 0.471108 0.790380 0.165668
H13   H     H_    0.042837 0.832155 0.377076 0.160110
H14   H     H_    0.449876 0.323988 0.175407 0.133412
H15   H     H_    0.434566 0.397851 0.118900 0.119279
H16   H     H_    0.493722 0.544005 0.153281 0.147000
H17   H     H_    0.433543 0.509075 0.193637 0.111055
H18   H     H_    0.508606 0.470735 0.209599 0.168615
H19   H     H_    0.050126 0.824104 0.824509 0.131172
H20   H     H_    0.065461 0.897687 0.881050 0.119578
H21   H     H_    0.006436 0.044081 0.846732 0.147405
H22   H     H_    0.066583 0.009251 0.806355 0.107707
H23   H     H_    0.991488 0.971108 0.790380 0.165668
H24   H     H_    0.917422 0.811002 0.614007 0.156108
H25   H     H_    0.949876 0.823988 0.175407 0.133412
H26   H     H_    0.934566 0.897851 0.118900 0.119279
H27   H     H_    0.993722 0.044005 0.153282 0.147000
H28   H     H_    0.933543 0.009075 0.193637 0.111055
H29   H     H_    0.008606 0.970735 0.209599 0.168614
H30   H     H_    0.740222 0.667374 0.030008 0.116588
H31   H     H_    0.700538 0.582816 0.987247 0.137932
H32   H     H_    0.607303 0.623174 0.030589 0.142142
H33   H     H_    0.663447 0.581476 0.075254 0.113654
H34   H     H_    0.646853 0.716408 0.069507 0.162714
H35   H     H_    0.540815 0.037963 0.538592 0.171840
H36   H     H_    0.259632 0.667396 0.970015 0.116470
H37   H     H_    0.299244 0.582700 0.012797 0.138017
H38   H     H_    0.392521 0.623075 0.969510 0.142273
H39   H     H_    0.336388 0.581611 0.924802 0.113130
H40   H     H_    0.353076 0.716501 0.930580 0.162405
H41   H     H_    0.240222 0.167374 0.030008 0.116588
H42   H     H_    0.200538 0.082816 0.987247 0.137932
H43   H     H_    0.107303 0.123174 0.030589 0.142142
H44   H     H_    0.163447 0.081476 0.075254 0.113654
H45   H     H_    0.146853 0.216408 0.069507 0.162714
H46   H     H_    0.474797 0.015066 0.462601 0.191923
H47   H     H_    0.759632 0.167396 0.970015 0.116470
H48   H     H_    0.799244 0.082700 0.012797 0.138017
H49   H     H_    0.892521 0.123075 0.969510 0.142273
H50   H     H_    0.836388 0.081611 0.924802 0.113130
H51   H     H_    0.853076 0.216501 0.930580 0.162405
H52   H     H_    0.040815 0.537962 0.538592 0.171841
H53   H     H_    0.974797 0.515066 0.462601 0.191924
H54   H     H_    0.519523 0.030017 0.627971 0.159916
H55   H     H_    0.499807 0.007019 0.374520 0.167993
H56   H     H_    0.019522 0.530016 0.627971 0.159916
H57   H     H_    0.129766 0.898039 0.106758 0.195654
H58   H     H_    0.999807 0.507019 0.374520 0.167993
H59   H     H_    0.705908 0.823660 0.371665 0.139830
H60   H     H_    0.340250 0.863965 0.631279 0.157058
H61   H     H_    0.205907 0.323660 0.371665 0.139831
H62   H     H_    0.840249 0.363963 0.631280 0.157058
H63   H     H_    0.817279 0.024888 0.536034 0.187128
H64   H     H_    0.158586 0.794898 0.480683 0.151528
H65   H     H_    0.317279 0.524887 0.536033 0.187127
H66   H     H_    0.658585 0.294901 0.480683 0.151528
H67   H     H_    0.838366 0.983831 0.621929 0.167747
H68   H     H_    0.370196 0.398035 0.893240 0.195516
H69   H     H_    0.146664 0.785599 0.390680 0.142766
H70   H     H_    0.338366 0.483830 0.621929 0.167746
H71   H     H_    0.646663 0.285603 0.390680 0.142768
H72   H     H_    0.671864 0.819129 0.630772 0.153119
H73   H     H_    0.317376 0.927860 0.371290 0.135333
H74   H     H_    0.171864 0.319130 0.630772 0.153119
H75   H     H_    0.817377 0.427856 0.371290 0.135334
H76   H     H_    0.750344 0.121341 0.482864 0.147603
H77   H     H_    0.161893 0.962529 0.531721 0.182735
H78   H     H_    0.250344 0.621340 0.482864 0.147603
H79   H     H_    0.629767 0.398039 0.106758 0.195654
H80   H     H_    0.661894 0.462531 0.531721 0.182734
H81   H     H_    0.758915 0.140686 0.393596 0.161615
H82   H     H_    0.169689 0.015771 0.618262 0.168521
H83   H     H_    0.258916 0.640686 0.393596 0.161615
H84   H     H_    0.669690 0.515773 0.618262 0.168522
H85   H     H_    0.493985 0.427227 0.955048 0.139792
H86   H     H_    0.505990 0.427246 0.044789 0.139808
H87   H     H_    0.993985 0.927227 0.955048 0.139792
H88   H     H_    0.005990 0.927246 0.044789 0.139808
H89   H     H_    0.831004 0.902267 0.148733 0.118584
H90   H     H_    0.654151 0.990647 0.103729 0.120418
H91   H     H_    0.168994 0.902091 0.851234 0.117020
H92   H     H_    0.331004 0.402267 0.148733 0.118584
H93   H     H_    0.668995 0.402091 0.851234 0.117020
H94   H     H_    0.706920 0.724928 0.883580 0.158262
H95   H     H_    0.292937 0.724746 0.116478 0.158478
H96   H     H_    0.206920 0.224928 0.883580 0.158262
H97   H     H_    0.792937 0.224746 0.116478 0.158478
H98   H     H_    0.847962 0.831295 0.065064 0.109539
H99   H     H_    0.151964 0.831120 0.934944 0.109472
H100  H     H_    0.347962 0.331295 0.065064 0.109539
H101  H     H_    0.345815 0.990621 0.896284 0.120916
H102  H     H_    0.651964 0.331120 0.934944 0.109472
H103  H     H_    0.857008 0.920669 0.982312 0.121553
H104  H     H_    0.142923 0.920631 0.017662 0.121555
H105  H     H_    0.357008 0.420669 0.982312 0.121553
H106  H     H_    0.642923 0.420631 0.017662 0.121555
H107  H     H_    0.688040 0.090334 0.016917 0.091613
H108  H     H_    0.611142 0.061529 0.013814 0.137552
H109  H     H_    0.621484 0.002321 0.925011 0.230679
H110  H     H_    0.644579 0.134692 0.934069 0.086461
H111  H     H_    0.699338 0.033299 0.928621 0.149072
H112  H     H_    0.154151 0.490647 0.103729 0.120418
H113  H     H_    0.311751 0.090274 0.983064 0.091759
H114  H     H_    0.388673 0.061652 0.986169 0.137584
H115  H     H_    0.378371 0.002335 0.075001 0.230890
H116  H     H_    0.355205 0.134660 0.065883 0.086864
H117  H     H_    0.300501 0.033127 0.071382 0.149608
H118  H     H_    0.188040 0.590334 0.016917 0.091613
H119  H     H_    0.111142 0.561529 0.013814 0.137552
H120  H     H_    0.121484 0.502321 0.925011 0.230680
H121  H     H_    0.144579 0.634692 0.934069 0.086461
H122  H     H_    0.199338 0.533299 0.928621 0.149072
H123  H     H_    0.845815 0.490621 0.896284 0.120916
H124  H     H_    0.811751 0.590274 0.983064 0.091759
H125  H     H_    0.888673 0.561652 0.986169 0.137584
H126  H     H_    0.878371 0.502334 0.075001 0.230891
H127  H     H_    0.855205 0.634660 0.065883 0.086864
H128  H     H_    0.800500 0.533127 0.071382 0.149608
H129  H     H_    0.431162 0.876612 0.918606 0.176864
H130  H     H_    0.445815 0.795837 0.972592 0.189107
H131  H     H_    0.511745 0.685156 0.924619 0.140049
H132  H     H_    0.442991 0.698947 0.889722 0.080103
H133  H     H_    0.507094 0.770921 0.871492 0.220975
H134  H     H_    0.542836 0.332155 0.377076 0.160110
H135  H     H_    0.568775 0.876936 0.081671 0.176818
H136  H     H_    0.554224 0.796108 0.027737 0.189132
H137  H     H_    0.488411 0.685151 0.075775 0.139720
H138  H     H_    0.557146 0.699238 0.110671 0.081044
H139  H     H_    0.492953 0.770933 0.128844 0.221888
H140  H     H_    0.931162 0.376612 0.918606 0.176864
H141  H     H_    0.945815 0.295837 0.972592 0.189107
H142  H     H_    0.011745 0.185156 0.924619 0.140049
H143  H     H_    0.942991 0.198947 0.889722 0.080102
H144  H     H_    0.007094 0.270921 0.871492 0.220975
O1    O     O_R   0.769900 0.064540 0.196060 -0.526442
O2    O     O_R   0.433710 0.069580 0.694600 -0.498764
O3    O     O_R   0.066290 0.569580 0.305400 -0.502386
O4    O     O_R   0.933710 0.569580 0.694600 -0.498764
O5    O     O_R   0.680760 0.993330 0.302620 -0.494970
O6    O     O_R   0.319240 0.993330 0.697380 -0.501021
O7    O     O_R   0.180760 0.493330 0.302620 -0.494970
O8    O     O_R   0.819240 0.493330 0.697380 -0.501021
O9    O     O_3   0.668770 0.168760 0.250420 -0.285185
O10   O     O_3   0.331230 0.168760 0.749580 -0.277908
O11   O     O_3   0.168770 0.668760 0.250420 -0.285186
O12   O     O_R   0.230100 0.064540 0.803940 -0.528791
O13   O     O_3   0.831230 0.668760 0.749580 -0.277908
O14   O     O_R   0.750800 0.274080 0.199250 -0.495663
O15   O     O_R   0.249200 0.274080 0.800750 -0.498482
O16   O     O_R   0.250800 0.774080 0.199250 -0.495663
O17   O     O_R   0.749200 0.774080 0.800750 -0.498482
O18   O     O_R   0.669990 0.371670 0.194150 -0.495479
O19   O     O_R   0.330010 0.371670 0.805850 -0.498038
O20   O     O_R   0.169990 0.871670 0.194150 -0.495479
O21   O     O_R   0.830010 0.871670 0.805850 -0.498039
O22   O     O_R   0.574600 0.238480 0.197800 -0.483609
O23   O     O_R   0.269900 0.564540 0.196060 -0.526442
O24   O     O_R   0.425400 0.238480 0.802200 -0.483970
O25   O     O_R   0.074600 0.738480 0.197800 -0.483609
O26   O     O_R   0.925400 0.738480 0.802200 -0.483970
O27   O     O_R   0.566130 0.068680 0.194240 -0.449706
O28   O     O_R   0.433870 0.068680 0.805760 -0.451046
O29   O     O_R   0.066130 0.568680 0.194240 -0.449706
O30   O     O_R   0.933870 0.568680 0.805760 -0.451045
O31   O     O_R   0.680610 0.992490 0.199570 -0.499683
O32   O     O_R   0.319390 0.992490 0.800430 -0.501746
O33   O     O_R   0.180610 0.492490 0.199570 -0.499683
O34   O     O_R   0.730100 0.564540 0.803940 -0.528791
O35   O     O_R   0.819390 0.492490 0.800430 -0.501746
O36   O     O_R   0.770060 0.065440 0.307230 -0.503795
O37   O     O_R   0.229940 0.065440 0.692770 -0.511409
O38   O     O_R   0.270060 0.565440 0.307230 -0.503795
O39   O     O_R   0.729940 0.565440 0.692770 -0.511410
O40   O     O_R   0.750960 0.274920 0.302300 -0.495348
O41   O     O_R   0.249040 0.274920 0.697700 -0.491554
O42   O     O_R   0.250960 0.774920 0.302300 -0.495347
O43   O     O_R   0.749040 0.774920 0.697700 -0.491554
O44   O     O_R   0.670160 0.372580 0.305320 -0.498785
O45   O     O_R   0.574760 0.239320 0.300850 -0.515911
O46   O     O_R   0.329840 0.372580 0.694680 -0.518702
O47   O     O_R   0.170160 0.872580 0.305320 -0.498785
O48   O     O_R   0.829840 0.872580 0.694680 -0.518702
O49   O     O_3   0.663333 0.931724 0.010221 -0.522534
O50   O     O_3   0.336545 0.931720 0.989825 -0.522606
O51   O     O_3   0.163333 0.431725 0.010221 -0.522534
O52   O     O_3   0.836545 0.431720 0.989825 -0.522606
O53   O     O_3   0.516722 0.886052 0.949801 -0.504907
O54   O     O_3   0.483214 0.886034 0.050454 -0.504834
O55   O     O_3   0.016722 0.386052 0.949801 -0.504907
O56   O     O_R   0.425240 0.239320 0.699150 -0.511866
O57   O     O_3   0.983214 0.386034 0.050454 -0.504834
O58   O     O_3   0.477714 0.351947 0.870228 -0.563179
O59   O     O_3   0.522285 0.351987 0.129668 -0.563693
O60   O     O_3   0.977714 0.851947 0.870228 -0.563179
O61   O     O_3   0.022285 0.851987 0.129668 -0.563693
O62   O     O_3   0.682032 0.737781 0.977404 -0.513182
O63   O     O_3   0.317813 0.737621 0.022653 -0.513184
O64   O     O_3   0.182032 0.237782 0.977404 -0.513182
O65   O     O_3   0.817813 0.237621 0.022653 -0.513183
O66   O     O_R   0.074760 0.739320 0.300850 -0.515911
O67   O     O_R   0.925240 0.739320 0.699150 -0.511866
O68   O     O_R   0.566290 0.069580 0.305400 -0.502386

loop_
_geom_bond_atom_site_label_1
_geom_bond_atom_site_label_2
_ccdc_geom_bond_type
C172  C177  A    
Cr10  O47   S    
C21   C26   A    
C34   C56   A    
C108  H17   S    
C99   H137  S    
C101  C113  A    
C29   H80   S    
C136  C140  A    
C41   O42   A    
C185  C190  A    
C133  C137  A    
C86   O57   S    
C40   O41   A    
C95   H127  S    
Cr7   O13   S    
Cr8   O18   S    
C169  H68   S    
C74   F9    S    
C170  C174  A    
C120  H44   S    
C29   C33   A    
C114  H28   S    
C111  H25   S    
C79   C90   A    
Cr3   O11   S    
C204  C208  A    
C93   H122  S    
C88   H111  S    
C25   C60   S    
C132  O16   A    
C81   C86   A    
C167  C180  A    
C135  H93   S    
C46   C124  A    
C98   H135  S    
C80   C83   A    
C9    C31   A    
C25   C29   A    
C3    H52   S    
C38   H66   S    
C202  C203  S    
C27   C31   A    
Cr11  O21   S    
C117  H37   S    
Cr10  O66   S    
C47   C64   A    
C72   O38   A    
C167  C171  A    
Cr9   O10   S    
C102  H142  S    
C17   C21   A    
C94   O52   S    
C44   H69   S    
C135  C139  A    
C87   H108  S    
C22   C58   S    
Cr3   O29   S    
C132  C181  S    
Cr9   O24   S    
C128  C199  S    
C7    H56   S    
C201  O35   A    
Cr7   O34   S    
C16   C20   A    
C40   O46   A    
Cr12  O5    S    
C20   F4    S    
C92   H118  S    
Cr10  O11   S    
C160  C178  A    
C112  O19   A    
C120  H45   S    
C22   C27   A    
C139  H102  S    
C97   H131  S    
C36   C44   A    
C37   C45   A    
C116  H33   S    
C24   C176  A    
C160  C164  A    
C43   C61   A    
C2    O58   S    
C39   O44   A    
Cr8   O22   S    
C49   C62   A    
C66   O2    A    
C122  H49   S    
Cr10  O20   S    
C51   C64   A    
Cr12  O68   S    
C152  O30   A    
C140  C145  A    
C119  H41   S    
C129  C156  A    
C53   C58   A    
C100  H140  S    
C196  F15   S    
C96   O53   S    
C82   C85   A    
C6    C186  A    
C4    H55   S    
C165  C198  A    
C197  O31   A    
C203  C207  A    
C77   C82   A    
C49   C53   A    
C109  H19   S    
Cr8   O9    S    
C51   C55   A    
C87   O49   S    
C127  C131  A    
C54   F7    S    
C111  O61   S    
C83   O53   S    
C48   C52   A    
C15   H61   S    
C98   C99   S    
C117  O63   S    
C206  H46   S    
C47   H71   S    
C193  F12   S    
Cr1   O1    S    
C143  O17   A    
C96   H130  S    
C74   C165  A    
Cr7   O43   S    
C65   O45   A    
Cr8   O44   S    
C124  H85   S    
C13   C187  A    
C67   O3    A    
C163  C181  A    
Cr5   O15   S    
Cr6   O16   S    
C85   O55   S    
C118  H40   S    
C1    C183  S    
C123  C124  A    
C81   C101  A    
C85   C86   A    
C91   H117  S    
C84   O54   S    
C168  H57   S    
C42   O48   A    
C108  H16   S    
C130  C157  A    
C88   H110  S    
C110  H22   S    
C57   C125  A    
Cr1   O14   S    
C13   C57   A    
C115  C116  S    
C16   H62   S    
C186  C191  A    
C72   O7    A    
C189  H134  S    
Cr9   O19   S    
C207  H35   S    
C103  H4    S    
Cr4   O4    S    
C107  C108  S    
C195  F14   S    
C106  H11   S    
C89   C91   S    
C171  H103  S    
C6    C208  A    
C115  H30   S    
C12   H59   S    
C2    C154  A    
Cr7   O17   S    
C50   C63   A    
C33   H84   S    
C54   C59   A    
C91   H115  S    
C169  C182  A    
C146  C155  A    
C3    C205  A    
C11   C33   A    
C149  C165  S    
C131  C136  A    
C137  H99   S    
Cr8   O45   S    
C100  O55   S    
C106  H10   S    
C1    O14   A    
C132  O20   A    
Cr11  O26   S    
C122  H51   S    
C24   O60   S    
C41   O47   A    
C83   C84   A    
C42   C61   S    
C8    C12   A    
C149  O22   A    
C69   O67   A    
C197  O1    A    
C23   C28   A    
C105  H9    S    
C37   C59   A    
C38   C60   A    
C199  O32   A    
C121  H48   S    
C26   C30   A    
C77   C176  A    
C66   C185  S    
C198  O59   S    
C118  H38   S    
C17   F16   S    
Cr6   O38   S    
C115  O62   S    
C119  O64   S    
C125  H88   S    
C108  H18   S    
C18   C22   A    
C142  C147  A    
C164  C182  A    
Cr2   O28   S    
C34   C43   A    
C192  H24   S    
C82   C113  A    
C116  H32   S    
C41   C62   S    
C104  H7    S    
C57   C101  A    
C109  H20   S    
C8    C70   S    
Cr12  O9    S    
C188  C192  A    
Cr6   O23   S    
C35   C123  A    
C94   H124  S    
C117  C118  S    
C112  O15   A    
C142  C178  S    
C66   O56   A    
C173  C178  A    
C35   C79   A    
C191  H13   S    
C159  C163  A    
C148  C157  A    
C92   O51   S    
C191  C195  A    
C189  C193  A    
C158  C175  A    
C167  H1    S    
C204  C205  S    
C161  O65   S    
C27   H77   S    
C93   H121  S    
C169  C173  A    
C121  H47   S    
Cr11  O13   S    
Cr4   O30   S    
C70   O5    A    
C107  O59   S    
C172  H104  S    
C65   C184  S    
C10   C72   S    
C170  H79   S    
C87   C88   S    
C166  H97   S    
Cr2   O6    S    
C98   H136  S    
C130  C135  A    
C190  H2    S    
C65   O68   A    
C5    C185  A    
Cr2   O32   S    
C5    H54   S    
C133  H91   S    
Cr1   O36   S    
C151  C187  S    
C39   C64   S    
C93   H120  S    
C50   C54   A    
C40   C63   S    
Cr10  O25   S    
C141  C177  S    
C192  C196  A    
C109  O60   S    
Cr4   O35   S    
C145  O49   S    
C3    C7    A    
C150  O28   A    
C36   H64   S    
C20   C25   A    
C160  O64   S    
C97   H133  S    
C102  H143  S    
C42   O43   A    
C199  O12   A    
C143  O21   A    
C87   H107  S    
C103  O57   S    
C201  O34   A    
C200  O33   A    
C32   H83   S    
C26   H76   S    
C12   C17   A    
C28   H78   S    
C107  H14   S    
C144  C148  A    
C68   C113  A    
C150  C154  S    
C55   C60   A    
C99   H138  S    
C134  H92   S    
C163  H95   S    
C45   H70   S    
C116  H34   S    
C127  C197  S    
C131  H89   S    
C115  H31   S    
C51   H75   S    
Cr1   O40   S    
C95   H128  S    
C14   H60   S    
C19   F3    S    
C157  H123  S    
C11   C73   S    
Cr2   O2    S    
C120  H43   S    
C195  C204  A    
C164  H96   S    
C43   H67   S    
C126  H87   S    
C193  C202  A    
C23   C59   S    
C114  H27   S    
C111  H26   S    
Cr1   O9    S    
C53   F6    S    
C200  O23   A    
C11   C16   A    
C28   C32   A    
Cr5   O41   S    
C147  C156  A    
C121  C122  S    
C148  O52   S    
C76   C187  A    
C141  C146  A    
C149  O27   A    
C138  C142  A    
C125  C126  A    
C194  F13   S    
C155  H101  S    
C89   H114  S    
C137  C141  A    
C1    O18   A    
C91   H116  S    
C166  C183  A    
C9    C71   S    
C69   O4    A    
C21   C56   S    
C173  H105  S    
C119  C120  S    
C46   C90   A    
C105  O58   S    
C105  C106  S    
C107  H15   S    
C8    C30   A    
C110  H23   S    
C156  H112  S    
C109  C110  S    
C31   H82   S    
C89   O50   S    
C162  H94   S    
C140  C175  S    
C104  H6    S    
C30   H81   S    
C92   C93   S    
C111  C114  S    
C94   C95   S    
C18   F2    S    
C13   O61   S    
C24   C68   A    
C129  C134  A    
C168  C172  A    
C103  H3    S    
C74   C78   A    
Cr9   O56   S    
C103  C104  S    
C97   H132  S    
C106  H12   S    
C104  H5    S    
C123  H86   S    
C95   H126  S    
C170  C183  A    
C14   C18   A    
C19   C23   A    
Cr5   O10   S    
C9    C14   A    
C127  C153  A    
C119  H42   S    
C151  O25   A    
C2    C46   A    
C77   F10   S    
Cr11  O48   S    
C36   C58   A    
C10   C15   A    
C5    C207  A    
C37   H65   S    
C168  C181  A    
C196  C205  A    
C153  H90   S    
C71   O37   A    
C128  C155  A    
C15   C19   A    
Cr11  O67   S    
Cr4   O8    S    
C34   H63   S    
C174  H106  S    
Cr2   O10   S    
Cr3   O7    S    
C75   C80   A    
C105  H8    S    
C161  C166  A    
Cr3   O33   S    
C67   C186  S    
C145  C153  A    
Cr12  O27   S    
C73   O39   A    
C71   O6    A    
C152  O26   A    
C159  C177  A    
C49   H73   S    
C146  O50   S    
C118  H39   S    
C150  O24   A    
Cr4   O13   S    
C70   O36   A    
C151  O29   A    
C99   H139  S    
C7    C188  A    
C48   H72   S    
C88   H109  S    
C110  H21   S    
C114  H29   S    
C158  C162  A    
C78   C79   A    
C112  C182  S    
C44   C62   A    
C39   O40   A    
C171  C175  A    
C45   C63   A    
C92   H119  S    
C55   F8    S    
C94   H125  S    
C10   C32   A    
C139  C144  A    
C144  C179  S    
C96   C97   S    
C76   F11   S    
C100  C102  S    
C67   O66   A    
C143  C180  S    
C4    C184  A    
C136  H98   S    
C130  C201  S    
C69   C188  S    
C38   C47   A    
C50   H74   S    
Cr12  O31   S    
C121  O65   S    
C147  O51   S    
C161  C179  A    
Cr5   O12   S    
C68   C126  A    
Cr6   O11   S    
C117  H36   S    
C100  H141  S    
C96   H129  S    
C159  O63   S    
C138  H100  S    
C162  C180  A    
C76   C81   A    
C134  C138  A    
Cr7   O39   S    
C6    H58   S    
C4    C206  A    
C98   O54   S    
Cr5   O37   S    
Cr6   O42   S    
C122  H50   S    
C73   O8    A    
C128  C133  A    
C75   C154  A    
C48   C61   A    
C102  H144  S    
C194  C203  A    
C158  O62   S    
Cr9   O46   S    
C80   C90   A    
C208  H53   S    
C129  C200  S    
C190  C194  A    
C152  C176  S    
C78   C84   A    
C52   F5    S    
C75   F1    S    
C89   H113  S    
C202  C206  A    
Cr3   O3    S    
C184  C189  A    
C174  C179  A    
C52   C56   A    
C35   C198  A    
