data_mof_unit_13297.cif
_audit_creation_date              2012-12-10T17:32:13-0500
_audit_creation_method            fapswitch 2.2
_symmetry_space_group_name_H-M    P1
_symmetry_Int_Tables_number       1
_space_group_crystal_system       triclinic
_cell_length_a                    12.31099
_cell_length_b                    13.233182
_cell_length_c                    14.989293
_cell_angle_alpha                 77.158547
_cell_angle_beta                  100.943774
_cell_angle_gamma                 116.489287
_cell_volume                      2119.38740473

loop_
_atom_site_label
_atom_site_type_symbol
_atom_type_description
_atom_site_fract_x
_atom_site_fract_y
_atom_site_fract_z
_atom_type_partial_charge
C1    C     C_R   0.854719 0.286612 0.507495 0.773346
C2    C     C_R   0.034168 0.603575 0.078512 0.064376
C3    C     C_R   0.950802 0.296115 0.081887 -0.221483
C4    C     C_R   0.945288 0.293425 0.989071 -0.222264
C5    C     C_R   0.969941 0.393760 0.923564 0.108018
C6    C     C_R   0.005890 0.499576 0.954241 0.026711
C7    C     C_R   0.037813 0.603524 0.891393 0.013918
C8    C     C_R   0.071048 0.708051 0.923466 -0.000286
C9    C     C_R   0.065762 0.705619 0.016619 -0.196121
C10   C     C_R   0.958145 0.390920 0.828358 0.033383
C11   C     C_R   0.996117 0.495575 0.767650 -0.057612
C12   C     C_R   0.999278 0.499681 0.670746 0.796333
C13   C     C_R   0.033670 0.599168 0.798347 -0.287656
C14   C     C_R   0.267788 0.033396 0.425581 -0.191750
C15   C     C_R   0.227524 0.834634 0.473711 -0.055876
C16   C     C_R   0.816635 0.085919 0.566561 -0.217335
C17   C     C_R   0.737627 0.975929 0.599845 -0.183414
C18   C     C_R   0.610669 0.938860 0.583044 0.103643
C19   C     C_R   0.562867 0.010796 0.517008 0.046431
C20   C     C_R   0.645567 0.124362 0.483794 0.045954
C21   C     C_R   0.436645 0.978600 0.485664 0.057937
C22   C     C_R   0.393515 0.062538 0.442606 0.163278
C23   C     C_R   0.144983 0.713243 0.485924 0.792083
C24   C     C_R   0.476028 0.171217 0.409379 -0.230242
C25   C     C_R   0.599375 0.197352 0.422009 -0.186754
C26   C     C_R   0.352880 0.865169 0.488088 -0.238396
C27   C     C_R   0.184615 0.919711 0.444914 -0.204297
C28   C     C_R   0.771848 0.163563 0.514894 -0.114472
C29   C     C_R   0.343296 0.324321 0.644237 -0.297099
C30   C     C_R   0.762698 0.648505 0.377389 0.060125
C31   C     C_R   0.667933 0.684174 0.351170 0.049945
C32   C     C_R   0.563086 0.626451 0.397854 -0.249649
C33   C     C_R   0.552408 0.535517 0.470754 -0.026239
C34   C     C_R   0.001413 0.501268 0.329209 0.799341
C35   C     C_R   0.652627 0.504710 0.495230 0.273180
C36   C     C_R   0.446983 0.474978 0.520946 -0.024748
C37   C     C_R   0.444482 0.385169 0.593861 0.170326
C38   C     C_R   0.543322 0.357016 0.616790 -0.285050
C39   C     C_R   0.645672 0.416408 0.569450 -0.165211
C40   C     C_R   0.343022 0.499052 0.502408 0.014202
C41   C     C_R   0.244543 0.352515 0.622682 0.077374
C42   C     C_R   0.029987 0.602909 0.171110 -0.246728
C43   C     C_R   0.003299 0.501391 0.233297 -0.043843
C44   C     C_R   0.979854 0.399874 0.204396 -0.246753
C45   C     C_R   0.979352 0.398403 0.111692 0.125540
C46   C     C_R   0.007032 0.500683 0.048056 0.070044
Cu1   Cu    Cu3+1 0.098270 0.475420 0.521130 0.925076
Cu2   Cu    Cu3+1 0.901730 0.524580 0.478870 0.917593
H1    H     H_    0.049405 0.681262 0.195346 0.126573
H2    H     H_    0.444788 0.233539 0.368211 0.148374
H3    H     H_    0.234221 0.097880 0.395568 0.138031
H4    H     H_    0.384801 0.800604 0.493967 0.156886
H5    H     H_    0.913140 0.112918 0.588714 0.166698
H6    H     H_    0.777036 0.922224 0.645488 0.145360
H7    H     H_    0.657284 0.276236 0.382916 0.181155
H8    H     H_    0.165874 0.305823 0.661077 0.126658
H9    H     H_    0.541837 0.288632 0.672623 0.158121
H10   H     H_    0.340746 0.255529 0.700022 0.148224
H11   H     H_    0.959354 0.321861 0.253888 0.131090
H12   H     H_    0.336276 0.565166 0.448044 0.122688
H13   H     H_    0.844828 0.690287 0.343093 0.125739
H14   H     H_    0.491597 0.655334 0.376121 0.133142
H15   H     H_    0.717876 0.390608 0.594198 0.209683
H16   H     H_    0.930822 0.217496 0.130357 0.146236
H17   H     H_    0.921869 0.211556 0.970082 0.154089
H18   H     H_    0.057064 0.675367 0.747360 0.127779
H19   H     H_    0.089012 0.784315 0.041783 0.182763
H20   H     H_    0.087759 0.897957 0.431916 0.151583
N1    N     N_R   0.246280 0.438190 0.553160 -0.182370
N2    N     N_R   0.754320 0.561190 0.447410 -0.224021
O1    O     O_R   0.972510 0.318130 0.526570 -0.584355
O2    O     O_R   0.806530 0.359650 0.490890 -0.605209
O3    O     O_R   0.082980 0.479210 0.647590 -0.583663
O4    O     O_R   0.917000 0.520730 0.611900 -0.590019
O5    O     O_R   0.193470 0.640350 0.509110 -0.596001
O6    O     O_R   0.027490 0.681870 0.473430 -0.591040
O7    O     O_R   0.083000 0.479270 0.388100 -0.578702
O8    O     O_R   0.917020 0.520790 0.352410 -0.588721
C47   C     C_3   0.536236 0.829234 0.645261 -0.398250
C48   C     C_3   0.458207 0.846423 0.704460 -0.349198
C49   C     C_3   0.361680 0.732209 0.745055 -0.818357
H21   H     H_    0.296373 0.687821 0.689256 0.272934
H22   H     H_    0.405303 0.676812 0.786492 0.257144
H23   H     H_    0.310359 0.747161 0.790326 0.231103
H24   H     H_    0.518304 0.890792 0.761999 0.217446
H25   H     H_    0.411798 0.899961 0.664756 0.231987
H26   H     H_    0.483527 0.756555 0.607277 0.195163
H27   H     H_    0.598204 0.797801 0.694876 0.186081
C50   C     C_3   0.673258 0.782958 0.274931 -0.414523
C51   C     C_3   0.793064 0.846753 0.229640 -0.363936
C52   C     C_3   0.789661 0.946013 0.156059 -0.835825
H28   H     H_    0.714333 0.914028 0.101035 0.256986
H29   H     H_    0.776328 0.008072 0.186959 0.247752
H30   H     H_    0.877298 0.990771 0.124776 0.241243
H31   H     H_    0.870750 0.881477 0.282545 0.212370
H32   H     H_    0.808037 0.787195 0.196694 0.219707
H33   H     H_    0.596668 0.749394 0.220983 0.206860
H34   H     H_    0.658091 0.845316 0.304202 0.207338
C53   C     C_3   0.890873 0.278205 0.790302 -0.415273
C54   C     C_3   0.753998 0.228626 0.800953 -0.354304
C55   C     C_3   0.678715 0.132374 0.744922 -0.858596
H35   H     H_    0.682866 0.166581 0.670563 0.262985
H36   H     H_    0.713231 0.065097 0.763202 0.267251
H37   H     H_    0.581954 0.094456 0.759159 0.234826
H38   H     H_    0.737658 0.195190 0.874245 0.227256
H39   H     H_    0.721284 0.297035 0.777462 0.221048
H40   H     H_    0.901217 0.289264 0.716444 0.200601
H41   H     H_    0.929734 0.216441 0.824715 0.191618
C56   C     C_2   0.113009 0.821147 0.862594 0.341885
H42   H     H_    0.147842 0.833859 0.798008 0.060887
O9    O     O_2   0.111394 0.903643 0.885130 -0.555862

loop_
_geom_bond_atom_site_label_1
_geom_bond_atom_site_label_2
_ccdc_geom_bond_type
C16   C28   A    
C21   C26   A    
C55   H35   S    
C40   H12   S    
C12   O4    A    
Cu2   O6    S    
C19   C20   A    
C23   O6    A    
C47   H26   S    
C49   H21   S    
C7    C8    A    
C3    H16   S    
C2    C46   A    
C53   H41   S    
C54   H38   S    
C1    O1    A    
C21   C22   A    
C36   C37   A    
C19   C21   A    
C37   C38   A    
C56   O9    D    
C34   O7    A    
C30   C31   A    
C16   C17   A    
C20   C25   A    
C44   H11   S    
C33   C36   A    
C18   C19   A    
Cu2   O8    S    
C16   H5    S    
Cu1   N1    S    
C48   H25   S    
C27   H20   S    
C30   N2    A    
Cu1   Cu2   S    
C35   N2    A    
C18   C47   S    
C31   C50   S    
C1    C28   S    
C14   C27   A    
C15   C23   S    
C55   H36   S    
C12   O3    A    
Cu2   O2    S    
C47   H27   S    
C49   H22   S    
C13   H18   S    
C24   H2    S    
C38   C39   A    
C1    O2    A    
C40   N1    A    
Cu2   O4    S    
C36   C40   A    
C24   C25   A    
Cu1   O3    S    
C23   O5    A    
C52   H28   S    
C8    C9    A    
C15   C26   A    
C20   C28   A    
C45   C46   A    
C3    C45   A    
C50   H33   S    
C35   C39   A    
C43   C44   A    
C9    H19   S    
C41   H8    S    
C48   H24   S    
C26   H4    S    
C52   H29   S    
C38   H9    S    
C15   C27   A    
C53   C54   S    
C7    C13   A    
C17   C18   A    
Cu1   O1    S    
C55   H37   S    
C22   C24   A    
C42   C43   A    
Cu1   O7    S    
C3    C4    A    
C49   H23   S    
C53   H40   S    
C44   C45   A    
C41   N1    A    
C6    C46   A    
C29   C41   A    
C31   C32   A    
C34   C43   S    
C25   H7    S    
Cu2   N2    S    
C48   C49   S    
C51   H31   S    
C11   C12   S    
C51   H32   S    
C6    C7    A    
C39   H15   S    
C54   H39   S    
C50   H34   S    
C32   C33   A    
C14   C22   A    
Cu1   O5    S    
C5    C10   A    
C8    C56   S    
C34   O8    A    
C52   H30   S    
C11   C13   A    
C51   C52   S    
C5    C6    A    
C2    C42   A    
C4    H17   S    
C54   C55   S    
C33   C35   A    
C10   C53   S    
C10   C11   A    
C42   H1    S    
C32   H14   S    
C47   C48   S    
C4    C5    A    
C29   H10   S    
C14   H3    S    
C30   H13   S    
C29   C37   A    
C50   C51   S    
C56   H42   S    
C2    C9    A    
C17   H6    S    
