data_mof_unit_28255.cif
_audit_creation_date              2012-12-11T16:26:28-0500
_audit_creation_method            fapswitch 2.2
_symmetry_space_group_name_H-M    P1
_symmetry_Int_Tables_number       1
_space_group_crystal_system       triclinic
_cell_length_a                    6.935414
_cell_length_b                    17.718698
_cell_length_c                    19.357546
_cell_angle_alpha                 108.647944
_cell_angle_beta                  89.480649
_cell_angle_gamma                 90.636136
_cell_volume                      2253.72089965

loop_
_atom_site_label
_atom_site_type_symbol
_atom_type_description
_atom_site_fract_x
_atom_site_fract_y
_atom_site_fract_z
_atom_type_partial_charge
O1    O     O_R   0.494330 0.415720 0.413720 -0.549704
O2    O     O_R   0.819330 0.430070 0.560210 -0.510115
O3    O     O_R   0.994320 0.584280 0.586280 -0.548869
C1    C     C_R   0.649989 0.413992 0.581075 0.724387
O4    O     O_R   0.823730 0.406300 0.412670 -0.503802
O5    O     O_R   0.998760 0.560340 0.437690 -0.501718
C2    C     C_R   0.656127 0.385192 0.383487 0.813628
O6    O     O_R   0.489890 0.439660 0.562310 -0.554440
O7    O     O_3   0.662340 0.550560 0.508380 -0.371409
V1    V     V_3+5 0.935370 0.490620 0.498450 1.608554
O8    O     O_R   0.328750 0.569930 0.439790 -0.542955
C3    C     C_R   0.160664 0.585136 0.418402 0.760097
O9    O     O_R   0.324340 0.593700 0.587330 -0.546593
C4    C     C_R   0.155325 0.616493 0.614996 0.652557
V2    V     V_3+5 0.435940 0.509380 0.501550 1.522588
O10   O     O_3   0.159100 0.449440 0.491620 -0.362219
C5    C     C_R   0.064517 0.594028 0.752926 -0.223741
C6    C     C_R   0.023126 0.580236 0.818450 0.574302
C7    C     C_R   0.014225 0.643921 0.883692 -0.176639
C8    C     C_R   0.040050 0.721811 0.881685 -0.204839
C9    C     C_R   0.084475 0.737257 0.815898 0.046351
C10   C     C_R   0.097394 0.671966 0.750268 -0.004822
C11   C     C_R   0.119691 0.816173 0.815207 -0.151816
C12   C     C_R   0.166756 0.829753 0.748246 -0.058074
C13   C     C_R   0.179697 0.763850 0.682614 -0.001574
C14   C     C_R   0.144797 0.685139 0.683642 -0.092609
C15   C     C_R   0.198788 0.907691 0.744184 0.568976
C16   C     C_R   0.244557 0.919405 0.678085 -0.171681
C17   C     C_R   0.257595 0.855168 0.613700 -0.097156
C18   C     C_R   0.224503 0.778073 0.616315 -0.205312
H1    H     H_    0.071298 0.542529 0.704325 0.134600
H2    H     H_    0.029687 0.770079 0.932652 0.141596
H3    H     H_    0.268834 0.979633 0.677391 0.231024
H4    H     H_    0.232859 0.729174 0.565764 0.144350
C19   C     C_R   0.296371 0.623225 0.312813 -0.012477
C20   C     C_R   0.155011 0.633008 0.367788 -0.104282
C21   C     C_R   0.008131 0.688674 0.374427 -0.035227
C22   C     C_R   0.001745 0.735602 0.327956 -0.024322
C23   C     C_R   0.145967 0.727534 0.274187 -0.039339
C24   C     C_R   0.294663 0.671477 0.266991 -0.012456
C25   C     C_R   0.852588 0.790235 0.334615 0.574799
C26   C     C_R   0.843593 0.837186 0.288320 -0.146000
C27   C     C_R   0.984462 0.827576 0.232259 -0.010278
C28   C     C_R   0.137110 0.772970 0.225655 0.011953
C29   C     C_R   0.279150 0.762431 0.169834 -0.036785
C30   C     C_R   0.426613 0.706053 0.164136 0.621689
C31   C     C_R   0.433408 0.662157 0.211834 -0.177425
C32   C     C_R   0.974351 0.869782 0.181787 -0.076980
C33   C     C_R   0.115090 0.861708 0.127594 -0.155633
C34   C     C_R   0.267792 0.807392 0.120965 -0.073013
H5    H     H_    0.899036 0.695497 0.416385 0.180071
H6    H     H_    0.857441 0.910314 0.184186 0.164583
H7    H     H_    0.548800 0.619627 0.203982 0.186610
C35   C     C_R   0.469813 0.186505 0.868902 -0.071027
C36   C     C_R   0.624109 0.135959 0.870305 -0.148393
C37   C     C_R   0.783120 0.131998 0.823777 -0.107857
C38   C     C_R   0.787239 0.176432 0.775153 0.047569
C39   C     C_R   0.631713 0.227045 0.774203 -0.055985
C40   C     C_R   0.473007 0.232609 0.821751 0.033333
C41   C     C_R   0.943294 0.170867 0.727015 0.623582
C42   C     C_R   0.945991 0.215486 0.679072 -0.209051
C43   C     C_R   0.793123 0.266487 0.677958 -0.059860
C44   C     C_R   0.634761 0.272070 0.725535 -0.004058
C45   C     C_R   0.479427 0.322561 0.724517 0.031725
C46   C     C_R   0.323572 0.328194 0.772556 -0.218679
C47   C     C_R   0.320201 0.283920 0.820888 0.646453
C48   C     C_R   0.796325 0.312023 0.630261 0.606792
C49   C     C_R   0.641891 0.363125 0.629208 -0.183261
C50   C     C_R   0.483209 0.367156 0.676063 -0.204804
H8    H     H_    0.347227 0.190117 0.904906 0.179011
H9    H     H_    0.901621 0.092868 0.824361 0.215565
H10   H     H_    0.069105 0.210218 0.643036 0.203406
H11   H     H_    0.364379 0.406405 0.676003 0.166206
H12   H     H_    0.203514 0.366806 0.772579 0.205706
H13   H     H_    0.320520 0.162122 0.430297 0.148856
C51   C     C_R   0.831745 0.391082 0.243663 0.548737
C52   C     C_R   0.901645 0.395647 0.176572 -0.070072
C53   C     C_R   0.883984 0.329937 0.114099 -0.238663
C54   C     C_R   0.792361 0.261319 0.116958 -0.155814
C55   C     C_R   0.716921 0.255073 0.183057 0.021248
C56   C     C_R   0.734768 0.321198 0.248275 -0.085504
C57   C     C_R   0.620090 0.184526 0.183689 -0.134354
C58   C     C_R   0.537672 0.179471 0.249250 0.068327
C59   C     C_R   0.552968 0.245070 0.314700 0.055354
C60   C     C_R   0.649020 0.316416 0.314526 -0.180786
C61   C     C_R   0.442685 0.109000 0.251343 -0.125470
C62   C     C_R   0.363154 0.103567 0.315881 -0.067260
C63   C     C_R   0.380031 0.167043 0.379997 -0.071016
C64   C     C_R   0.474927 0.236702 0.379885 -0.127203
H14   H     H_    0.935212 0.332550 0.061838 0.203382
H15   H     H_    0.776975 0.214122 0.065599 0.135037
H16   H     H_    0.429514 0.057040 0.203456 0.112564
H17   H     H_    0.289662 0.049491 0.316238 0.122366
H18   H     H_    0.487809 0.283197 0.431823 0.109552
O11   O     O_R   0.775200 0.060470 0.937800 -0.537748
O12   O     O_R   0.441110 0.093720 0.087350 -0.547445
O13   O     O_R   0.266330 0.939630 0.062280 -0.550084
C65   C     C_R   0.609446 0.115390 0.115755 0.673402
O14   O     O_R   0.445750 0.069950 0.939820 -0.517969
O15   O     O_R   0.271000 0.915700 0.913700 -0.513711
C66   C     C_R   0.615184 0.085693 0.918744 0.731202
O16   O     O_R   0.770530 0.084400 0.086380 -0.541632
O17   O     O_3   0.602830 0.949510 0.991680 -0.374305
V3    V     V_3+5 0.329710 0.009370 0.001550 1.531012
O18   O     O_R   0.940990 0.906170 0.912570 -0.547914
C67   C     C_R   0.109914 0.883767 0.884634 0.831025
O19   O     O_R   0.936350 0.929940 0.060100 -0.541572
C68   C     C_R   0.104856 0.913374 0.080316 0.671192
V4    V     V_3+5 0.829160 0.990450 0.998310 1.489705
O20   O     O_3   0.105910 0.050480 0.008320 -0.364206
C69   C     C_2   0.303747 0.868429 0.543344 0.852715
O21   O     O_2   0.327585 0.936061 0.540925 -0.530995
O22   O     O_R   0.319834 0.803564 0.479418 -0.660192
H19   H     H_    0.347537 0.820356 0.434902 0.354121
F1    F     F_    0.717341 0.799373 0.387925 -0.665957
C70   C     C_2   0.686062 0.896388 0.301469 0.841942
O23   O     O_2   0.720993 0.964981 0.303880 -0.575445
O24   O     O_R   0.498594 0.874340 0.314607 -0.637884
H20   H     H_    0.403804 0.919636 0.323669 0.290456
C71   C     C_2   0.410811 0.796382 0.061363 0.905476
O25   O     O_2   0.364083 0.762133 0.998304 -0.572052
O26   O     O_R   0.598164 0.825913 0.077579 -0.631845
H21   H     H_    0.682300 0.814051 0.032367 0.327061
F2    F     F_    0.565106 0.690582 0.111672 -0.634240
F3    F     F_    0.094215 0.122526 0.726458 -0.686837
F4    F     F_    0.949071 0.305591 0.584231 -0.697514
F5    F     F_    0.166758 0.291087 0.866563 -0.673468
F6    F     F_    0.859582 0.455539 0.303303 -0.654145
C72   C     C_2   0.982533 0.470575 0.169612 0.909775
O27   O     O_2   0.103243 0.468461 0.122548 -0.531822
O28   O     O_R   0.913425 0.543759 0.214104 -0.613824
H22   H     H_    0.961596 0.589569 0.197878 0.304898
F7    F     F_    0.985802 0.504471 0.817294 -0.695916
C73   C     C_2   0.977437 0.630286 0.954604 0.959127
O29   O     O_2   0.882822 0.678389 0.001564 -0.499139
O30   O     O_R   0.052277 0.564494 0.970074 -0.589337
H23   H     H_    0.150557 0.533900 0.932966 0.324725
F8    F     F_    0.183666 0.974063 0.803206 -0.693022
C74   C     C_2   0.430515 0.556000 0.298164 0.801891
O31   O     O_2   0.601635 0.568612 0.311727 -0.497634
O32   O     O_R   0.357523 0.478386 0.271122 -0.656709
H24   H     H_    0.460720 0.436730 0.263065 0.290768

loop_
_geom_bond_atom_site_label_1
_geom_bond_atom_site_label_2
_ccdc_geom_bond_type
C24   C31   A    
C62   C63   A    
C57   C65   S    
C25   C26   A    
C69   O21   D    
C12   C15   A    
C1    O6    A    
C52   C53   A    
C53   H14   S    
C7    C73   S    
C16   C17   A    
C21   C22   A    
C43   C48   A    
C34   C71   S    
C9    C10   A    
C20   C21   A    
O22   H19   S    
C40   C47   A    
O5    C3    A    
C22   C23   A    
C21   H5    S    
V2    O10   S    
O15   V3    S    
C47   F5    S    
C6    F7    S    
C6    C7    A    
C64   H18   S    
O24   H20   S    
C19   C74   S    
C35   C36   A    
O13   C68   A    
O8    V2    S    
C59   C60   A    
C43   C44   A    
C7    C8    A    
C49   C50   A    
O12   C65   A    
O19   C68   A    
C50   H11   S    
O1    V2    S    
C3    C20   S    
O7    V1    S    
C54   H15   S    
C31   H7    S    
O14   V3    S    
O1    C2    A    
O9    C4    A    
O19   V4    S    
C30   F2    S    
C25   F1    S    
C8    H2    S    
C71   O26   S    
C33   C68   S    
C35   C40   A    
C15   F8    S    
C18   H4    S    
C48   C49   A    
C12   C13   A    
C22   C25   A    
C55   C57   A    
O11   V4    S    
C48   F4    S    
C23   C24   A    
C1    C49   S    
C53   C54   A    
C55   C56   A    
C38   C41   A    
C73   O30   S    
C39   C40   A    
C65   O16   A    
C11   C67   S    
C57   C58   A    
C4    C14   S    
C46   H12   S    
C44   C45   A    
C41   C42   A    
C19   C20   A    
O2    C1    A    
C27   C28   A    
C17   C18   A    
C58   C59   A    
C35   H8    S    
C11   C12   A    
C37   H9    S    
C8    C9    A    
C36   C37   A    
C5    C6    A    
C69   O22   S    
C52   C72   S    
C45   C50   A    
C51   C52   A    
C73   O29   D    
O3    C4    A    
C42   H10   S    
C26   C70   S    
C32   C33   A    
O14   C66   A    
C16   H3    S    
C46   C47   A    
O6    V2    S    
O9    V2    S    
C10   C14   A    
C51   F6    S    
C26   C27   A    
O28   H22   S    
O2    V1    S    
C15   C16   A    
C28   C29   A    
O4    C2    A    
C72   O27   D    
C27   C32   A    
C13   C18   A    
C37   C38   A    
O12   V3    S    
O18   V4    S    
C30   C31   A    
C41   F3    S    
C61   C62   A    
C17   C69   S    
C39   C44   A    
O30   H23   S    
C51   C56   A    
O5    V1    S    
C74   O31   D    
C23   C28   A    
O18   C67   A    
C36   C66   S    
O15   C67   A    
C5    C10   A    
O17   V4    S    
C45   C46   A    
C9    C11   A    
C19   C24   A    
C13   C14   A    
O4    V1    S    
O3    V1    S    
V1    O10   S    
O32   H24   S    
V3    O20   S    
C74   O32   S    
C38   C39   A    
C2    C60   S    
C29   C34   A    
C5    H1    S    
C62   H17   S    
C70   O24   S    
C70   O23   D    
O7    V2    S    
C42   C43   A    
O13   V3    S    
C54   C55   A    
C29   C30   A    
H13   C63   S    
C32   H6    S    
C58   C61   A    
C63   C64   A    
C33   C34   A    
C59   C64   A    
O17   V3    S    
C71   O25   D    
O16   V4    S    
C61   H16   S    
O26   H21   S    
V4    O20   S    
C56   C60   A    
O11   C66   A    
O8    C3    A    
C72   O28   S    
