data_mof_unit_9593.cif
_audit_creation_date              2012-12-10T17:27:57-0500
_audit_creation_method            fapswitch 2.2
_symmetry_space_group_name_H-M    P1
_symmetry_Int_Tables_number       1
_space_group_crystal_system       triclinic
_cell_length_a                    10.685111
_cell_length_b                    11.967334
_cell_length_c                    12.792527
_cell_angle_alpha                 94.183107
_cell_angle_beta                  89.917384
_cell_angle_gamma                 85.146107
_cell_volume                      1625.55342181

loop_
_atom_site_label
_atom_site_type_symbol
_atom_type_description
_atom_site_fract_x
_atom_site_fract_y
_atom_site_fract_z
_atom_type_partial_charge
C1    C     C_R   0.498525 0.522940 0.700550 0.874455
C2    C     C_R   0.400140 0.619334 0.858691 -0.225850
C3    C     C_R   0.554461 0.460021 0.869862 -0.256776
C4    C     C_R   0.741140 0.497366 0.494063 0.886048
C5    C     C_R   0.529796 0.458705 0.975419 0.148046
C6    C     C_R   0.435335 0.536209 0.024009 0.167370
C7    C     C_R   0.408371 0.530515 0.130845 0.096316
C8    C     C_R   0.581128 0.382544 0.138899 -0.242721
C9    C     C_R   0.598294 0.379852 0.032177 -0.223013
C10   C     C_R   0.374027 0.956682 0.410648 -0.334023
C11   C     C_R   0.387313 0.839880 0.418159 0.021301
C12   C     C_R   0.951869 0.395306 0.519834 0.066945
C13   C     C_R   0.555516 0.857047 0.537495 -0.054525
C14   C     C_R   0.545801 0.974904 0.532428 0.093189
C15   C     C_R   0.453676 0.025209 0.468067 0.092648
C16   C     C_R   0.496480 0.477051 0.299700 0.879315
C17   C     C_R   0.444106 0.143030 0.462859 -0.050702
C18   C     C_R   0.612323 0.160185 0.582189 0.001232
C19   C     C_R   0.625415 0.043438 0.589897 -0.336443
C20   C     C_R   0.260640 0.502566 0.512152 0.883481
C21   C     C_R   0.914047 0.284323 0.509563 -0.176625
C22   C     C_R   0.982677 0.197230 0.556027 -0.223453
C23   C     C_R   0.876310 0.492578 0.492690 -0.120077
C24   C     C_R   0.087392 0.219514 0.615691 -0.150027
C25   C     C_R   0.131630 0.326591 0.620383 0.207332
C26   C     C_R   0.071780 0.410604 0.559260 0.089638
C27   C     C_3   0.230613 0.350829 0.700705 -0.852480
C28   C     C_3   0.290912 0.593777 0.182245 -0.424904
C29   C     C_3   0.171115 0.546114 0.139802 -0.878151
C30   C     C_R   0.929363 0.593752 0.481496 -0.219161
C31   C     C_R   0.055303 0.599488 0.496137 -0.223029
C32   C     C_R   0.127774 0.506865 0.530422 -0.124534
C33   C     C_R   0.491264 0.460429 0.188141 -0.087422
C34   C     C_R   0.487936 0.538098 0.811835 -0.039562
C35   C     C_R   0.373325 0.618311 0.964505 -0.216781
H1    H     H_    0.874164 0.668178 0.458810 0.169829
H2    H     H_    0.625306 0.816891 0.586947 0.128828
H3    H     H_    0.835173 0.261687 0.462390 0.174160
H4    H     H_    0.951618 0.113222 0.549090 0.149004
H5    H     H_    0.133893 0.153417 0.658755 0.144477
H6    H     H_    0.096256 0.675381 0.477124 0.168176
H7    H     H_    0.642210 0.327406 0.183845 0.162742
H8    H     H_    0.303819 0.681648 0.998033 0.153629
H9    H     H_    0.319146 0.298608 0.679924 0.268667
H10   H     H_    0.247764 0.441099 0.708677 0.221480
H11   H     H_    0.198695 0.329006 0.778753 0.222149
H12   H     H_    0.669623 0.320150 0.994910 0.146752
H13   H     H_    0.172458 0.455615 0.154342 0.264190
H14   H     H_    0.160750 0.555133 0.054548 0.262822
H15   H     H_    0.088088 0.591732 0.180692 0.251461
H16   H     H_    0.287295 0.586739 0.267947 0.225668
H17   H     H_    0.288983 0.685107 0.171574 0.194374
H18   H     H_    0.348030 0.679635 0.812537 0.155785
H19   H     H_    0.623570 0.398396 0.831827 0.143154
H20   H     H_    0.374191 0.183232 0.413546 0.135622
H21   H     H_    0.673931 0.212986 0.626286 0.140432
H22   H     H_    0.302154 0.992958 0.360609 0.145551
H23   H     H_    0.697175 0.007213 0.640065 0.143851
H24   H     H_    0.325521 0.787126 0.374236 0.121444
N1    N     N_R   0.523130 0.207800 0.519340 -0.106978
N2    N     N_R   0.476870 0.792180 0.480660 -0.098553
O1    O     O_R   0.506170 0.421690 0.658830 -0.627055
O2    O     O_R   0.491330 0.609320 0.646410 -0.620345
O3    O     O_R   0.690660 0.406170 0.506210 -0.636528
O4    O     O_R   0.675810 0.593790 0.493790 -0.618719
O5    O     O_R   0.508670 0.390680 0.353590 -0.618407
O6    O     O_R   0.493830 0.578310 0.341170 -0.624128
O7    O     O_R   0.324190 0.406210 0.506210 -0.610846
O8    O     O_R   0.309340 0.593830 0.493790 -0.640357
Zn1   Zn    Zn3+2 0.509910 0.374720 0.508290 0.927154
Zn2   Zn    Zn3+2 0.490090 0.625280 0.491710 0.933456

loop_
_geom_bond_atom_site_label_1
_geom_bond_atom_site_label_2
_ccdc_geom_bond_type
C2    C35   A    
C8    C9    A    
C30   H1    S    
C26   C32   A    
C6    C7    A    
O3    Zn1   S    
C16   C33   S    
C25   C27   S    
C35   H8    S    
C17   H20   S    
C13   H2    S    
C31   C32   A    
C14   C15   A    
C18   H21   S    
C30   C31   A    
C29   H15   S    
C1    O1    A    
C2    C34   A    
C3    C5    A    
O8    Zn2   S    
C16   O6    A    
C29   H14   S    
C21   C22   A    
C24   C25   A    
C5    C9    A    
C28   H17   S    
C12   C23   A    
C27   H10   S    
N1    Zn1   S    
O5    Zn1   S    
C11   H24   S    
C22   H4    S    
C12   C21   A    
C27   H11   S    
C18   N1    A    
C28   C29   S    
C3    H19   S    
C8    H7    S    
C1    C34   S    
C9    H12   S    
O6    Zn2   S    
C10   C15   A    
C19   H23   S    
C5    C6    A    
C28   H16   S    
C22   C24   A    
C20   O8    A    
C27   H9    S    
C16   O5    A    
C10   C11   A    
C7    C33   A    
C29   H13   S    
N2    Zn2   S    
C13   C14   A    
C23   C30   A    
C1    O2    A    
C10   H22   S    
C13   N2    A    
C6    C35   A    
O1    Zn1   S    
O7    Zn1   S    
C18   C19   A    
C20   C32   S    
C12   C26   A    
C15   C17   A    
C4    C23   S    
C4    O3    A    
C4    O4    A    
C21   H3    S    
C17   N1    A    
C3    C34   A    
C24   H5    S    
C25   C26   A    
O4    Zn2   S    
C31   H6    S    
C14   C19   A    
C20   O7    A    
C7    C28   S    
O2    Zn2   S    
C8    C33   A    
C11   N2    A    
C2    H18   S    
