data_mof_unit_31691.cif
_audit_creation_date              2012-12-10T16:53:07-0500
_audit_creation_method            fapswitch 2.2
_symmetry_space_group_name_H-M    P1
_symmetry_Int_Tables_number       1
_space_group_crystal_system       triclinic
_cell_length_a                    10.843104
_cell_length_b                    10.925439
_cell_length_c                    9.657283
_cell_angle_alpha                 90.016037
_cell_angle_beta                  88.918957
_cell_angle_gamma                 90.458227
_cell_volume                      1143.81629172

loop_
_atom_site_label
_atom_site_type_symbol
_atom_type_description
_atom_site_fract_x
_atom_site_fract_y
_atom_site_fract_z
_atom_type_partial_charge
C1    C     C_R   0.501334 0.265169 0.499998 0.854040
C2    C     C_R   0.057645 0.536879 0.629703 -0.003900
C3    C     C_R   0.126028 0.497929 0.509535 -0.069275
C4    C     C_R   0.064028 0.472302 0.386884 -0.205063
C5    C     C_R   0.937296 0.480983 0.382572 -0.232402
C6    C     C_R   0.871032 0.526828 0.496470 -0.073805
C7    C     C_2   0.498770 0.932899 0.386006 -0.164986
C8    C     C_2   0.486546 0.866472 0.502118 -0.335458
C9    C     C_2   0.493446 0.066831 0.386313 -0.156266
C10   C     C_2   0.506971 0.133074 0.501891 -0.324026
C11   C     C_2   0.433918 0.424125 0.923405 -0.082669
C12   C     C_R   0.261414 0.497190 0.502610 0.794077
C13   C     C_2   0.427468 0.430111 0.079339 -0.054809
C14   C     C_R   0.496564 0.734702 0.500120 0.883647
C15   C     C_R   0.737238 0.511164 0.498761 0.851882
C16   C     C_R   0.106073 0.543491 0.764497 -0.260609
C17   C     C_R   0.045811 0.607145 0.871112 0.239215
C18   C     C_R   0.934574 0.666952 0.844159 0.180017
C19   C     C_R   0.878806 0.650812 0.713725 0.182657
C20   C     C_R   0.934072 0.571483 0.613666 0.028857
Cu1   Cu    Cu3+1 0.500020 0.500020 0.638630 0.936078
Cu2   Cu    Cu3+1 0.499980 0.499980 0.361370 0.932823
H1    H     H_    0.113237 0.441074 0.294930 0.165689
H2    H     H_    0.525074 0.091650 0.601177 0.145537
H3    H     H_    0.543129 0.570430 0.893236 0.185745
H4    H     H_    0.360560 0.371458 0.132207 0.150743
H5    H     H_    0.567215 0.548227 0.104264 0.191684
H6    H     H_    0.891012 0.449997 0.290332 0.161395
H7    H     H_    0.512252 0.888339 0.286334 0.166077
H8    H     H_    0.467897 0.907566 0.602251 0.146515
H9    H     H_    0.480746 0.111638 0.287234 0.164670
N1    N     N_2   0.498640 0.498660 0.846910 -0.287386
N2    N     N_2   0.498610 0.498630 0.153040 -0.288255
O1    O     O_R   0.500020 0.321960 0.617040 -0.579959
O2    O     O_R   0.499980 0.321920 0.382900 -0.574753
O3    O     O_R   0.319670 0.500020 0.617100 -0.594632
O4    O     O_R   0.319630 0.499980 0.382950 -0.579246
O5    O     O_R   0.500020 0.678080 0.617100 -0.582759
O6    O     O_R   0.499980 0.678040 0.382960 -0.578869
O7    O     O_R   0.680370 0.500020 0.617050 -0.558662
O8    O     O_R   0.680330 0.499980 0.382900 -0.592943
H10   H     H_    0.379027 0.354296 0.873059 0.148709
H11   H     H_    0.187232 0.494666 0.793546 0.200154
N3    N     N_2   0.101317 0.614137 0.003735 -0.430548
H12   H     H_    0.041917 0.631162 0.085839 0.281585
C21   C     C_3   0.212501 0.688024 0.008622 -0.666018
H13   H     H_    0.252438 0.681831 0.113443 0.236519
H14   H     H_    0.190907 0.785278 0.986613 0.225906
H15   H     H_    0.282508 0.655087 0.932273 0.237914
N4    N     N_2   0.885613 0.749823 0.944559 -0.435939
H16   H     H_    0.860094 0.833449 0.905382 0.257282
C22   C     C_3   0.794327 0.697843 0.039017 -0.720716
H17   H     H_    0.778102 0.761952 0.126571 0.237527
H18   H     H_    0.825814 0.609208 0.081612 0.231883
H19   H     H_    0.706197 0.683489 0.985179 0.195742
N5    N     N_2   0.777727 0.725593 0.675694 -0.415881
H20   H     H_    0.718021 0.749266 0.755230 0.264609
C23   C     C_3   0.813022 0.828555 0.588959 -0.728031
H21   H     H_    0.730770 0.883740 0.565450 0.234768
H22   H     H_    0.854484 0.796191 0.489592 0.240866
H23   H     H_    0.880224 0.888247 0.643018 0.223050

loop_
_geom_bond_atom_site_label_1
_geom_bond_atom_site_label_2
_ccdc_geom_bond_type
C19   N5    S    
C11   N1    D    
N4    C22   S    
C13   N2    D    
C7    H7    S    
C14   O5    A    
C5    H6    S    
C6    C20   A    
C9    C10   D    
C19   C20   A    
C21   H15   S    
C22   H19   S    
C22   H17   S    
C8    H8    S    
C23   H23   S    
C2    C3    A    
C23   H21   S    
C17   N3    S    
C7    C8    D    
Cu1   O3    S    
Cu1   Cu2   S    
N5    H20   S    
Cu2   O2    S    
C11   C13   S    
C16   H11   S    
C18   N4    S    
C16   C17   A    
Cu1   O7    S    
H3    N1    S    
Cu2   O6    S    
C22   H18   S    
C1    O1    A    
N4    H16   S    
C5    C6    A    
C15   O7    A    
Cu1   N1    S    
C21   H14   S    
C13   H4    S    
C6    C15   S    
Cu2   O8    S    
C12   O3    A    
C9    H9    S    
C23   H22   S    
C3    C4    A    
C2    C16   A    
N3    H12   S    
C15   O8    A    
C11   H10   S    
C17   C18   A    
C18   C19   A    
C12   O4    A    
C7    C9    S    
C4    H1    S    
C21   H13   S    
Cu1   O5    S    
C8    C14   S    
C3    C12   S    
N3    C21   S    
C1    O2    A    
C10   H2    S    
C14   O6    A    
Cu2   O4    S    
C2    C20   A    
Cu1   O1    S    
H5    N2    S    
C1    C10   S    
N5    C23   S    
C4    C5    A    
Cu2   N2    S    
