data_mof_unit_23791.cif
_audit_creation_date              2012-12-10T18:42:33-0500
_audit_creation_method            fapswitch 2.2
_symmetry_space_group_name_H-M    P1
_symmetry_Int_Tables_number       1
_space_group_crystal_system       triclinic
_cell_length_a                    8.594304
_cell_length_b                    10.758413
_cell_length_c                    9.871852
_cell_angle_alpha                 90.238547
_cell_angle_beta                  97.268538
_cell_angle_gamma                 90.429039
_cell_volume                      905.389719805

loop_
_atom_site_label
_atom_site_type_symbol
_atom_type_description
_atom_site_fract_x
_atom_site_fract_y
_atom_site_fract_z
_atom_type_partial_charge
Br1   Br    Br    0.963587 0.351132 0.315996 -0.427621
Br2   Br    Br    0.034076 0.647110 0.682400 -0.502599
Br3   Br    Br    0.754895 0.678048 0.185742 -0.469427
Br4   Br    Br    0.245819 0.321338 0.813940 -0.507427
C1    C     C_R   0.504717 0.260118 0.499979 0.950626
C2    C     C_R   0.477473 0.066452 0.617590 -0.338568
C3    C     C_R   0.507247 0.872845 0.504985 -0.172232
C4    C     C_R   0.510450 0.127666 0.500084 -0.172100
C5    C     C_R   0.604743 0.572010 0.082088 0.328651
C6    C     C_R   0.394745 0.428436 0.917769 0.322484
C7    C     C_R   0.604193 0.571598 0.938814 -0.129766
C8    C     C_R   0.394357 0.429766 0.060964 -0.166215
C9    C     C_3   0.522696 0.109556 0.157970 0.112305
C10   C     C_3   0.611125 0.160557 0.045956 -0.682373
C11   C     C_3   0.325732 0.904419 0.797499 0.106232
C12   C     C_R   0.502099 0.740117 0.501297 0.941985
C13   C     C_3   0.309032 0.817013 0.915746 -0.706072
C14   C     C_R   0.201851 0.498243 0.465782 0.947301
C15   C     C_R   0.798023 0.500311 0.534100 0.962465
C16   C     C_2   0.040324 0.475304 0.452134 0.034946
C17   C     C_2   0.959318 0.522221 0.547519 0.037923
C18   C     C_R   0.550617 0.062293 0.386259 0.488230
C19   C     C_R   0.475613 0.938484 0.622228 0.491733
C20   C     C_R   0.548444 0.934230 0.390307 -0.332690
H1    H     H_    0.585465 0.882802 0.305786 0.218547
H2    H     H_    0.222810 0.890853 0.717993 0.184747
H3    H     H_    0.326114 0.000848 0.838116 0.146308
H4    H     H_    0.198048 0.836188 0.958346 0.230485
H5    H     H_    0.307897 0.719040 0.880243 0.284014
H6    H     H_    0.409156 0.830036 0.997415 0.231324
H7    H     H_    0.457872 0.118313 0.707637 0.200474
H8    H     H_    0.686914 0.629064 0.892857 0.211652
H9    H     H_    0.310272 0.373580 0.106708 0.191630
H10   H     H_    0.412477 0.162756 0.159437 0.151903
H11   H     H_    0.492251 0.011007 0.132187 0.126843
H12   H     H_    0.715858 0.102779 0.036767 0.268312
H13   H     H_    0.534011 0.158855 0.947102 0.196298
H14   H     H_    0.649927 0.257692 0.070046 0.269423
N1    N     N_R   0.499960 0.499970 0.857200 -0.128046
N2    N     N_R   0.500040 0.500030 0.142800 -0.121254
O1    O     O_R   0.499990 0.316750 0.614620 -0.610559
O2    O     O_3   0.467543 0.877911 0.745308 -0.587777
O3    O     O_R   0.500010 0.683250 0.385380 -0.614883
O4    O     O_R   0.499990 0.316780 0.385290 -0.589020
O5    O     O_R   0.500010 0.683220 0.614710 -0.562650
O6    O     O_R   0.271750 0.499990 0.587840 -0.563110
O7    O     O_R   0.728250 0.500010 0.412160 -0.562111
O8    O     O_R   0.271750 0.500010 0.358510 -0.606687
O9    O     O_R   0.728250 0.499990 0.641490 -0.602144
O10   O     O_3   0.618619 0.122590 0.284412 -0.559373
Zn1   Zn    Zn3+2 0.500000 0.499980 0.653120 1.041469
Zn2   Zn    Zn3+2 0.500000 0.500020 0.346880 1.036393

loop_
_geom_bond_atom_site_label_1
_geom_bond_atom_site_label_2
_ccdc_geom_bond_type
C12   O5    A    
C8    N2    A    
C1    C4    S    
C4    C18   A    
O7    Zn2   S    
Br3   C5    S    
C10   H14   S    
C13   H5    S    
C15   O9    A    
N1    Zn1   S    
C18   O10   S    
O4    Zn2   S    
Br2   C17   S    
C2    H7    S    
C9    H10   S    
C9    C10   S    
C16   C17   D    
C10   H13   S    
C7    N1    A    
C13   H6    S    
C5    C7    A    
C12   O3    A    
C19   O2    S    
C6    C8    A    
C3    C19   A    
C2    C19   A    
C14   O6    A    
C3    C12   S    
C15   C17   S    
C1    O4    A    
C7    H8    S    
C9    H11   S    
C14   C16   S    
C10   H12   S    
C18   C20   A    
O3    Zn2   S    
O5    Zn1   S    
Br4   C6    S    
C9    O10   S    
O8    Zn2   S    
C20   H1    S    
C15   O7    A    
C11   C13   S    
C1    O1    A    
C11   H2    S    
Br1   C16   S    
C2    C4    A    
C8    H9    S    
N2    Zn2   S    
C13   H4    S    
C11   H3    S    
O6    Zn1   S    
O1    Zn1   S    
C5    N2    A    
C3    C20   A    
C11   O2    S    
C6    N1    A    
O9    Zn1   S    
C14   O8    A    
