data_mof_unit_39921.cif
_audit_creation_date              2012-12-10T16:50:58-0500
_audit_creation_method            fapswitch 2.2
_symmetry_space_group_name_H-M    P1
_symmetry_Int_Tables_number       1
_space_group_crystal_system       triclinic
_cell_length_a                    7.806055
_cell_length_b                    8.696383
_cell_length_c                    10.506485
_cell_angle_alpha                 91.603739
_cell_angle_beta                  85.437004
_cell_angle_gamma                 93.335645
_cell_volume                      709.566242236

loop_
_atom_site_label
_atom_site_type_symbol
_atom_type_description
_atom_site_fract_x
_atom_site_fract_y
_atom_site_fract_z
_atom_type_partial_charge
C1    C     C_R   0.544818 0.793735 0.498512 0.931195
C2    C     C_R   0.912968 0.269135 0.049054 -0.206896
C3    C     C_R   0.017222 0.391495 0.094812 -0.156324
C4    C     C_R   0.941768 0.334664 0.926856 -0.182895
C5    C     C_R   0.172821 0.353248 0.141414 0.100476
C6    C     C_R   0.791357 0.346978 0.860158 0.112083
C7    C     C_R   0.328245 0.406606 0.078831 0.035477
C8    C     C_R   0.638766 0.393805 0.930715 0.023457
C9    C     C_R   0.335260 0.465640 0.956799 -0.002197
C10   C     C_R   0.623995 0.357818 0.060723 0.046870
C11   C     C_R   0.479558 0.397853 0.135965 -0.188114
C12   C     C_R   0.455209 0.206374 0.505754 0.935703
C13   C     C_R   0.494956 0.459718 0.878830 -0.220764
C14   C     C_2   0.569502 0.955863 0.504072 -0.107546
C15   C     C_2   0.430259 0.044413 0.508973 -0.094450
C16   C     C_R   0.500180 0.494155 0.742627 0.887786
C17   C     C_R   0.492218 0.459880 0.266059 0.934382
C18   C     C_R   0.181862 0.529676 0.923208 0.134771
C19   C     C_R   0.743675 0.263414 0.107286 0.091808
C20   C     C_R   0.020590 0.471333 0.979484 -0.140153
H1    H     H_    0.034456 0.270915 0.865861 0.152319
H2    H     H_    0.718194 0.050877 0.182152 0.166074
H3    H     H_    0.053456 0.192599 0.264339 0.144057
H4    H     H_    0.245675 0.148821 0.200456 0.178400
H5    H     H_    0.881735 0.272935 0.684041 0.202420
H6    H     H_    0.773750 0.136332 0.775009 0.155939
H7    H     H_    0.799164 0.973257 0.584064 0.172128
H8    H     H_    0.814982 0.981038 0.422998 0.179796
H9    H     H_    0.195874 0.018212 0.435587 0.188328
H10   H     H_    0.188231 0.025083 0.597629 0.175631
H11   H     H_    0.955331 0.456061 0.174487 0.180182
H12   H     H_    0.933619 0.565557 0.986100 0.161030
H13   H     H_    0.965881 0.156529 0.054356 0.151565
H14   H     H_    0.011291 0.373517 0.414289 0.199712
H15   H     H_    0.987602 0.624154 0.589463 0.183517
H16   H     H_    0.315264 0.728471 0.858346 0.184853
H17   H     H_    0.130891 0.678782 0.786990 0.201570
H18   H     H_    0.771429 0.194935 0.285296 0.211099
N1    N     N_2   0.950330 0.457950 0.466250 -0.192591
N2    N     N_2   0.049670 0.542050 0.533750 -0.181173
N3    N     N_3   0.188584 0.682902 0.873448 -0.475224
N4    N     N_3   0.693777 0.163824 0.211659 -0.468458
N5    N     N_3   0.176344 0.240622 0.239376 -0.460330
N6    N     N_3   0.773951 0.251142 0.747962 -0.402377
N7    N     N_3   0.744908 0.017956 0.506120 -0.439819
N8    N     N_3   0.254297 0.982052 0.514905 -0.431275
O1    O     O_R   0.389250 0.738570 0.508280 -0.585152
O2    O     O_R   0.610750 0.261430 0.491720 -0.598928
O3    O     O_R   0.678390 0.711630 0.486650 -0.637511
O4    O     O_R   0.321610 0.288370 0.513350 -0.645906
O5    O     O_R   0.355430 0.513480 0.694040 -0.629324
O6    O     O_R   0.644570 0.486520 0.305960 -0.630340
O7    O     O_R   0.644570 0.486540 0.672410 -0.602147
O8    O     O_R   0.355430 0.513460 0.327590 -0.597352
Zn1   Zn    Zn3+2 0.306940 0.517990 0.514440 0.933135
Zn2   Zn    Zn3+2 0.693060 0.482010 0.485560 0.921483

loop_
_geom_bond_atom_site_label_1
_geom_bond_atom_site_label_2
_ccdc_geom_bond_type
C2    C4    A    
C12   C15   S    
C8    C13   A    
O3    Zn2   S    
C5    C7    A    
C10   C19   A    
C12   O4    A    
O4    Zn1   S    
C15   N8    S    
C19   N4    S    
C12   O2    A    
H9    N8    S    
C3    H11   S    
N2    Zn1   S    
H7    N7    S    
H15   N2    S    
C5    N5    S    
H6    N6    S    
C3    C20   A    
C6    N6    S    
C16   O7    A    
O7    Zn2   S    
C7    C11   A    
C4    H1    S    
H16   N3    S    
H2    N4    S    
O6    Zn2   S    
H5    N6    S    
O1    Zn1   S    
H18   N4    S    
C14   N7    S    
C2    C3    A    
H17   N3    S    
H8    N7    S    
C18   N3    S    
C10   C11   A    
H14   N1    S    
C4    C20   A    
C7    C9    A    
C9    C18   A    
H3    N5    S    
C17   O6    A    
C18   C20   A    
C4    C6    A    
C20   H12   S    
C13   C16   S    
N1    N2    D    
O2    Zn2   S    
H4    N5    S    
C9    C13   A    
C14   C15   D    
C11   C17   S    
C16   O5    A    
C6    C8    A    
C1    C14   S    
O5    Zn1   S    
C2    C19   A    
O8    Zn1   S    
C1    O3    A    
C17   O8    A    
H10   N8    S    
C8    C10   A    
C1    O1    A    
N1    Zn2   S    
C2    H13   S    
C3    C5    A    
