data_mof_unit_52347.cif
_audit_creation_date              2012-12-11T15:14:42-0500
_audit_creation_method            fapswitch 2.2
_symmetry_space_group_name_H-M    P1
_symmetry_Int_Tables_number       1
_space_group_crystal_system       triclinic
_cell_length_a                    22.338217
_cell_length_b                    7.239999
_cell_length_c                    19.202156
_cell_angle_alpha                 90.006766
_cell_angle_beta                  98.951381
_cell_angle_gamma                 90.008561
_cell_volume                      3067.71585941

loop_
_atom_site_label
_atom_site_type_symbol
_atom_type_description
_atom_site_fract_x
_atom_site_fract_y
_atom_site_fract_z
_atom_type_partial_charge
O1    O     O_R   0.448470 0.506130 0.415700 -0.533284
O2    O     O_R   0.551530 0.006130 0.584300 -0.533225
O3    O     O_R   0.436320 0.174490 0.555800 -0.531079
O4    O     O_R   0.563680 0.674490 0.444200 -0.531092
C1    C     C_R   0.421214 0.344226 0.575197 0.699094
C2    C     C_R   0.578785 0.844232 0.424803 0.699024
O5    O     O_R   0.441350 0.176340 0.414480 -0.533603
O6    O     O_R   0.558650 0.676340 0.585520 -0.533605
O7    O     O_R   0.556600 0.007100 0.441970 -0.533090
O8    O     O_R   0.443400 0.507100 0.558030 -0.533131
C3    C     C_R   0.427348 0.344675 0.389044 0.673777
C4    C     C_R   0.572649 0.844720 0.610953 0.673804
O9    O     O_3   0.537810 0.339550 0.509190 -0.371536
O10   O     O_3   0.462190 0.839550 0.490810 -0.371587
V1    V     V_3+5 0.492990 0.064280 0.498300 1.450769
V2    V     V_3+5 0.507010 0.564280 0.501700 1.450668
C5    C     C_R   0.867675 0.919936 0.695696 -0.123334
C6    C     C_R   0.132412 0.422712 0.304343 -0.123310
H1    H     H_    0.954951 0.920207 0.759925 0.141661
H2    H     H_    0.045101 0.422915 0.240188 0.141651
H3    H     H_    0.786253 0.927987 0.579762 0.155058
H4    H     H_    0.213920 0.432255 0.420191 0.154906
H5    H     H_    0.887109 0.917913 0.647374 0.153889
H6    H     H_    0.113012 0.422005 0.352695 0.153852
C7    C     C_R   0.883308 0.938068 0.823016 -0.068097
C8    C     C_R   0.116710 0.438338 0.176973 -0.068153
C9    C     C_R   0.589894 0.803212 0.739487 -0.163487
C10   C     C_R   0.409976 0.301135 0.260609 -0.163378
C11   C     C_R   0.627390 0.780968 0.803807 -0.106921
C12   C     C_R   0.372410 0.278060 0.196381 -0.106961
C13   C     C_R   0.689516 0.811708 0.809524 -0.107549
C14   C     C_R   0.310333 0.309655 0.190634 -0.107615
C15   C     C_R   0.715672 0.875531 0.751735 0.085935
C16   C     C_R   0.284306 0.375150 0.248275 0.085915
C17   C     C_R   0.677677 0.882391 0.684357 0.063240
C18   C     C_R   0.322357 0.382973 0.315605 0.063284
C19   C     C_R   0.779477 0.911563 0.757181 0.042230
C20   C     C_R   0.220545 0.411880 0.242794 0.042188
C21   C     C_R   0.804717 0.916372 0.693627 0.098437
C22   C     C_R   0.195360 0.418381 0.306364 0.098480
C23   C     C_R   0.767053 0.918228 0.628128 -0.153498
C24   C     C_R   0.233071 0.421195 0.371827 -0.153575
C25   C     C_R   0.704413 0.908996 0.623651 -0.178248
C26   C     C_R   0.295697 0.411257 0.376269 -0.178412
C27   C     C_R   0.819703 0.943247 0.822169 0.062372
C28   C     C_R   0.180314 0.442693 0.177750 0.062331
C29   C     C_R   0.906420 0.922574 0.759779 -0.183660
C30   C     C_R   0.093627 0.424531 0.240281 -0.183764
C31   C     C_R   0.614198 0.850126 0.679000 -0.078421
C32   C     C_R   0.385790 0.349828 0.320995 -0.078601
H7    H     H_    0.541877 0.775050 0.736154 0.111145
H8    H     H_    0.457943 0.272164 0.263984 0.111209
H9    H     H_    0.716966 0.772537 0.858433 0.157512
H10   H     H_    0.282799 0.269812 0.141857 0.157596
H11   H     H_    0.608415 0.733850 0.849234 0.133774
H12   H     H_    0.391284 0.229570 0.151071 0.133852
H13   H     H_    0.677279 0.912921 0.571776 0.114576
H14   H     H_    0.322868 0.415952 0.428114 0.114779
C33   C     C_3   0.772708 0.787216 0.305354 0.152727
C34   C     C_3   0.227293 0.287135 0.694655 0.152748
C35   C     C_3   0.800655 0.972099 0.286017 0.183578
C36   C     C_3   0.199344 0.472010 0.713981 0.183511
H15   H     H_    0.725736 0.199662 0.294722 0.177444
H16   H     H_    0.274259 0.699639 0.705259 0.177431
C37   C     C_1   0.875328 0.941391 0.121217 -0.099074
C38   C     C_1   0.124671 0.441404 0.878780 -0.098891
C39   C     C_1   0.624869 0.852841 0.379240 -0.164305
C40   C     C_1   0.375130 0.352826 0.620761 -0.164305
C41   C     C_3   0.763912 0.729446 0.226842 0.155104
C42   C     C_3   0.236090 0.229455 0.773170 0.155095
C43   C     C_3   0.791487 0.914065 0.207951 0.033743
C44   C     C_3   0.208513 0.414067 0.792050 0.033742
C45   C     C_3   0.699977 0.817886 0.215091 -0.194423
C46   C     C_3   0.300025 0.317970 0.784914 -0.194377
C47   C     C_3   0.709401 0.876972 0.293290 0.026551
C48   C     C_3   0.290599 0.376964 0.706712 0.026517
C49   C     C_3   0.728088 0.003364 0.195795 -0.151420
C50   C     C_3   0.271911 0.503440 0.804200 -0.151296
C51   C     C_3   0.736963 0.062263 0.274556 -0.152500
C52   C     C_3   0.263034 0.562249 0.725434 -0.152577
C53   C     C_1   0.837389 0.931220 0.160082 0.092024
C54   C     C_1   0.162610 0.431230 0.839917 0.092166
C55   C     C_1   0.663065 0.862109 0.340658 0.027838
C56   C     C_1   0.336935 0.362095 0.659344 0.027826
H17   H     H_    0.709616 0.091861 0.150312 0.174550
H18   H     H_    0.290383 0.592000 0.849676 0.174598
H19   H     H_    0.658371 0.753193 0.186088 0.151071
H20   H     H_    0.341632 0.253349 0.813922 0.151084
O11   O     O_R   0.056650 0.288730 0.942060 -0.532808
O12   O     O_R   0.943350 0.788730 0.057940 -0.532864
O13   O     O_R   0.058660 0.616870 0.085540 -0.527433
O14   O     O_R   0.941340 0.116870 0.914460 -0.527296
C57   C     C_R   0.073025 0.448473 0.110740 0.724946
C58   C     C_R   0.926972 0.948428 0.889263 0.724824
O15   O     O_R   0.063700 0.618520 0.944220 -0.525569
O16   O     O_R   0.936300 0.118520 0.055780 -0.525513
O17   O     O_R   0.948460 0.787610 0.915680 -0.536261
O18   O     O_R   0.051540 0.287610 0.084320 -0.536179
C59   C     C_R   0.078809 0.450182 0.924601 0.725735
C60   C     C_R   0.921189 0.950176 0.075396 0.725532
O19   O     O_3   0.962230 0.453430 0.990860 -0.371055
O20   O     O_3   0.037770 0.953430 0.009140 -0.371115
V3    V     V_3+5 0.007010 0.728750 0.001700 1.523593
V4    V     V_3+5 0.992990 0.228750 0.998300 1.523826
I1    I     I_    0.806297 0.614169 0.393037 -0.299420
I2    I     I_    0.193703 0.113958 0.606986 -0.299187
I3    I     I_    0.787157 0.472119 0.183962 -0.397701
I4    I     I_    0.212850 0.972144 0.816064 -0.397645
I5    I     I_    0.789943 0.054469 0.914851 -0.419793
I6    I     I_    0.210141 0.551622 0.084745 -0.420065
I7    I     I_    0.880664 0.097999 0.341509 -0.254665
I8    I     I_    0.119332 0.597774 0.658482 -0.254864

loop_
_geom_bond_atom_site_label_1
_geom_bond_atom_site_label_2
_ccdc_geom_bond_type
C12   C14   A    
C39   C55   T    
C33   C47   S    
C9    C11   A    
C23   C25   A    
O1    C3    A    
O2    C4    A    
C48   C56   S    
C2    O7    A    
C4    C31   S    
C41   I3    S    
C34   I2    S    
C21   C23   A    
H15   C51   S    
O5    C3    A    
C33   I1    S    
C46   C48   S    
O11   C59   A    
C6    H6    S    
C36   C52   S    
C50   C52   S    
O13   C57   A    
C34   C36   S    
C5    C21   A    
O12   C60   A    
C41   C43   S    
C6    C22   A    
C45   H19   S    
C44   C50   S    
C10   C32   A    
O15   V3    S    
C17   C31   A    
C13   C15   A    
C41   C45   S    
C17   C25   A    
C7    C29   A    
C27   I5    S    
C16   C18   A    
C8    C30   A    
C35   C43   S    
C8    C57   S    
C22   C24   A    
C49   H17   S    
C7    C58   S    
O6    V2    S    
H16   C52   S    
C24   C26   A    
C1    C40   S    
C14   H10   S    
C9    H7    S    
C49   C51   S    
O17   V3    S    
C33   C35   S    
C40   C56   T    
C48   C52   S    
O4    C2    A    
C26   H14   S    
O14   V4    S    
O5    V1    S    
C11   H11   S    
C58   O17   A    
C12   H12   S    
C34   C48   S    
C15   C19   A    
C14   C16   A    
C38   C59   S    
O4    V2    S    
C42   C46   S    
C38   C54   T    
C37   C53   T    
C34   C42   S    
O6    C4    A    
O14   C58   A    
C36   C44   S    
O1    V2    S    
C5    H5    S    
C13   H9    S    
O2    V1    S    
H2    C30   S    
C33   C41   S    
H3    C23   S    
C2    C39   S    
O19   V4    S    
C28   I6    S    
O11   V4    S    
C18   C26   A    
C45   C47   S    
C19   C27   A    
C35   I7    S    
C7    C27   A    
C43   C49   S    
C18   C32   A    
C16   C20   A    
C5    C29   A    
C37   C60   S    
O13   V3    S    
O3    C1    A    
C6    C30   A    
H1    C29   S    
O16   V4    S    
O7    V1    S    
C1    O8    A    
C11   C13   A    
C3    C32   S    
O8    V2    S    
C20   C22   A    
C10   H8    S    
C47   C55   S    
H4    C24   S    
C35   C51   S    
O18   V4    S    
O16   C60   A    
C10   C12   A    
C15   C17   A    
O15   C59   A    
O20   V3    S    
O12   V3    S    
C20   C28   A    
C25   H13   S    
C36   I8    S    
C19   C21   A    
C50   H18   S    
C46   C50   S    
O9    V2    S    
C45   C49   S    
O10   V1    S    
O3    V1    S    
C42   C44   S    
C46   H20   S    
C8    C28   A    
C47   C51   S    
C57   O18   A    
C42   I4    S    
C44   C54   S    
C9    C31   A    
C43   C53   S    
