data_mof_unit_43539.cif
_audit_creation_date              2012-12-11T15:41:30-0500
_audit_creation_method            fapswitch 2.2
_symmetry_space_group_name_H-M    P1
_symmetry_Int_Tables_number       1
_space_group_crystal_system       triclinic
_cell_length_a                    14.874862
_cell_length_b                    14.810682
_cell_length_c                    15.164974
_cell_angle_alpha                 109.206626
_cell_angle_beta                  110.220029
_cell_angle_gamma                 108.980255
_cell_volume                      2571.82015708

loop_
_atom_site_label
_atom_site_type_symbol
_atom_type_description
_atom_site_fract_x
_atom_site_fract_y
_atom_site_fract_z
_atom_type_partial_charge
C1    C     C_R   0.251056 0.066649 0.972718 -0.123900
C2    C     C_R   0.805485 0.004685 0.094839 -0.117184
C3    C     C_R   0.867151 0.301609 0.301503 0.043922
C4    C     C_R   0.211576 0.673708 0.673682 0.041736
C5    C     C_R   0.502850 0.978423 0.316556 0.101492
C6    C     C_R   0.500591 0.052633 0.696153 0.095581
C7    C     C_R   0.497459 0.297738 0.926253 0.064944
C8    C     C_R   0.503697 0.673782 0.957196 0.054831
C9    C     C_R   0.187842 0.085690 0.585048 -0.123393
C10   C     C_R   0.902274 0.759649 0.041434 -0.125298
C11   C     C_R   0.287860 0.182654 0.663501 -0.144510
C12   C     C_R   0.807567 0.684381 0.030819 -0.174221
C13   C     C_R   0.291489 0.269098 0.742510 0.115263
C14   C     C_R   0.702350 0.650977 0.949219 0.112463
C15   C     C_R   0.192956 0.257017 0.740773 -0.181858
C16   C     C_R   0.693987 0.695687 0.879862 -0.140422
C17   C     C_R   0.093109 0.159879 0.662070 -0.115839
C18   C     C_R   0.788854 0.770939 0.890945 -0.099198
C19   C     C_R   0.090560 0.074297 0.584331 -0.092751
C20   C     C_R   0.892825 0.801741 0.970690 -0.086722
C21   C     C_R   0.402062 0.471881 0.839207 -0.230767
C22   C     C_R   0.597240 0.467131 0.925095 -0.228329
C23   C     C_R   0.803196 0.208774 0.299938 -0.130948
C24   C     C_R   0.245658 0.777879 0.686160 -0.127692
C25   C     C_R   0.503200 0.570118 0.905798 0.055307
C26   C     C_R   0.496450 0.375696 0.885920 0.045945
C27   C     C_R   0.601014 0.564217 0.930372 0.031636
C28   C     C_R   0.397687 0.372443 0.824556 0.033061
C29   C     C_R   0.032896 0.478261 0.379382 -0.166731
C30   C     C_R   0.120122 0.470884 0.570335 -0.165679
C31   C     C_R   0.119264 0.572846 0.473938 -0.171969
C32   C     C_R   0.033605 0.376169 0.475688 -0.163311
C33   C     C_R   0.153912 0.571573 0.571790 0.141972
C34   C     C_R   0.981784 0.382960 0.383203 0.138409
C35   C     C_R   0.551183 0.127430 0.588514 0.304036
C36   C     C_R   0.455127 0.905899 0.426098 0.306805
C37   C     C_R   0.552197 0.104760 0.493323 -0.265597
C38   C     C_R   0.452416 0.928519 0.520138 -0.267972
C39   C     C_R   0.504200 0.995432 0.413695 0.026910
C40   C     C_R   0.499312 0.037683 0.599416 0.027674
C41   C     C_R   0.134226 0.066479 0.158738 -0.186775
C42   C     C_R   0.032594 0.157941 0.053473 -0.173396
C43   C     C_R   0.042527 0.068200 0.161414 -0.165502
C44   C     C_R   0.123607 0.155681 0.050384 -0.165961
C45   C     C_R   0.409292 0.927096 0.217630 -0.130368
C46   C     C_R   0.592716 0.086522 0.789237 -0.121107
C47   C     C_R   0.984344 0.102781 0.098403 0.138629
C48   C     C_R   0.166076 0.097862 0.091790 0.140649
C49   C     C_R   0.590004 0.298300 0.992287 -0.113146
C50   C     C_R   0.411093 0.684023 0.945465 -0.117304
C51   C     C_R   0.594545 0.024325 0.310109 -0.155252
C52   C     C_R   0.408491 0.998721 0.698968 -0.169223
C53   C     C_R   0.407383 0.207475 0.903234 -0.147388
C54   C     C_R   0.594415 0.777953 0.031375 -0.137130
C55   C     C_R   0.803400 0.300755 0.209329 -0.122912
C56   C     C_R   0.234728 0.683822 0.774480 -0.130746
C57   C     C_R   0.248021 0.972571 0.061717 -0.130392
C58   C     C_R   0.802528 0.093754 0.001780 -0.135912
C59   C     C_R   0.223840 0.051485 0.047655 0.035574
C60   C     C_R   0.868263 0.066335 0.064747 0.043411
H1    H     H_    0.241930 0.120720 0.941446 0.096095
H2    H     H_    0.835000 0.981823 0.155149 0.086633
H3    H     H_    0.185768 0.019422 0.524695 0.104709
H4    H     H_    0.983065 0.784562 0.103849 0.104735
H5    H     H_    0.362298 0.190188 0.662735 0.114739
H6    H     H_    0.816392 0.651964 0.085826 0.106894
H7    H     H_    0.193553 0.322148 0.800938 0.107933
H8    H     H_    0.614008 0.670684 0.815859 0.117970
H9    H     H_    0.017673 0.150912 0.661426 0.107006
H10   H     H_    0.781773 0.804323 0.836780 0.114790
H11   H     H_    0.326197 0.472467 0.800563 0.117113
H12   H     H_    0.672979 0.464080 0.953547 0.121283
H13   H     H_    0.999764 0.484276 0.307258 0.105510
H14   H     H_    0.152351 0.466032 0.643377 0.105967
H15   H     H_    0.149922 0.647898 0.470756 0.106522
H16   H     H_    0.001261 0.301552 0.479256 0.110872
H17   H     H_    0.589288 0.171753 0.480217 0.148597
H18   H     H_    0.416209 0.861290 0.533361 0.147034
H19   H     H_    0.171173 0.029129 0.198979 0.111847
H20   H     H_    0.994617 0.192717 0.010455 0.106326
H21   H     H_    0.829871 0.175909 0.351429 0.084185
H22   H     H_    0.236720 0.801033 0.624718 0.090203
H23   H     H_    0.011563 0.031664 0.203085 0.113353
H24   H     H_    0.151527 0.188360 0.004963 0.109202
H25   H     H_    0.325336 0.876503 0.195045 0.090370
H26   H     H_    0.678278 0.133756 0.813831 0.092339
H27   H     H_    0.674513 0.349261 0.016469 0.082087
H28   H     H_    0.328704 0.617970 0.907062 0.083916
H29   H     H_    0.680319 0.064939 0.371742 0.101473
H30   H     H_    0.323779 0.968230 0.640857 0.100164
H31   H     H_    0.321845 0.173754 0.846904 0.118945
H32   H     H_    0.680494 0.801947 0.065840 0.117060
H33   H     H_    0.830348 0.353056 0.177685 0.082627
H34   H     H_    0.204628 0.618100 0.790464 0.084472
H35   H     H_    0.231774 0.936923 0.109556 0.088039
H36   H     H_    0.827568 0.152825 0.976231 0.084079
H37   H     H_    0.013181 0.999178 0.523493 0.099832
H38   H     H_    0.966012 0.858024 0.977334 0.120589
N1    N     N_R   0.293810 0.002730 0.945950 -0.041140
N2    N     N_R   0.706190 0.997270 0.054050 -0.040774
N3    N     N_R   0.706160 0.152130 0.208910 -0.038146
N4    N     N_R   0.293840 0.847870 0.791090 -0.039586
N5    N     N_R   0.443140 0.945920 0.152090 -0.040542
N6    N     N_R   0.556860 0.054080 0.847910 -0.041226
N7    N     N_R   0.556830 0.208940 0.002760 -0.040157
N8    N     N_R   0.443170 0.791060 0.997240 -0.040150
N9    N     N_R   0.556790 0.002750 0.208910 -0.039317
N10   N     N_R   0.443210 0.997250 0.791090 -0.036605
N11   N     N_R   0.443180 0.152110 0.945950 -0.040247
N12   N     N_R   0.556820 0.847890 0.054050 -0.042654
N13   N     N_R   0.706170 0.208950 0.152090 -0.038889
N14   N     N_R   0.293830 0.791050 0.847910 -0.039803
N15   N     N_R   0.293800 0.945910 0.002760 -0.040603
N16   N     N_R   0.706200 0.054090 0.997240 -0.038975
Ni1   Ni    Ni4+2 0.369690 0.999990 0.869700 0.215912
Ni2   Ni    Ni4+2 0.630310 0.000010 0.130300 0.207770
Ni3   Ni    Ni4+2 0.369670 0.869670 0.000000 0.213181
Ni4   Ni    Ni4+2 0.630330 0.130330 0.000000 0.204285
C61   C     C_3   0.603955 0.245145 0.675625 -1.016930
H39   H     H_    0.634493 0.304103 0.648953 0.253572
H40   H     H_    0.543360 0.258587 0.696693 0.250140
H41   H     H_    0.675178 0.264083 0.749205 0.242366
C62   C     C_3   0.410016 0.788245 0.343304 -1.019834
H42   H     H_    0.386957 0.730990 0.374004 0.250032
H43   H     H_    0.335058 0.761589 0.268648 0.243011
H44   H     H_    0.473287 0.780742 0.323309 0.256355

loop_
_geom_bond_atom_site_label_1
_geom_bond_atom_site_label_2
_ccdc_geom_bond_type
C18   H10   S    
C38   C40   A    
C42   H20   S    
C8    C50   A    
C43   H23   S    
C49   H27   S    
N4    N14   A    
N2    Ni2   S    
C55   H33   S    
C1    N1    A    
C19   H37   S    
C62   H42   S    
C56   H34   S    
C7    C26   S    
C21   C25   A    
C21   H11   S    
N13   Ni4   S    
N10   Ni1   S    
C35   C37   A    
C6    C40   S    
C1    C59   A    
N1    Ni1   S    
N14   Ni3   S    
C4    C24   A    
C2    C60   A    
C57   C59   A    
C29   H13   S    
C58   C60   A    
C54   N12   A    
C24   H22   S    
C58   H36   S    
N4    Ni1   S    
C45   N5    A    
C47   C60   S    
C52   H30   S    
C9    C19   A    
C10   C20   A    
C32   H16   S    
C53   H31   S    
C31   C33   A    
C13   C28   S    
C16   H8    S    
C14   C27   S    
C6    C46   A    
C24   N4    A    
C50   H28   S    
C2    N2    A    
C4    C56   A    
C8    C25   S    
C41   C43   A    
N5    Ni3   S    
C42   C44   A    
C22   H12   S    
N6    Ni4   S    
C61   H40   S    
C36   C62   S    
N2    N16   A    
C7    C49   A    
C8    C54   A    
C46   N6    A    
C62   H44   S    
C57   N15   A    
C38   H18   S    
C3    C34   S    
C3    C23   A    
C5    C45   A    
C29   C34   A    
C32   C34   A    
C45   H25   S    
C54   H32   S    
C31   H15   S    
C29   C31   A    
C15   H7    S    
C20   H38   S    
C9    C11   A    
N16   Ni4   S    
C10   C12   A    
N15   Ni3   S    
C51   N9    A    
C21   C28   A    
C12   C14   A    
C22   C27   A    
C13   C15   A    
N8    Ni3   S    
C22   C26   A    
C14   C16   A    
N7    Ni4   S    
N3    N13   A    
C7    C53   A    
N12   Ni2   S    
N6    N10   A    
C48   C59   S    
C58   N16   A    
C41   H19   S    
N8    N12   A    
C61   H41   S    
C53   N11   A    
C15   C17   A    
N7    N11   A    
C4    C33   S    
C23   H21   S    
C30   C33   A    
C55   N13   A    
C9    H3    S    
C26   C28   A    
C36   C39   A    
C10   H4    S    
C44   H24   S    
C1    H1    S    
N1    N15   A    
C49   N7    A    
C61   H39   S    
C25   C27   A    
C3    C55   A    
C5    C39   S    
C35   C40   A    
C37   C39   A    
C51   H29   S    
C30   C32   A    
C11   C13   A    
C35   C61   S    
C23   N3    A    
C12   H6    S    
C30   H14   S    
C36   C38   A    
C17   C19   A    
C41   C48   A    
C18   C20   A    
C42   C47   A    
N9    Ni2   S    
C62   H43   S    
N11   Ni1   S    
C44   C48   A    
C37   H17   S    
C52   N10   A    
C16   C18   A    
C57   H35   S    
C50   N8    A    
N3    Ni2   S    
C5    C51   A    
N5    N9    A    
C17   H9    S    
C6    C52   A    
C43   C47   A    
C56   N14   A    
C11   H5    S    
C2    H2    S    
C46   H26   S    
