data_mof_unit_38511.cif
_audit_creation_date              2012-12-10T17:03:42-0500
_audit_creation_method            fapswitch 2.2
_symmetry_space_group_name_H-M    P1
_symmetry_Int_Tables_number       1
_space_group_crystal_system       triclinic
_cell_length_a                    10.108676
_cell_length_b                    10.71062
_cell_length_c                    13.307959
_cell_angle_alpha                 89.137715
_cell_angle_beta                  71.232235
_cell_angle_gamma                 91.410774
_cell_volume                      1363.43036509

loop_
_atom_site_label
_atom_site_type_symbol
_atom_type_description
_atom_site_fract_x
_atom_site_fract_y
_atom_site_fract_z
_atom_type_partial_charge
C1    C     C_R   0.504110 0.736678 0.493735 0.911688
C2    C     C_R   0.444119 0.459068 0.981237 -0.034884
C3    C     C_R   0.485969 0.447613 0.870110 -0.048117
C4    C     C_R   0.550735 0.479478 0.028068 0.068659
C5    C     C_R   0.689360 0.511310 0.963877 -0.040901
C6    C     C_R   0.729907 0.481228 0.857634 -0.121874
C7    C     C_R   0.630433 0.436169 0.815519 -0.099935
C8    C     C_R   0.526347 0.463336 0.135756 -0.258742
C9    C     C_R   0.747227 0.569315 0.120135 0.457070
C10   C     C_R   0.383406 0.450198 0.817422 -0.324445
C11   C     C_2   0.609625 0.068739 0.485487 -0.204155
C12   C     C_R   0.424183 0.484497 0.702589 0.948831
C13   C     C_2   0.489632 0.130243 0.516893 0.248072
C14   C     C_2   0.611565 0.935727 0.496684 -0.148653
C15   C     C_2   0.516571 0.866914 0.471627 -0.277041
C16   C     C_2   0.080338 0.403998 0.477176 0.570401
C17   C     C_2   0.920901 0.401195 0.511708 0.364164
C18   C     C_R   0.497420 0.262564 0.502802 0.824932
C19   C     C_R   0.576929 0.503747 0.297404 0.879438
C20   C     C_R   0.785220 0.563444 0.009464 0.361817
C21   C     C_R   0.621458 0.509589 0.182644 -0.262306
C22   C     C_R   0.242735 0.422283 0.877233 0.385460
C23   C     C_R   0.202074 0.421601 0.988106 0.268431
C24   C     C_R   0.298541 0.456240 0.039074 0.338360
H1    H     H_    0.689577 0.895639 0.526551 0.171878
H2    H     H_    0.444281 0.907672 0.435963 0.189183
H3    H     H_    0.838643 0.484740 0.808687 0.238676
H4    H     H_    0.434129 0.412196 0.184243 0.242236
H5    H     H_    0.669203 0.392945 0.740027 0.226353
H6    H     H_    0.710165 0.116848 0.449856 0.185505
N1    N     N_2   0.148270 0.498670 0.498870 0.016530
N2    N     N_2   0.852610 0.498640 0.498840 0.045030
O1    O     O_R   0.386950 0.680940 0.500020 -0.563998
O2    O     O_R   0.613110 0.680900 0.499980 -0.674648
O3    O     O_R   0.330780 0.500000 0.653640 -0.514087
O4    O     O_R   0.556930 0.499960 0.653610 -0.630200
O5    O     O_R   0.386890 0.319100 0.500020 -0.549795
O6    O     O_R   0.613050 0.319060 0.499980 -0.604734
O7    O     O_R   0.443070 0.500040 0.346390 -0.617451
O8    O     O_R   0.669220 0.500000 0.346360 -0.557706
Zn1   Zn    Zn3+2 0.349000 0.500030 0.500020 1.094604
Zn2   Zn    Zn3+2 0.651000 0.499970 0.499980 1.011074
O9    O     O_3   0.833195 0.633047 0.165688 -0.558357
C25   C     C_3   0.787810 0.757223 0.184151 0.106658
H7    H     H_    0.714971 0.763066 0.266540 0.123609
H8    H     H_    0.733343 0.792082 0.128692 0.130067
C26   C     C_3   0.913437 0.844708 0.170834 -0.801838
H9    H     H_    0.983819 0.844921 0.087280 0.281759
H10   H     H_    0.878002 0.941128 0.191454 0.214867
H11   H     H_    0.972503 0.814035 0.223357 0.236734
Cl1   Cl    Cl    0.323814 0.061827 0.589389 -0.621391
O10   O     O_3   0.156384 0.302270 0.429342 -0.591230
C27   C     C_3   0.107658 0.255979 0.348329 0.111376
H12   H     H_    0.095891 0.332729 0.294696 0.201432
H13   H     H_    0.006140 0.204097 0.382481 0.173486
C28   C     C_3   0.212225 0.165068 0.282457 -0.760728
H14   H     H_    0.222573 0.085144 0.333333 0.263500
H15   H     H_    0.175816 0.129038 0.217716 0.212891
H16   H     H_    0.316012 0.212678 0.246952 0.248851
Cl2   Cl    Cl    0.058057 0.581019 0.610770 -0.520128
Cl3   Cl    Cl    0.833447 0.265603 0.579341 -0.708616
O11   O     O_3   0.938549 0.581259 0.427324 -0.589257
C29   C     C_3   0.896285 0.704154 0.453345 0.263434
H17   H     H_    0.833945 0.713517 0.538704 0.178275
H18   H     H_    0.838147 0.734608 0.400201 0.167338
C30   C     C_3   0.022957 0.794027 0.428498 -0.874536
H19   H     H_    0.095248 0.779885 0.347481 0.241114
H20   H     H_    0.987606 0.891842 0.433503 0.220855
H21   H     H_    0.081057 0.781773 0.485392 0.317303
Cl4   Cl    Cl    0.946598 0.631825 0.930105 -0.514737
O12   O     O_3   0.143294 0.399789 0.828267 -0.518232
C31   C     C_3   0.143772 0.271564 0.805301 0.114140
H22   H     H_    0.120949 0.212291 0.878829 0.159637
H23   H     H_    0.246638 0.246605 0.748488 0.160981
C32   C     C_3   0.031520 0.243165 0.755073 -0.587751
H24   H     H_    0.052608 0.300068 0.681059 0.272869
H25   H     H_    0.031570 0.142715 0.735688 0.247573
H26   H     H_    0.927163 0.265113 0.810819 0.237384
O13   O     O_3   0.248728 0.489099 0.144456 -0.621973
C33   C     C_3   0.196707 0.611447 0.152186 0.212810
H27   H     H_    0.107637 0.614856 0.226864 0.222600
H28   H     H_    0.154763 0.638721 0.087260 0.190063
C34   C     C_3   0.308525 0.707263 0.156920 -0.938616
H29   H     H_    0.398289 0.707737 0.082254 0.264072
H30   H     H_    0.264537 0.801961 0.166877 0.221056
H31   H     H_    0.345421 0.684978 0.225002 0.277627
Cl5   Cl    Cl    0.028377 0.381666 0.064728 -0.581692

loop_
_geom_bond_atom_site_label_1
_geom_bond_atom_site_label_2
_ccdc_geom_bond_type
C30   H20   S    
C29   H18   S    
C7    H5    S    
O4    Zn2   S    
O2    Zn2   S    
C4    C8    A    
C1    O1    A    
C26   H10   S    
C5    C20   A    
C27   H12   S    
C10   C22   A    
C16   N1    D    
C13   C18   S    
C19   O7    A    
C19   C21   S    
C18   O5    A    
O6    Zn2   S    
C3    C7    A    
C31   C32   S    
C5    C6    A    
C11   C14   S    
C30   H21   S    
C28   H14   S    
C9    C20   A    
C17   Cl3   S    
C13   Cl1   S    
C34   H29   S    
C11   H6    S    
C16   C17   S    
C23   C24   A    
C1    C15   S    
C12   O4    A    
C25   C26   S    
O8    Zn2   S    
C30   H19   S    
C29   C30   S    
C23   Cl5   S    
C20   Cl4   S    
C6    H3    S    
C33   C34   S    
C25   H8    S    
C1    O2    A    
C26   H11   S    
C27   H13   S    
C9    O9    S    
C33   H28   S    
C33   H27   S    
C15   H2    S    
O13   C33   S    
N1    Cl2   S    
C2    C4    A    
C32   H24   S    
O11   C29   S    
C24   O13   S    
C26   H9    S    
C8    C21   A    
O10   C27   S    
C12   O3    A    
C32   H25   S    
C10   C12   S    
C31   H23   S    
C34   H30   S    
O9    C25   S    
C2    C24   A    
C8    H4    S    
C22   O12   S    
C25   H7    S    
C27   C28   S    
N1    Zn1   S    
C14   C15   D    
C16   O10   S    
C31   H22   S    
C6    C7    A    
C28   H16   S    
O1    Zn1   S    
C2    C3    A    
C18   O6    A    
N2    O11   S    
O12   C31   S    
C3    C10   A    
C11   C13   D    
C9    C21   A    
C28   H15   S    
C14   H1    S    
O5    Zn1   S    
O3    Zn1   S    
C32   H26   S    
C19   O8    A    
C29   H17   S    
C4    C5    A    
C34   H31   S    
O7    Zn1   S    
C17   N2    D    
N2    Zn2   S    
C22   C23   A    
