data_mof_unit_57277.cif
_audit_creation_date              2012-12-10T17:05:15-0500
_audit_creation_method            fapswitch 2.2
_symmetry_space_group_name_H-M    P1
_symmetry_Int_Tables_number       1
_space_group_crystal_system       triclinic
_cell_length_a                    10.037743
_cell_length_b                    10.750446
_cell_length_c                    15.504752
_cell_angle_alpha                 90.020626
_cell_angle_beta                  67.648242
_cell_angle_gamma                 89.996178
_cell_volume                      1547.41362576

loop_
_atom_site_label
_atom_site_type_symbol
_atom_type_description
_atom_site_fract_x
_atom_site_fract_y
_atom_site_fract_z
_atom_type_partial_charge
C1    C     C_R   0.501372 0.737276 0.497910 0.933637
C2    C     C_R   0.698475 0.611173 0.044712 0.185481
C3    C     C_R   0.568508 0.546651 0.093640 0.092476
C4    C     C_R   0.409622 0.501012 0.675943 0.899525
C5    C     C_R   0.799710 0.629691 0.085979 -0.120362
C6    C     C_R   0.771285 0.586506 0.176141 -0.165106
C7    C     C_R   0.549848 0.493863 0.179588 -0.219729
C8    C     C_2   0.614373 0.066953 0.496407 -0.150317
C9    C     C_2   0.494112 0.131181 0.510379 -0.328796
C10   C     C_2   0.611269 0.933088 0.501935 -0.156794
C11   C     C_2   0.506699 0.868760 0.488947 -0.329164
C12   C     C_R   0.398778 0.539217 0.918094 0.050509
C13   C     C_2   0.111008 0.441180 0.438416 -0.119036
C14   C     C_2   0.962884 0.447284 0.435381 -0.140186
C15   C     C_R   0.498936 0.262719 0.501946 0.937100
C16   C     C_R   0.590172 0.501192 0.324046 0.862280
C17   C     C_R   0.351613 0.504593 0.777521 -0.127328
C18   C     C_R   0.644041 0.520720 0.223614 -0.055806
C19   C     C_R   0.167689 0.451647 0.926861 0.372563
C20   C     C_R   0.213375 0.461074 0.830232 -0.237046
C21   C     C_R   0.441109 0.545987 0.821382 -0.257136
C22   C     C_R   0.260962 0.488362 0.971409 0.073088
C23   C     C_R   0.495483 0.571700 0.961608 0.097758
C24   C     C_R   0.461494 0.535806 0.055257 0.077156
C25   C     C_R   0.320594 0.493154 0.108232 -0.244277
C26   C     C_R   0.221677 0.471864 0.067222 -0.184101
C27   C     C_R   0.625641 0.637336 0.914523 -0.221721
C28   C     C_R   0.724442 0.657701 0.956064 -0.207857
Cl1   Cl    Cl    0.998444 0.382439 0.987471 -0.656768
H1    H     H_    0.898543 0.680442 0.049611 0.141097
H2    H     H_    0.143695 0.428565 0.796051 0.191610
H3    H     H_    0.547723 0.576258 0.777653 0.163938
H4    H     H_    0.282279 0.478231 0.182533 0.144410
H5    H     H_    0.652062 0.678081 0.846500 0.144332
H6    H     H_    0.115914 0.438134 0.110998 0.197260
H7    H     H_    0.388794 0.088466 0.530633 0.153139
H8    H     H_    0.191694 0.386438 0.385061 0.156155
H9    H     H_    0.845146 0.608672 0.209800 0.150655
H10   H     H_    0.717228 0.112699 0.481763 0.176141
H11   H     H_    0.697496 0.887460 0.516010 0.173973
H12   H     H_    0.424654 0.911379 0.469146 0.152736
H13   H     H_    0.074746 0.555787 0.546619 0.160359
H14   H     H_    0.947963 0.403756 0.376559 0.159265
H15   H     H_    0.864223 0.534301 0.557140 0.165931
H16   H     H_    0.459241 0.434243 0.215679 0.143490
H17   H     H_    0.822300 0.708969 0.918164 0.151097
N1    N     N_2   0.148330 0.498670 0.499030 -0.187416
N2    N     N_2   0.852680 0.498640 0.499000 -0.190213
O1    O     O_R   0.386950 0.680940 0.500010 -0.612539
O2    O     O_R   0.613110 0.680900 0.499990 -0.613581
O3    O     O_R   0.322330 0.500030 0.632270 -0.613609
O4    O     O_R   0.548480 0.499990 0.632240 -0.614848
O5    O     O_R   0.386890 0.319100 0.500010 -0.611668
O6    O     O_R   0.613050 0.319060 0.499990 -0.604636
O7    O     O_R   0.451520 0.500010 0.367760 -0.613542
O8    O     O_R   0.677670 0.499970 0.367730 -0.612013
Zn1   Zn    Zn3+2 0.349000 0.500030 0.500020 0.945824
Zn2   Zn    Zn3+2 0.651000 0.499970 0.499980 0.942609

loop_
_geom_bond_atom_site_label_1
_geom_bond_atom_site_label_2
_ccdc_geom_bond_type
C9    H7    S    
C14   N2    D    
C23   C24   A    
C16   O8    A    
N2    Zn2   S    
O3    Zn1   S    
C8    H10   S    
C23   C27   A    
N1    Zn1   S    
C1    O2    A    
C13   H8    S    
C19   C20   A    
C1    C11   S    
C7    C18   A    
C17   C20   A    
C6    H9    S    
C2    C3    A    
C9    C15   S    
C16   O7    A    
O1    Zn1   S    
C13   C14   S    
C12   C23   A    
C28   H17   S    
C3    C24   A    
O4    Zn2   S    
C4    O4    A    
C4    C17   S    
C15   O5    A    
C10   H11   S    
O8    Zn2   S    
C11   H12   S    
C3    C7    A    
H13   N1    S    
O7    Zn1   S    
C27   H5    S    
C22   C26   A    
C5    C6    A    
C6    C18   A    
C21   H3    S    
C2    C5    A    
C10   C11   D    
C4    O3    A    
O2    Zn2   S    
C15   O6    A    
C7    H16   S    
C26   H6    S    
C19   C22   A    
C12   C22   A    
C24   C25   A    
C16   C18   S    
C5    H1    S    
O6    Zn2   S    
C27   C28   A    
C13   N1    D    
O5    Zn1   S    
C8    C9    D    
C2    C28   A    
C25   C26   A    
C1    O1    A    
C12   C21   A    
C8    C10   S    
C17   C21   A    
H15   N2    S    
C25   H4    S    
C14   H14   S    
C20   H2    S    
C19   Cl1   S    
