data_mof_unit_5920.cif
_audit_creation_date              2012-12-11T14:03:50-0500
_audit_creation_method            fapswitch 2.2
_symmetry_space_group_name_H-M    P1
_symmetry_Int_Tables_number       1
_space_group_crystal_system       triclinic
_cell_length_a                    19.171576
_cell_length_b                    11.106815
_cell_length_c                    18.850731
_cell_angle_alpha                 90.415013
_cell_angle_beta                  90.485016
_cell_angle_gamma                 89.313873
_cell_volume                      4013.44919518

loop_
_atom_site_label
_atom_site_type_symbol
_atom_type_description
_atom_site_fract_x
_atom_site_fract_y
_atom_site_fract_z
_atom_type_partial_charge
C1    C     C_R   0.238391 0.467492 0.645932 0.609246
C2    C     C_R   0.760813 0.468787 0.352836 0.572526
C3    C     C_R   0.738602 0.967718 0.646943 0.586294
C4    C     C_R   0.275813 0.026849 0.359720 0.564008
C5    C     C_2   0.261731 0.862012 0.529807 0.028629
C6    C     C_2   0.696186 0.917427 0.453261 -0.014836
C7    C     C_2   0.741695 0.275677 0.511519 -0.004204
C8    C     C_2   0.193052 0.413479 0.450643 -0.026727
C9    C     C_R   0.981872 0.657165 0.436764 0.009508
C10   C     C_R   0.981969 0.682803 0.584906 0.008139
C11   C     C_R   0.481492 0.154900 0.436737 0.016148
C12   C     C_R   0.481217 0.178104 0.584995 0.004714
C13   C     C_R   0.032385 0.862853 0.429709 0.036051
C14   C     C_R   0.995683 0.904068 0.572904 0.022304
C15   C     C_R   0.534985 0.358759 0.430571 0.031104
C16   C     C_R   0.497470 0.399942 0.574250 0.013734
C17   C     C_R   0.031071 0.980877 0.457554 -0.012808
C18   C     C_R   0.016633 0.001251 0.530182 -0.020304
C19   C     C_R   0.541440 0.474069 0.461600 -0.021292
C20   C     C_R   0.525785 0.493879 0.533730 -0.029808
C21   C     C_R   0.992734 0.785914 0.542860 -0.053603
C22   C     C_R   0.002636 0.768397 0.469006 -0.048001
C23   C     C_R   0.491797 0.282270 0.543236 -0.074260
C24   C     C_R   0.502353 0.265593 0.469297 -0.062025
C25   C     C_R   0.950828 0.584594 0.555042 -0.011472
C26   C     C_R   0.959072 0.561355 0.482129 -0.003927
C27   C     C_R   0.453465 0.075663 0.554176 -0.001140
C28   C     C_R   0.461739 0.055701 0.481041 -0.002362
C29   C     C_R   0.920577 0.501275 0.600399 -0.115490
C30   C     C_R   0.947635 0.440512 0.460299 -0.046073
C31   C     C_R   0.425022 0.986610 0.597839 -0.097985
C32   C     C_R   0.453342 0.934572 0.457236 -0.054450
C33   C     C_R   0.913081 0.384792 0.578465 -0.079079
C34   C     C_R   0.928959 0.353289 0.509007 -0.058002
C35   C     C_R   0.417170 0.870516 0.572814 -0.059054
C36   C     C_R   0.435136 0.843172 0.503506 -0.056698
C37   C     C_2   0.238698 0.895702 0.928980 -0.102924
C38   C     C_2   0.746396 0.921960 0.081429 -0.117177
C39   C     C_2   0.738866 0.396152 0.928940 -0.109914
C40   C     C_2   0.245060 0.424452 0.082441 -0.107265
C41   C     C_2   0.248043 0.897659 0.085083 -0.114974
C42   C     C_2   0.748234 0.933473 0.924893 -0.115961
C43   C     C_2   0.748006 0.397581 0.085156 -0.114264
C44   C     C_2   0.245671 0.438342 0.926263 -0.102452
C45   C     C_R   0.228906 0.879745 0.652250 0.564617
C46   C     C_R   0.773162 0.876155 0.350854 0.523705
C47   C     C_R   0.705976 0.322885 0.641670 0.570089
C48   C     C_R   0.272316 0.378602 0.349984 0.505736
C49   C     C_2   0.189318 0.917762 0.048507 -0.163603
C50   C     C_2   0.776493 0.015164 0.969533 -0.165825
C51   C     C_2   0.689365 0.418005 0.048514 -0.166508
C52   C     C_2   0.272237 0.521592 0.970921 -0.154154
C53   C     C_2   0.183922 0.891519 0.973124 -0.152175
C54   C     C_2   0.786710 0.995415 0.044734 -0.174177
C55   C     C_2   0.684054 0.392309 0.973074 -0.161312
C56   C     C_2   0.284023 0.500336 0.045932 -0.162600
C57   C     C_2   0.982967 0.671516 0.909257 -0.093296
C58   C     C_2   0.996950 0.653040 0.079763 -0.077719
C59   C     C_2   0.493310 0.161281 0.913349 -0.076056
C60   C     C_2   0.510101 0.159464 0.088510 -0.075926
C61   C     C_2   0.949931 0.636220 0.027427 -0.021553
C62   C     C_2   0.975475 0.590200 0.960320 -0.029910
C63   C     C_2   0.487932 0.097553 0.032055 -0.016514
C64   C     C_2   0.526640 0.112154 0.968586 -0.020288
C65   C     C_R   0.026943 0.658346 0.647635 0.569633
C66   C     C_R   0.963469 0.652758 0.359297 0.567726
C67   C     C_R   0.525917 0.157546 0.648353 0.538665
C68   C     C_R   0.461136 0.152188 0.360029 0.577922
C69   C     C_R   0.237923 0.471731 0.852490 0.550829
C70   C     C_R   0.760569 0.463245 0.150659 0.533676
C71   C     C_R   0.738604 0.969925 0.851793 0.548717
C72   C     C_R   0.260729 0.963754 0.150399 0.554402
C73   C     C_R   0.225611 0.869288 0.854801 0.538010
C74   C     C_R   0.771827 0.873913 0.148048 0.541292
C75   C     C_R   0.725662 0.369410 0.854777 0.549305
C76   C     C_R   0.271753 0.374045 0.148077 0.551875
C77   C     C_R   0.027936 0.653551 0.848849 0.543835
C78   C     C_R   0.972185 0.651460 0.151302 0.554343
C79   C     C_R   0.525929 0.153331 0.846266 0.544976
C80   C     C_R   0.472854 0.151837 0.152864 0.568023
C81   C     C_2   0.254378 0.930836 0.588213 -0.122502
C82   C     C_2   0.757079 0.922478 0.420269 -0.126277
C83   C     C_2   0.704095 0.330224 0.563490 -0.146147
C84   C     C_2   0.252154 0.435280 0.416488 -0.139807
C85   C     C_2   0.266659 0.011909 0.435165 -0.057101
C86   C     C_2   0.744885 0.914849 0.577026 -0.001029
C87   C     C_2   0.752950 0.433768 0.425121 0.021759
C88   C     C_2   0.244983 0.411212 0.575145 -0.033625
C89   C     C_2   0.287871 0.908474 0.463512 -0.125275
C90   C     C_2   0.694815 0.946964 0.529253 -0.111633
C91   C     C_2   0.732212 0.322735 0.439813 -0.114425
C92   C     C_2   0.190965 0.430005 0.528680 -0.078040
Cr1   Cr    Cr6+3 0.113970 0.508630 0.747920 1.048658
Cr2   Cr    Cr6+3 0.886030 0.508630 0.252080 1.040717
Cr3   Cr    Cr6+3 0.613970 0.008630 0.747920 1.035362
Cr4   Cr    Cr6+3 0.386030 0.008630 0.252080 1.034464
Cr5   Cr    Cr6+3 0.269200 0.666740 0.749850 1.059444
Cr6   Cr    Cr6+3 0.730800 0.666740 0.250150 1.079767
Cr7   Cr    Cr6+3 0.769200 0.166740 0.749850 1.064137
Cr8   Cr    Cr6+3 0.230800 0.166740 0.250150 1.087323
Cr9   Cr    Cr6+3 0.112300 0.820070 0.749800 1.083112
Cr10  Cr    Cr6+3 0.887700 0.820070 0.250200 1.078566
Cr11  Cr    Cr6+3 0.612300 0.320070 0.749800 1.062740
Cr12  Cr    Cr6+3 0.387700 0.320070 0.250200 1.075638
H1    H     H_    0.315909 0.843947 0.430447 0.183111
H2    H     H_    0.651748 0.005206 0.545828 0.137999
H3    H     H_    0.724362 0.258919 0.396623 0.180791
H4    H     H_    0.142907 0.471078 0.548073 0.182834
H5    H     H_    0.131464 0.876947 0.952662 0.155844
H6    H     H_    0.831632 0.038362 0.069142 0.162230
H7    H     H_    0.631576 0.378000 0.952601 0.158657
H8    H     H_    0.329208 0.543048 0.069970 0.159354
H9    H     H_    0.290826 0.845680 0.062339 0.098037
H10   H     H_    0.727262 0.848798 0.942918 0.095362
H11   H     H_    0.790873 0.345939 0.062317 0.106068
H12   H     H_    0.225928 0.352767 0.944301 0.093465
H13   H     H_    0.291719 0.908953 0.947685 0.082504
H14   H     H_    0.699454 0.883889 0.058240 0.106638
H15   H     H_    0.791952 0.409341 0.947639 0.091689
H16   H     H_    0.197609 0.387286 0.059750 0.105247
H17   H     H_    0.052003 0.633997 0.070975 0.083670
H18   H     H_    0.963863 0.763158 0.918198 0.102571
H19   H     H_    0.552852 0.222774 0.085087 0.082210
H20   H     H_    0.440672 0.198246 0.917223 0.082734
H21   H     H_    0.271400 0.022736 0.591416 0.072695
H22   H     H_    0.802799 0.948145 0.450065 0.174270
H23   H     H_    0.663283 0.391456 0.544803 0.128535
H24   H     H_    0.294639 0.477980 0.444393 0.164415
H25   H     H_    0.959629 0.404825 0.408903 0.208457
H26   H     H_    0.909863 0.523608 0.655407 0.133846
H27   H     H_    0.466469 0.901608 0.405443 0.207890
H28   H     H_    0.412932 0.005569 0.652912 0.122332
H29   H     H_    0.898343 0.320434 0.617642 0.226917
H30   H     H_    0.928530 0.260619 0.492868 0.226854
H31   H     H_    0.397567 0.801796 0.607515 0.186289
H32   H     H_    0.432264 0.751388 0.484220 0.197273
H33   H     H_    0.144980 0.963541 0.072645 0.159781
H34   H     H_    0.796187 0.100067 0.950056 0.160183
H35   H     H_    0.644959 0.463470 0.072720 0.159953
H36   H     H_    0.290997 0.606966 0.951164 0.157553
O1    O     O_R   0.043230 0.549300 0.667990 -0.510634
O2    O     O_R   0.956770 0.549300 0.332010 -0.506497
O3    O     O_R   0.543230 0.049300 0.667990 -0.507191
O4    O     O_R   0.456770 0.049300 0.332010 -0.515038
O5    O     O_R   0.262920 0.788600 0.824420 -0.513429
O6    O     O_R   0.737080 0.788600 0.175580 -0.497959
O7    O     O_R   0.762920 0.288600 0.824420 -0.506592
O8    O     O_R   0.237080 0.288600 0.175580 -0.493778
O9    O     O_R   0.167530 0.905110 0.830340 -0.510697
O10   O     O_R   0.832470 0.905110 0.169660 -0.512818
O11   O     O_R   0.667530 0.405110 0.830340 -0.499022
O12   O     O_R   0.332470 0.405110 0.169660 -0.506853
O13   O     O_R   0.054010 0.748440 0.822860 -0.510788
O14   O     O_R   0.945990 0.748440 0.177140 -0.485707
O15   O     O_R   0.554010 0.248440 0.822860 -0.500561
O16   O     O_R   0.445990 0.248440 0.177140 -0.489346
O17   O     O_3   0.165160 0.665150 0.749190 -0.263992
O18   O     O_3   0.834840 0.665150 0.250810 -0.289191
O19   O     O_3   0.665160 0.165150 0.749190 -0.303099
O20   O     O_3   0.334840 0.165150 0.250810 -0.309369
O21   O     O_R   0.178620 0.457600 0.674100 -0.502935
O22   O     O_R   0.821380 0.457600 0.325900 -0.516372
O23   O     O_R   0.678620 0.957600 0.674100 -0.514293
O24   O     O_R   0.321380 0.957600 0.325900 -0.516272
O25   O     O_R   0.284680 0.542100 0.669460 -0.468387
O26   O     O_R   0.715320 0.542100 0.330540 -0.443606
O27   O     O_R   0.784680 0.042100 0.669460 -0.431615
O28   O     O_R   0.215320 0.042100 0.330540 -0.437476
O29   O     O_R   0.262860 0.790390 0.676650 -0.498684
O30   O     O_R   0.737140 0.790390 0.323350 -0.466207
O31   O     O_R   0.762860 0.290390 0.676650 -0.460710
O32   O     O_R   0.237140 0.290390 0.323350 -0.497437
O33   O     O_R   0.167460 0.907030 0.670940 -0.459590
O34   O     O_R   0.832540 0.907030 0.329060 -0.480931
O35   O     O_R   0.667460 0.407030 0.670940 -0.473934
O36   O     O_R   0.332540 0.407030 0.329060 -0.491820
O37   O     O_R   0.053950 0.750220 0.675100 -0.468207
O38   O     O_R   0.946050 0.750220 0.324900 -0.479408
O39   O     O_R   0.553950 0.250220 0.675100 -0.501703
O40   O     O_R   0.446050 0.250220 0.324900 -0.476470
O41   O     O_R   0.043300 0.547370 0.827390 -0.517540
O42   O     O_R   0.956700 0.547370 0.172610 -0.500683
O43   O     O_R   0.543300 0.047370 0.827390 -0.512635
O44   O     O_R   0.456700 0.047370 0.172610 -0.505613
O45   O     O_R   0.178690 0.455820 0.821860 -0.501992
O46   O     O_R   0.821310 0.455820 0.178140 -0.508081
O47   O     O_R   0.678690 0.955820 0.821860 -0.501844
O48   O     O_R   0.321310 0.955820 0.178140 -0.503914
O49   O     O_R   0.284750 0.540170 0.828860 -0.509307
O50   O     O_R   0.715250 0.540170 0.171140 -0.514968
O51   O     O_R   0.784750 0.040170 0.828860 -0.507967
O52   O     O_R   0.215250 0.040170 0.171140 -0.504230
C93   C     C_3   0.873097 0.664946 0.034664 -0.357951
H37   H     H_    0.844263 0.643131 0.984927 0.119724
H38   H     H_    0.850226 0.612471 0.078112 0.160078
H39   H     H_    0.866180 0.762417 0.045860 0.148624
C94   C     C_3   0.002407 0.461787 0.957118 -0.356526
H40   H     H_    0.990133 0.413446 0.006804 0.130941
H41   H     H_    0.976929 0.412731 0.912590 0.155642
H42   H     H_    0.059979 0.460087 0.950880 0.151161
C95   C     C_3   0.423010 0.020280 0.029514 -0.355933
H43   H     H_    0.411887 0.988352 0.974657 0.111954
H44   H     H_    0.430447 0.938730 0.062479 0.165775
H45   H     H_    0.376952 0.073044 0.047946 0.135397
C96   C     C_3   0.601797 0.068903 0.967682 -0.348971
H46   H     H_    0.622205 0.054912 0.022296 0.122128
H47   H     H_    0.605064 0.981130 0.939559 0.170841
H48   H     H_    0.635441 0.136047 0.941759 0.138681
C97   C     C_2   0.255872 0.731117 0.531926 0.605859
O53   O     O_2   0.202782 0.684052 0.552977 -0.511521
O54   O     O_R   0.314091 0.663198 0.512485 -0.751428
H49   H     H_    0.319270 0.588001 0.541029 0.336254
C98   C     C_2   0.629387 0.894503 0.416704 0.635291
O55   O     O_2   0.585245 0.839444 0.448446 -0.470993
O56   O     O_R   0.614175 0.936990 0.348555 -0.650410
H50   H     H_    0.650567 0.993671 0.329883 0.320479
C99   C     C_2   0.800116 0.188338 0.516253 0.529057
O57   O     O_2   0.825150 0.148338 0.461363 -0.541953
O58   O     O_R   0.832800 0.161308 0.579417 -0.666730
H51   H     H_    0.870564 0.097539 0.573376 0.356928
C100  C     C_2   0.126843 0.391869 0.411448 0.628900
O59   O     O_2   0.081743 0.333676 0.439591 -0.474548
O60   O     O_R   0.113260 0.440066 0.344243 -0.634710
H52   H     H_    0.149440 0.499454 0.328250 0.322793
C101  C     C_3   0.215209 0.096023 0.471110 -0.330800
H53   H     H_    0.169692 0.043580 0.488185 0.205740
H54   H     H_    0.238167 0.144070 0.516303 0.114926
H55   H     H_    0.196898 0.167883 0.435146 0.211702
C102  C     C_3   0.800649 0.821230 0.564245 -0.378619
H56   H     H_    0.785568 0.761023 0.520335 0.122084
H57   H     H_    0.850177 0.865410 0.550898 0.152954
H58   H     H_    0.808178 0.764527 0.612039 0.169724
C103  C     C_3   0.771677 0.527400 0.480167 -0.366839
H59   H     H_    0.723790 0.569841 0.501704 0.210808
H60   H     H_    0.801787 0.488406 0.524423 0.138482
H61   H     H_    0.804374 0.597695 0.455979 0.116479
C104  C     C_3   0.310526 0.340631 0.557757 -0.400165
H62   H     H_    0.308583 0.293620 0.506016 0.106193
H63   H     H_    0.355370 0.401540 0.555806 0.161837
H64   H     H_    0.319675 0.270999 0.598834 0.167659
C105  C     C_2   0.032046 0.082607 0.407536 0.655193
O61   O     O_2   0.085645 0.108960 0.377323 -0.444902
O62   O     O_R   0.969580 0.141751 0.390479 -0.670602
H65   H     H_    0.975663 0.205492 0.352890 0.345267
C106  C     C_2   0.029551 0.121541 0.562924 0.600530
O63   O     O_2   0.989281 0.163879 0.606387 -0.532443
O64   O     O_R   0.090269 0.183389 0.547796 -0.685823
H66   H     H_    0.094686 0.260267 0.576703 0.354150
C107  C     C_2   0.560171 0.576735 0.416958 0.665416
O65   O     O_2   0.619548 0.614418 0.418379 -0.442830
O66   O     O_R   0.509914 0.628166 0.371993 -0.670827
H67   H     H_    0.529154 0.696069 0.342625 0.358251
C108  C     C_2   0.543946 0.610828 0.567651 0.632159
O67   O     O_2   0.500982 0.665577 0.603017 -0.519381
O68   O     O_R   0.611327 0.655870 0.561525 -0.662990
H68   H     H_    0.617617 0.734755 0.588067 0.357576
C109  C     C_2   0.074589 0.835218 0.365311 0.615679
O69   O     O_2   0.116548 0.751406 0.366579 -0.517971
O70   O     O_R   0.065586 0.902078 0.303250 -0.641294
H69   H     H_    0.097168 0.873229 0.263577 0.338498
C110  C     C_2   0.970753 0.927884 0.646951 0.619498
O71   O     O_2   0.915826 0.885651 0.666913 -0.557040
O72   O     O_R   0.012837 0.990596 0.695338 -0.619961
H70   H     H_    0.991110 0.997759 0.744060 0.323536
C111  C     C_2   0.572882 0.331271 0.362933 0.588604
O73   O     O_2   0.602574 0.234014 0.355442 -0.563638
O74   O     O_R   0.573248 0.413973 0.307341 -0.648817
H71   H     H_    0.600346 0.383454 0.264751 0.332097
C112  C     C_2   0.471064 0.426070 0.647902 0.625976
O75   O     O_2   0.417929 0.378767 0.668829 -0.556686
O76   O     O_R   0.510795 0.494428 0.695660 -0.625520
H72   H     H_    0.488588 0.501667 0.744155 0.324971

loop_
_geom_bond_atom_site_label_1
_geom_bond_atom_site_label_2
_ccdc_geom_bond_type
C84   H24   S    
C69   O45   A    
C7    C83   D    
C79   O43   A    
Cr3   O3    S    
C6    C82   D    
Cr7   O19   S    
Cr8   O32   S    
C95   H43   S    
C14   C18   A    
C5    C89   S    
Cr9   O33   S    
O60   H52   S    
C15   C111  S    
Cr6   O50   S    
Cr1   O1    S    
C67   O3    A    
Cr10  O18   S    
C16   C112  S    
C3    O27   A    
C20   C108  S    
Cr12  O36   S    
C96   H46   S    
C94   H42   S    
C15   C19   A    
C66   O38   A    
C12   C23   A    
C59   C64   D    
C50   C54   S    
C60   C63   D    
Cr3   O19   S    
C32   C36   A    
C14   C21   A    
C21   C22   A    
Cr4   O44   S    
C109  O69   D    
C102  H58   S    
C87   C91   D    
C110  O71   D    
C39   H15   S    
C9    C22   A    
C10   C65   S    
Cr7   O31   S    
C34   H30   S    
O76   H72   S    
C104  H63   S    
C29   C33   A    
C11   C24   A    
C101  H55   S    
C65   O1    A    
C54   H6    S    
C17   C18   A    
C105  O61   D    
C70   O46   A    
C94   H41   S    
Cr4   O48   S    
C9    C66   S    
C82   H22   S    
Cr7   O7    S    
Cr4   O24   S    
C43   H11   S    
C57   H18   S    
C46   C82   S    
Cr1   O41   S    
C92   H4    S    
C39   C55   D    
Cr6   O18   S    
C75   O11   A    
C43   C70   S    
C40   C56   D    
O62   H65   S    
C77   O41   A    
C23   C24   A    
C4    O24   A    
C108  O67   D    
C8    C92   S    
C39   C75   S    
C111  O73   D    
Cr2   O22   S    
C41   H9    S    
Cr11  O39   S    
C61   C62   S    
Cr11  O11   S    
O70   H69   S    
C37   C53   D    
C44   C52   D    
C58   C61   D    
Cr5   O49   S    
O72   H70   S    
C17   C105  S    
Cr2   O18   S    
C48   O32   A    
C106  O63   D    
C3    C86   S    
C95   H44   S    
C2    O22   A    
Cr8   O52   S    
Cr12  O20   S    
C1    O21   A    
C107  O65   D    
C36   H32   S    
C41   C49   D    
C102  H56   S    
C42   H10   S    
C9    C26   A    
C80   O16   A    
Cr7   O27   S    
C98   O56   S    
C10   C21   A    
C25   C29   A    
C101  H54   S    
C12   C67   S    
C45   C81   S    
C107  O66   S    
C30   C34   A    
C12   C27   A    
Cr3   O47   S    
Cr2   O2    S    
C112  O75   D    
C88   C92   D    
C28   C32   A    
C90   H2    S    
C97   O53   D    
C86   C90   D    
C59   C79   S    
O58   H51   S    
C108  O68   S    
C85   C89   D    
C78   O14   A    
C4    C85   S    
Cr6   O6    S    
C57   C62   D    
C99   O57   D    
C98   O55   D    
C27   C31   A    
C68   O40   A    
C4    O28   A    
C7    C99   S    
C73   O5    A    
C78   O42   A    
C35   C36   A    
C93   H38   S    
C60   H19   S    
O56   H50   S    
C79   O15   A    
C31   H28   S    
C14   C110  S    
C57   C77   S    
Cr4   O4    S    
C100  O59   D    
C5    C81   D    
Cr8   O20   S    
O54   H49   S    
C38   C54   D    
Cr1   O21   S    
C16   C20   A    
C93   H39   S    
C7    C91   S    
Cr11  O35   S    
C101  H53   S    
O66   H67   S    
C2    C87   S    
C76   O12   A    
Cr12  O16   S    
C109  O70   S    
Cr1   O17   S    
C103  H60   S    
C76   O8    A    
Cr6   O26   S    
C46   O30   A    
C73   O9    A    
C42   C50   D    
C41   C72   S    
Cr8   O8    S    
C10   C25   A    
Cr11  O15   S    
C15   C24   A    
Cr4   O20   S    
Cr10  O10   S    
C26   C30   A    
C16   C23   A    
C47   C83   S    
C106  O64   S    
C72   O48   A    
Cr10  O38   S    
C95   H45   S    
C31   C35   A    
C104  H64   S    
C55   H7    S    
C85   C101  S    
C2    O26   A    
C35   H31   S    
O68   H68   S    
C40   H16   S    
C61   C93   S    
C27   C28   A    
C77   O13   A    
C11   C68   S    
C70   O50   A    
Cr11  O19   S    
C110  O72   S    
C49   H33   S    
C38   C74   S    
C96   H48   S    
C53   H5    S    
C59   H20   S    
Cr10  O14   S    
C60   C80   S    
C58   H17   S    
C13   C109  S    
C63   C95   S    
Cr3   O43   S    
C81   H21   S    
C1    O25   A    
C8    C84   D    
C86   C102  S    
Cr5   O5    S    
C74   O6    A    
C33   H29   S    
C19   C107  S    
Cr2   O46   S    
C62   C94   S    
C71   O47   A    
C69   O49   A    
C45   O29   A    
C71   O51   A    
C47   O31   A    
O64   H66   S    
C50   H34   S    
C51   H35   S    
Cr10  O34   S    
C66   O2    A    
C3    O23   A    
C52   H36   S    
C99   O58   S    
C30   H25   S    
C5    C97   S    
C64   C96   S    
C37   C73   S    
C87   C103  S    
C13   C17   A    
Cr3   O23   S    
Cr8   O28   S    
O74   H71   S    
C75   O7    A    
C89   H1    S    
Cr12  O12   S    
C19   C20   A    
C112  O76   S    
C25   C26   A    
Cr5   O29   S    
C100  O60   S    
C111  O74   S    
C6    C90   S    
C72   O52   A    
Cr7   O51   S    
C18   C106  S    
C43   C51   D    
Cr12  O40   S    
C6    C98   S    
C65   O37   A    
C11   C28   A    
C1    C88   S    
C49   C53   S    
C88   C104  S    
Cr9   O9    S    
C42   C71   S    
C97   O54   S    
C33   C34   A    
C13   C22   A    
C68   O4    A    
C51   C55   S    
C80   O44   A    
C94   H40   S    
C103  H61   S    
C83   H23   S    
Cr9   O37   S    
C58   C78   S    
Cr9   O17   S    
C63   C64   S    
Cr6   O30   S    
C29   H26   S    
C48   C84   S    
C45   O33   A    
C37   H13   S    
C44   H12   S    
C102  H57   S    
C93   H37   S    
C40   C76   S    
C46   O34   A    
Cr5   O25   S    
C44   C69   S    
C74   O10   A    
C38   H14   S    
C67   O39   A    
Cr2   O42   S    
C105  O62   S    
C104  H62   S    
C96   H47   S    
Cr9   O13   S    
C56   H8    S    
C32   H27   S    
C47   O35   A    
C8    C100  S    
C52   C56   S    
C103  H59   S    
Cr5   O17   S    
C48   O36   A    
C91   H3    S    
Cr1   O45   S    
