data_mof_unit_7179.cif
_audit_creation_date              2012-12-10T16:53:07-0500
_audit_creation_method            fapswitch 2.2
_symmetry_space_group_name_H-M    P1
_symmetry_Int_Tables_number       1
_space_group_crystal_system       triclinic
_cell_length_a                    10.87558
_cell_length_b                    10.917906
_cell_length_c                    9.68144
_cell_angle_alpha                 89.174933
_cell_angle_beta                  89.230794
_cell_angle_gamma                 90.679698
_cell_volume                      1149.25391373

loop_
_atom_site_label
_atom_site_type_symbol
_atom_type_description
_atom_site_fract_x
_atom_site_fract_y
_atom_site_fract_z
_atom_type_partial_charge
C1    C     C_R   0.500738 0.265244 0.500706 0.846450
C2    C     C_R   0.059557 0.488751 0.630391 0.072429
C3    C     C_R   0.126871 0.522404 0.507135 -0.155195
C4    C     C_R   0.061192 0.555331 0.385957 0.081779
C5    C     C_R   0.934158 0.538981 0.385883 -0.238124
C6    C     C_R   0.871265 0.487502 0.499425 -0.146995
C7    C     C_2   0.500458 0.934535 0.385799 -0.165386
C8    C     C_2   0.489400 0.866325 0.501174 -0.323477
C9    C     C_2   0.494485 0.068424 0.387261 -0.152205
C10   C     C_2   0.505582 0.133110 0.503395 -0.323981
C11   C     C_2   0.434736 0.422739 0.927338 0.139150
C12   C     C_R   0.262079 0.509660 0.501571 0.790009
C13   C     C_2   0.416785 0.445545 0.079914 -0.102633
C14   C     C_R   0.497922 0.734623 0.499461 0.848761
C15   C     C_R   0.737291 0.492176 0.499539 0.811272
C16   C     C_R   0.108761 0.492300 0.765665 -0.160441
C17   C     C_R   0.046124 0.438495 0.877961 -0.161536
C18   C     C_R   0.934247 0.379396 0.858392 -0.139559
C19   C     C_R   0.878679 0.386339 0.729935 -0.147214
C20   C     C_R   0.935554 0.452505 0.618966 0.093546
Cu1   Cu    Cu3+1 0.500020 0.500020 0.638630 0.913510
Cu2   Cu    Cu3+1 0.499980 0.499980 0.361370 0.927018
H1    H     H_    0.521610 0.090837 0.603186 0.139905
H2    H     H_    0.528792 0.578526 0.891219 0.187489
H3    H     H_    0.337357 0.407004 0.133815 0.154057
H4    H     H_    0.578864 0.525902 0.103430 0.194544
H5    H     H_    0.191220 0.542737 0.789934 0.169157
H6    H     H_    0.084928 0.442205 0.980190 0.118292
H7    H     H_    0.887990 0.332709 0.944098 0.133437
H8    H     H_    0.790855 0.340275 0.718915 0.147295
H9    H     H_    0.882913 0.569300 0.296669 0.159974
H10   H     H_    0.513096 0.891560 0.286168 0.168238
H11   H     H_    0.471408 0.905774 0.601204 0.146305
H12   H     H_    0.483321 0.114643 0.288167 0.161427
N1    N     N_2   0.498640 0.498660 0.846910 -0.308128
N2    N     N_2   0.498610 0.498630 0.153040 -0.299495
O1    O     O_R   0.500020 0.321960 0.617040 -0.609455
O2    O     O_R   0.499980 0.321920 0.382900 -0.566773
O3    O     O_R   0.319670 0.500020 0.617100 -0.604452
O4    O     O_R   0.319630 0.499980 0.382950 -0.575887
O5    O     O_R   0.500020 0.678080 0.617100 -0.584075
O6    O     O_R   0.499980 0.678040 0.382960 -0.570114
O7    O     O_R   0.680370 0.500020 0.617050 -0.574830
O8    O     O_R   0.680330 0.499980 0.382900 -0.582801
C21   C     C_3   0.119672 0.615555 0.257636 -0.386596
C22   C     C_3   0.176971 0.741129 0.289417 -0.300275
C23   C     C_3   0.242896 0.796166 0.162486 -0.845725
H13   H     H_    0.319927 0.736603 0.130131 0.263140
H14   H     H_    0.177882 0.806474 0.075681 0.244492
H15   H     H_    0.280821 0.887957 0.187510 0.240358
H16   H     H_    0.103312 0.804316 0.323006 0.208404
H17   H     H_    0.244008 0.733591 0.374331 0.218531
H18   H     H_    0.186825 0.554201 0.208285 0.211843
H19   H     H_    0.049640 0.630540 0.176575 0.176295
C24   C     C_3   0.381790 0.304354 0.870042 -0.307222
C25   C     C_3   0.303707 0.224126 0.970541 -0.451872
C26   C     C_3   0.258763 0.107635 0.900732 -0.837368
H20   H     H_    0.200687 0.131056 0.810805 0.260006
H21   H     H_    0.338072 0.052513 0.865254 0.247378
H22   H     H_    0.202923 0.051550 0.975407 0.246970
H23   H     H_    0.359368 0.197268 0.061367 0.224490
H24   H     H_    0.222005 0.275103 0.006529 0.221134
H25   H     H_    0.323974 0.325929 0.779899 0.242329
H26   H     H_    0.460809 0.247112 0.839067 0.212399

loop_
_geom_bond_atom_site_label_1
_geom_bond_atom_site_label_2
_ccdc_geom_bond_type
C13   N2    D    
C12   O4    A    
C21   C22   S    
C24   C25   S    
Cu1   N1    S    
C10   H1    S    
C2    C16   A    
C9    C10   D    
C23   H13   S    
Cu1   O3    S    
C1    O1    A    
C14   O6    A    
Cu2   O4    S    
C24   H26   S    
C17   H6    S    
C12   O3    A    
C11   N1    D    
C2    C3    A    
C3    C12   S    
C15   O7    A    
C7    C8    D    
C23   H14   S    
C18   H7    S    
Cu2   O6    S    
Cu1   Cu2   S    
C11   C13   S    
C13   H3    S    
C26   H20   S    
C9    H12   S    
Cu2   O8    S    
C6    C20   A    
C16   H5    S    
C14   O5    A    
Cu1   O5    S    
C1    O2    A    
H4    N2    S    
C21   H19   S    
C17   C18   A    
C23   H15   S    
C4    C21   S    
C5    C6    A    
C25   H24   S    
C26   H21   S    
H2    N1    S    
C16   C17   A    
C21   H18   S    
C3    C4    A    
Cu2   O2    S    
C22   H17   S    
C11   C24   S    
C25   C26   S    
Cu1   O1    S    
C18   C19   A    
C7    C9    S    
C15   O8    A    
C22   C23   S    
C4    C5    A    
C26   H22   S    
C8    C14   S    
C7    H10   S    
C6    C15   S    
Cu1   O7    S    
C19   H8    S    
C2    C20   A    
C22   H16   S    
Cu2   N2    S    
C1    C10   S    
C19   C20   A    
C24   H25   S    
C8    H11   S    
C5    H9    S    
C25   H23   S    
