data_mof_unit_35328.cif
_audit_creation_date              2012-12-11T17:41:40-0500
_audit_creation_method            fapswitch 2.2
_symmetry_space_group_name_H-M    P1
_symmetry_Int_Tables_number       1
_space_group_crystal_system       triclinic
_cell_length_a                    15.504239
_cell_length_b                    14.865886
_cell_length_c                    15.123361
_cell_angle_alpha                 109.735254
_cell_angle_beta                  121.283587
_cell_angle_gamma                 59.192811
_cell_volume                      2546.32136599

loop_
_atom_site_label
_atom_site_type_symbol
_atom_type_description
_atom_site_fract_x
_atom_site_fract_y
_atom_site_fract_z
_atom_type_partial_charge
C1    C     C_R   0.801990 0.938241 0.773049 -0.119584
C2    C     C_R   0.414223 0.395369 0.247020 -0.220162
C3    C     C_R   0.578554 0.760830 0.906281 -0.004559
C4    C     C_R   0.467238 0.298751 0.199228 0.019164
C5    C     C_R   0.631772 0.829915 0.949416 -0.079519
C6    C     C_R   0.402007 0.254726 0.104780 -0.021787
C7    C     C_R   0.746914 0.787865 0.975639 -0.017634
C8    C     C_R   0.284660 0.312721 0.058083 -0.045476
C9    C     C_R   0.802748 0.680862 0.947547 -0.073391
C10   C     C_R   0.235151 0.410796 0.107058 -0.061351
C11   C     C_R   0.748313 0.614822 0.900373 -0.201996
C12   C     C_R   0.244590 0.006768 0.209594 -0.045051
C13   C     C_R   0.299324 0.450833 0.201240 -0.112363
C14   C     C_R   0.572831 0.958535 0.078838 -0.236718
C15   C     C_R   0.453960 0.129346 0.962649 -0.216518
C16   C     C_R   0.215960 0.285937 0.466551 -0.106794
C17   C     C_R   0.792847 0.718874 0.546516 -0.098142
C18   C     C_R   0.512422 0.058549 0.114066 0.121131
C19   C     C_R   0.509500 0.027032 0.924848 0.058448
C20   C     C_R   0.455582 0.146414 0.059451 0.063979
C21   C     C_R   0.572728 0.941184 0.984536 -0.025041
C22   C     C_2   0.098976 0.391655 0.566801 -0.090041
C23   C     C_R   0.173331 0.294093 0.531306 0.008086
C24   C     C_2   0.957009 0.633560 0.502151 -0.079276
C25   C     C_2   0.116188 0.478253 0.587502 -0.072093
C26   C     C_2   0.029083 0.583360 0.589092 -0.084057
C27   C     C_2   0.984364 0.950339 0.842577 -0.175889
C28   C     C_2   0.150324 0.882690 0.101853 -0.182607
C29   C     C_R   0.189277 0.889243 0.622789 -0.116645
C30   C     C_R   0.907729 0.266151 0.793463 -0.127186
C31   C     C_R   0.289461 0.801533 0.632456 -0.127872
C32   C     C_R   0.808210 0.330260 0.719919 -0.142051
C33   C     C_R   0.290674 0.709983 0.563637 0.091473
C34   C     C_R   0.849211 0.715632 0.497150 0.015542
C35   C     C_R   0.707699 0.368131 0.726125 0.070826
C36   C     C_R   0.189237 0.708573 0.483758 -0.118643
C37   C     C_R   0.708049 0.339693 0.805889 -0.199008
C38   C     C_R   0.088842 0.796199 0.474129 -0.209637
C39   C     C_R   0.807841 0.277667 0.880723 -0.081786
C40   C     C_R   0.594384 0.230665 0.556521 -0.131408
C41   C     C_R   0.406390 0.780339 0.505339 -0.154474
C42   C     C_R   0.087964 0.886969 0.543835 0.047141
C43   C     C_R   0.908782 0.241991 0.876135 0.014169
C44   C     C_R   0.402202 0.518420 0.576006 -0.221669
C45   C     C_R   0.503072 0.325726 0.551511 0.052421
C46   C     C_R   0.598746 0.534677 0.645663 -0.250443
C47   C     C_R   0.503529 0.429142 0.600584 0.057115
C48   C     C_R   0.496453 0.617684 0.597817 0.055449
C49   C     C_R   0.602738 0.442525 0.653918 0.037089
C50   C     C_R   0.397429 0.615243 0.577855 0.045508
C51   C     C_2   0.039716 0.885943 0.916734 -0.095294
C52   C     C_2   0.134813 0.896288 0.010662 -0.052328
C53   C     C_R   0.408856 0.031484 0.732186 -0.162268
C54   C     C_R   0.595315 0.011635 0.287856 -0.129576
C55   C     C_R   0.409736 0.306728 0.479931 -0.127571
C56   C     C_R   0.497032 0.697452 0.561622 0.054497
C57   C     C_R   0.590426 0.708801 0.584967 -0.106541
C58   C     C_R   0.595080 0.962427 0.805137 -0.099112
C59   C     C_R   0.410659 0.085496 0.210203 -0.159808
C60   C     C_R   0.219360 0.195320 0.560764 -0.111789
C61   C     C_R   0.792719 0.810044 0.454582 -0.136089
C62   C     C_R   0.804743 0.028334 0.683983 -0.155300
C63   C     C_R   0.242105 0.915385 0.299234 -0.131281
C64   C     C_R   0.867031 0.974885 0.771767 0.142980
C65   C     C_R   0.212223 0.931115 0.199673 0.128156
C66   C     C_2   0.463720 0.798000 0.893028 0.448353
C67   C     C_R   0.503791 0.011600 0.824827 0.062303
C68   C     C_2   0.590735 0.248588 0.250677 0.493996
C69   C     C_2   0.810746 0.853547 0.035996 0.430521
C70   C     C_2   0.211948 0.271332 0.960154 0.443545
C71   C     C_2   0.975951 0.605062 0.407388 0.514566
C72   C     C_2   0.007910 0.389861 0.574404 0.551620
C73   C     C_2   0.980980 0.978619 0.532691 0.463858
C74   C     C_2   0.015664 0.181751 0.958139 0.477842
C75   C     C_R   0.505399 0.063120 0.204725 0.042338
C76   C     C_R   0.637829 0.653870 0.881432 -0.078592
H1    H     H_    0.828351 0.881396 0.821208 0.101412
H2    H     H_    0.410036 0.194921 0.917018 0.136664
H3    H     H_    0.011808 0.611016 0.656904 0.158554
H4    H     H_    0.187676 0.472273 0.584741 0.153989
H5    H     H_    0.185704 0.345120 0.419237 0.154686
H6    H     H_    0.819325 0.663015 0.595894 0.148240
H7    H     H_    0.366572 0.805831 0.691820 0.122186
H8    H     H_    0.809453 0.350280 0.658177 0.148377
H9    H     H_    0.187865 0.639964 0.428206 0.154719
H10   H     H_    0.631345 0.368397 0.812045 0.141343
H11   H     H_    0.326431 0.512165 0.552394 0.140581
H12   H     H_    0.233127 0.039454 0.148606 0.113788
H13   H     H_    0.676375 0.540192 0.676795 0.139517
H14   H     H_    0.681071 0.214277 0.599200 0.128349
H15   H     H_    0.319647 0.802639 0.478831 0.115589
H16   H     H_    0.324605 0.061128 0.721306 0.099538
H17   H     H_    0.682051 0.988079 0.310131 0.108161
H18   H     H_    0.325395 0.364531 0.449669 0.112592
H19   H     H_    0.675281 0.667027 0.638149 0.105801
H20   H     H_    0.196655 0.172483 0.603447 0.096461
H21   H     H_    0.820617 0.838125 0.421238 0.075664
H22   H     H_    0.178255 0.932774 0.007327 0.126327
H23   H     H_    0.106078 0.846279 0.104124 0.174147
H24   H     H_    0.004153 0.840249 0.918343 0.145480
H25   H     H_    0.412654 0.881208 0.903353 0.021575
H26   H     H_    0.634368 0.273084 0.331584 0.009230
H27   H     H_    0.770399 0.935553 0.061292 0.077971
H28   H     H_    0.243100 0.189328 0.930304 0.003360
H29   H     H_    0.889822 0.647298 0.964636 0.164358
H30   H     H_    0.145850 0.455965 0.073435 0.155511
H31   H     H_    0.907246 0.638409 0.335718 0.013987
H32   H     H_    0.989042 0.321503 0.540201 0.016082
H33   H     H_    0.903549 0.974998 0.471567 -0.001941
H34   H     H_    0.021648 0.994489 0.841054 0.129765
H35   H     H_    0.092816 0.152928 0.952486 -0.013182
H36   H     H_    0.191198 0.958762 0.676860 0.138321
H37   H     H_    0.984123 0.236784 0.786648 0.174400
H38   H     H_    0.011748 0.793159 0.412049 0.113575
H39   H     H_    0.806187 0.259013 0.942974 0.165623
H40   H     H_    0.681310 0.934874 0.858965 0.093257
H41   H     H_    0.325755 0.131551 0.159776 0.100067
H42   H     H_    0.836481 0.053640 0.652335 0.136744
H43   H     H_    0.227410 0.862605 0.318798 0.111349
H44   H     H_    0.793010 0.532161 0.880995 0.159567
H45   H     H_    0.259777 0.525713 0.238746 0.128103
H46   H     H_    0.598996 0.599733 0.848501 0.166317
H47   H     H_    0.462334 0.429109 0.319674 0.122879
H48   H     H_    0.615879 0.891651 0.122772 0.137352
N1    N     N_R   0.705410 0.966550 0.689210 -0.046496
N2    N     N_R   0.556610 0.796750 0.548620 -0.044131
N3    N     N_R   0.556610 0.951620 0.703500 -0.044559
N4    N     N_R   0.443390 0.048380 0.296500 -0.040865
N5    N     N_R   0.294590 0.131500 0.522480 -0.037133
N6    N     N_R   0.705410 0.868500 0.477520 -0.036833
N7    N     N_R   0.705410 0.023370 0.632390 -0.044260
N8    N     N_R   0.294590 0.976630 0.367610 -0.048568
N9    N     N_R   0.294590 0.033450 0.310790 -0.053633
N10   N     N_R   0.294590 0.188320 0.465660 -0.044150
N11   N     N_R   0.705410 0.811680 0.534340 -0.047076
N12   N     N_R   0.556610 0.157790 0.497330 -0.044089
N13   N     N_R   0.443390 0.842210 0.502670 -0.040979
N14   N     N_R   0.443390 0.997080 0.657540 -0.037513
N15   N     N_R   0.556610 0.002920 0.342460 -0.041953
N16   N     N_R   0.443390 0.203250 0.451380 -0.039773
Ni1   Ni    Ni4+2 0.629830 0.882720 0.617850 0.214680
Ni2   Ni    Ni4+2 0.370170 0.117280 0.382150 0.235013
Ni3   Ni    Ni4+2 0.629830 0.013030 0.487540 0.212961
Ni4   Ni    Ni4+2 0.370170 0.986970 0.512460 0.221895
O1    O     O_2   0.424411 0.735757 0.870437 -0.580514
O2    O     O_2   0.645316 0.182985 0.203426 -0.579319
O3    O     O_2   0.909554 0.816881 0.058084 -0.611073
O4    O     O_2   0.115394 0.329175 0.911018 -0.596711
O5    O     O_2   0.067330 0.547245 0.408224 -0.640365
O6    O     O_2   0.955729 0.461779 0.620879 -0.610265
O7    O     O_2   0.977821 0.059185 0.591370 -0.620136
O8    O     O_2   0.018960 0.163751 0.033116 -0.596281

loop_
_geom_bond_atom_site_label_1
_geom_bond_atom_site_label_2
_ccdc_geom_bond_type
N8    Ni4   S    
C63   C65   A    
N2    N13   A    
C18   C75   S    
C71   H31   S    
C29   C42   A    
C25   H4    S    
C1    H1    S    
C14   C18   A    
C29   H36   S    
N6    N11   A    
N12   N16   A    
C16   N10   A    
C31   H7    S    
C47   C49   A    
N5    Ni4   S    
C2    H47   S    
C15   C19   A    
C40   N12   A    
C46   C49   A    
N9    Ni2   S    
C14   C21   A    
C35   C37   A    
N4    N15   A    
C68   H26   S    
C38   C42   A    
N12   Ni3   S    
C11   C76   A    
C38   H38   S    
C70   H28   S    
C15   H2    S    
C9    H29   S    
C33   C36   A    
C13   H45   S    
C56   C57   A    
C48   C56   S    
C17   H6    S    
N3    Ni1   S    
C2    C13   A    
C66   O1    D    
C62   C64   A    
N15   Ni3   S    
C72   H32   S    
C27   H34   S    
N1    Ni1   S    
N8    N9    A    
C54   H17   S    
C22   C25   D    
C17   N11   A    
C31   C33   A    
C19   C67   S    
N3    N14   A    
C44   H11   S    
C41   N13   A    
C44   C47   A    
C43   C74   S    
C48   C50   A    
C58   N3    A    
C59   H41   S    
C73   O7    D    
C58   H40   S    
C23   C60   A    
C66   H25   S    
C74   O8    D    
C15   C20   A    
C55   H18   S    
C11   H44   S    
N7    Ni3   S    
C22   C72   S    
C27   C51   D    
C45   C47   S    
C40   C45   A    
C32   H8    S    
C46   C48   A    
C14   H48   S    
C12   H12   S    
C53   N14   A    
C32   C35   A    
C37   H10   S    
C4    C6    A    
C74   H35   S    
C4    C68   S    
C39   C43   A    
C25   C26   S    
C34   C61   A    
C24   C34   S    
C55   N16   A    
C51   C52   S    
C2    C4    A    
C41   C56   A    
C35   C49   S    
N6    Ni3   S    
C46   H13   S    
N10   Ni2   S    
C63   H43   S    
N1    N7    A    
C54   N15   A    
C59   N4    A    
C53   H16   S    
C63   N8    A    
C3    C76   A    
C9    C11   A    
C61   N6    A    
C60   H20   S    
C28   H23   S    
C8    C10   A    
C41   H15   S    
N13   Ni4   S    
C16   C23   A    
C39   H39   S    
C12   N9    A    
C69   O3    D    
C30   C43   A    
C10   H30   S    
C3    C66   S    
C70   O4    D    
C17   C34   A    
C1    C64   A    
C59   C75   A    
C57   N2    A    
C68   O2    D    
C5    C7    A    
C44   C50   A    
C51   H24   S    
C7    C9    A    
C42   C73   S    
C19   C21   A    
C69   H27   S    
C62   N7    A    
C61   H21   S    
C24   C26   D    
N16   Ni2   S    
C3    C5    A    
C10   C13   A    
C60   N5    A    
C7    C69   S    
C6    C8    A    
C73   H33   S    
C36   H9    S    
C6    C20   S    
C12   C65   A    
N2    Ni1   S    
C8    C70   S    
C26   H3    S    
C1    N1    A    
C76   H46   S    
C36   C38   A    
C28   C65   S    
C33   C50   S    
C29   C31   A    
N14   Ni4   S    
C30   C32   A    
C28   C52   D    
C71   O5    D    
C72   O6    D    
C52   H22   S    
C16   H5    S    
C18   C20   A    
C53   C67   A    
C62   H42   S    
C27   C64   S    
N5    N10   A    
C58   C67   A    
N11   Ni1   S    
C5    C21   S    
C45   C55   A    
C37   C39   A    
C57   H19   S    
C22   C23   S    
C40   H14   S    
N4    Ni2   S    
C24   C71   S    
C54   C75   A    
C30   H37   S    
