data_mof_unit_12608.cif
_audit_creation_date              2012-12-10T20:29:20-0500
_audit_creation_method            fapswitch 2.2
_symmetry_space_group_name_H-M    P1
_symmetry_Int_Tables_number       1
_space_group_crystal_system       triclinic
_cell_length_a                    18.697086
_cell_length_b                    18.810565
_cell_length_c                    18.868323
_cell_angle_alpha                 109.611185
_cell_angle_beta                  109.746412
_cell_angle_gamma                 109.448485
_cell_volume                      5083.51048571

loop_
_atom_site_label
_atom_site_type_symbol
_atom_type_description
_atom_site_fract_x
_atom_site_fract_y
_atom_site_fract_z
_atom_type_partial_charge
C1    C     C_R   0.382310 0.502583 0.380172 0.863075
C2    C     C_R   0.822479 0.848362 0.843835 -0.227950
C3    C     C_R   0.322713 0.336472 0.746770 0.052469
C4    C     C_R   0.078835 0.330044 0.810813 -0.069842
C5    C     C_R   0.999547 0.313275 0.812014 -0.101015
C6    C     C_R   0.920267 0.232470 0.749206 -0.057253
C7    C     C_R   0.921523 0.166667 0.687903 -0.098101
C8    C     C_R   0.000487 0.184574 0.686897 -0.116962
C9    C     C_R   0.079068 0.265055 0.747762 -0.056749
C10   C     C_R   0.806810 0.174846 0.788733 -0.051063
C11   C     C_R   0.727196 0.159885 0.785901 -0.107123
C12   C     C_R   0.674725 0.184663 0.739170 -0.113959
C13   C     C_R   0.826017 0.815073 0.572712 -0.171747
C14   C     C_R   0.701415 0.223638 0.694490 -0.131058
C15   C     C_R   0.780941 0.238552 0.697108 -0.124888
C16   C     C_R   0.835220 0.216130 0.745960 0.095082
C17   C     C_R   0.810201 0.810657 0.493639 -0.094017
C18   C     C_R   0.727383 0.749074 0.416754 0.013065
C19   C     C_R   0.667425 0.681501 0.418033 -0.059931
C20   C     C_R   0.684173 0.687924 0.499601 -0.168886
C21   C     C_R   0.761221 0.759067 0.578259 -0.010298
C22   C     C_R   0.628723 0.782349 0.323154 -0.242675
C23   C     C_R   0.596114 0.793302 0.251398 0.051594
C24   C     C_R   0.632500 0.785008 0.197114 -0.201780
C25   C     C_R   0.621422 0.620521 0.501745 0.811961
C26   C     C_R   0.700709 0.765860 0.214344 -0.002169
C27   C     C_R   0.732041 0.753976 0.285982 0.005911
C28   C     C_R   0.696334 0.762189 0.340719 0.142723
C29   C     C_R   0.435913 0.792588 0.548079 -0.058474
C30   C     C_R   0.371513 0.710120 0.473146 -0.073721
C31   C     C_R   0.390336 0.669340 0.410527 0.167569
C32   C     C_R   0.474349 0.710520 0.422796 -0.159229
C33   C     C_R   0.539459 0.791282 0.497016 -0.126071
C34   C     C_R   0.521740 0.833876 0.560400 0.000567
C35   C     C_R   0.253950 0.583894 0.263638 -0.048969
C36   C     C_R   0.620065 0.500171 0.620011 0.938739
C37   C     C_R   0.188026 0.502582 0.186928 -0.120072
C38   C     C_R   0.190274 0.425099 0.172487 -0.051676
C39   C     C_R   0.255967 0.427990 0.236917 -0.257266
C40   C     C_R   0.319180 0.506294 0.314499 -0.094043
C41   C     C_R   0.320129 0.585420 0.328843 -0.035287
C42   C     C_R   0.043464 0.289752 0.070706 -0.078557
C43   C     C_R   0.984671 0.209242 0.993741 -0.150289
C44   C     C_R   0.010422 0.178397 0.934195 -0.169310
C45   C     C_R   0.095352 0.227464 0.951774 -0.090706
C46   C     C_R   0.155834 0.308507 0.029384 -0.029214
C47   C     C_R   0.380528 0.380028 0.500195 0.980061
C48   C     C_R   0.128602 0.340936 0.088609 -0.000107
C49   C     C_R   0.224238 0.518429 0.509347 -0.128047
C50   C     C_R   0.242818 0.459752 0.530565 -0.086801
C51   C     C_R   0.219624 0.379111 0.464405 0.078479
C52   C     C_R   0.176782 0.357513 0.376931 -0.203535
C53   C     C_R   0.156738 0.415631 0.355960 -0.118211
C54   C     C_R   0.180919 0.496222 0.422069 -0.100903
C55   C     C_R   0.173214 0.253520 0.489624 -0.060463
C56   C     C_R   0.187432 0.187897 0.501848 -0.089738
C57   C     C_R   0.264143 0.183912 0.510892 -0.093792
C58   C     C_R   0.743866 0.834855 0.782832 0.034735
C59   C     C_R   0.329597 0.248755 0.512491 -0.041093
C60   C     C_R   0.314980 0.313792 0.500353 -0.069883
C61   C     C_R   0.236616 0.314972 0.485998 -0.123603
C62   C     C_R   0.321782 0.124769 0.603382 -0.199008
C63   C     C_R   0.334771 0.058791 0.613369 0.052550
C64   C     C_R   0.304500 0.980747 0.538984 -0.217613
C65   C     C_R   0.261704 0.968659 0.455324 -0.001545
C66   C     C_R   0.248054 0.035017 0.446221 -0.128023
C67   C     C_R   0.277404 0.112866 0.520135 0.067511
C68   C     C_R   0.796282 0.578530 0.651370 -0.160801
C69   C     C_R   0.723410 0.804463 0.695653 -0.016359
C70   C     C_R   0.878019 0.606260 0.657726 -0.134826
C71   C     C_R   0.935188 0.583612 0.700287 -0.204944
C72   C     C_R   0.912118 0.534786 0.739045 0.023144
C73   C     C_R   0.833935 0.517012 0.744352 0.082153
C74   C     C_R   0.772882 0.532813 0.693257 0.035649
C75   C     C_R   0.689450 0.502923 0.685424 -0.112944
C76   C     C_R   0.668300 0.465932 0.733038 -0.105808
C77   C     C_R   0.729873 0.457658 0.789445 -0.207972
C78   C     C_R   0.813412 0.485452 0.798386 -0.121411
C79   C     C_R   0.000412 0.879951 0.379924 0.925229
C80   C     C_R   0.777233 0.781002 0.667775 0.056328
C81   C     C_R   0.878986 0.877270 0.496561 0.922938
C82   C     C_R   0.000643 0.120215 0.620006 0.993255
C83   C     C_R   0.120523 0.120884 0.500915 0.986599
C84   C     C_R   0.000156 0.379579 0.879808 0.937670
C85   C     C_R   0.120425 0.499694 0.119300 0.899096
C86   C     C_R   0.001347 0.619866 0.121229 0.940463
C87   C     C_R   0.879864 0.493537 0.873544 0.940429
C88   C     C_R   0.099613 0.779582 0.554048 -0.097397
C89   C     C_R   0.093138 0.780474 0.478526 -0.058569
C90   C     C_R   0.010477 0.738587 0.403519 -0.002812
C91   C     C_R   0.855975 0.795573 0.730325 -0.182519
C92   C     C_R   0.933532 0.690594 0.403168 -0.019295
C93   C     C_R   0.941282 0.691090 0.480245 -0.098206
C94   C     C_R   0.023769 0.735790 0.555199 -0.176409
C95   C     C_R   0.009475 0.681326 0.263166 -0.065696
C96   C     C_R   0.001974 0.685826 0.187960 -0.100433
C97   C     C_R   0.992197 0.752001 0.174294 -0.076069
C98   C     C_R   0.997213 0.819573 0.239921 0.044623
C99   C     C_R   0.002221 0.814304 0.314414 -0.078115
C100  C     C_R   0.006843 0.744748 0.325566 -0.146388
C101  C     C_R   0.046787 0.797736 0.084404 -0.185348
C102  C     C_R   0.879072 0.830742 0.817869 -0.116328
C103  C     C_R   0.035850 0.789545 0.004319 0.034926
C104  C     C_R   0.951918 0.734360 0.929727 -0.141892
C105  C     C_R   0.879627 0.690131 0.935471 -0.161174
C106  C     C_R   0.890472 0.694374 0.014414 -0.012930
C107  C     C_R   0.975365 0.749032 0.089859 -0.013811
C108  C     C_R   0.295598 0.279329 0.776751 -0.225253
C109  C     C_R   0.215475 0.254222 0.775198 0.011544
C110  C     C_R   0.160672 0.284845 0.742345 0.119052
C111  C     C_R   0.188292 0.342701 0.713329 -0.147670
C112  C     C_R   0.268248 0.367803 0.714846 -0.099559
H1    H     H_    0.608096 0.793765 0.141624 0.172782
H2    H     H_    0.785378 0.740582 0.300517 0.132981
H3    H     H_    0.488698 0.680752 0.373682 0.095928
H4    H     H_    0.022704 0.312227 0.116700 0.138057
H5    H     H_    0.919031 0.170578 0.980325 0.128063
H6    H     H_    0.113830 0.201755 0.904675 0.171605
H7    H     H_    0.165670 0.541202 0.405573 0.151045
H8    H     H_    0.242795 0.580823 0.560494 0.160632
H9    H     H_    0.275471 0.477157 0.598267 0.134419
H10   H     H_    0.122379 0.398209 0.288440 0.151077
H11   H     H_    0.666764 0.801065 0.649982 0.181723
H12   H     H_    0.752188 0.594618 0.614761 0.132017
H13   H     H_    0.895357 0.641846 0.625875 0.134534
H14   H     H_    0.901397 0.783297 0.711884 0.144923
H15   H     H_    0.712953 0.432785 0.829072 0.192041
H16   H     H_    0.028945 0.735549 0.614004 0.141275
H17   H     H_    0.163555 0.813241 0.611884 0.172526
H18   H     H_    0.152492 0.815187 0.478742 0.131046
H19   H     H_    0.883566 0.656180 0.482409 0.172396
H20   H     H_    0.941977 0.846322 0.866106 0.172028
H21   H     H_    0.815452 0.649750 0.877005 0.191100
H22   H     H_    0.336992 0.255061 0.802480 0.124016
H23   H     H_    0.196825 0.212173 0.800975 0.151677
H24   H     H_    0.148426 0.369648 0.690982 0.161778
H25   H     H_    0.287986 0.412598 0.692189 0.163645
H26   H     H_    0.613008 0.172870 0.736858 0.134468
H27   H     H_    0.660184 0.241725 0.657303 0.156366
H28   H     H_    0.601416 0.789436 0.365629 0.115818
O1    O     O_R   0.408360 0.551710 0.460090 -0.611739
O2    O     O_R   0.948280 0.908380 0.356650 -0.599859
O3    O     O_R   0.960110 0.908350 0.551690 -0.622923
O4    O     O_R   0.856660 0.908370 0.448270 -0.622918
O5    O     O_R   0.051720 0.091580 0.643310 -0.651477
O6    O     O_R   0.948270 0.091600 0.539890 -0.583032
O7    O     O_R   0.143340 0.091590 0.551680 -0.637192
O8    O     O_R   0.039890 0.091610 0.448270 -0.572203
O9    O     O_R   0.051710 0.460040 0.908380 -0.650398
O10   O     O_R   0.948270 0.356620 0.908410 -0.620795
O11   O     O_R   0.143330 0.551680 0.091590 -0.636449
O12   O     O_R   0.408390 0.448280 0.356670 -0.634043
O13   O     O_R   0.039890 0.448260 0.091620 -0.595311
O14   O     O_R   0.051700 0.643310 0.091570 -0.609282
O15   O     O_R   0.948260 0.539890 0.091600 -0.609011
O16   O     O_R   0.960080 0.551670 0.908360 -0.630181
O17   O     O_R   0.856640 0.448250 0.908390 -0.628658
O18   O     O_R   0.591600 0.643340 0.551710 -0.630442
O19   O     O_R   0.591630 0.539900 0.448290 -0.619352
O20   O     O_R   0.591610 0.551720 0.643330 -0.611414
O21   O     O_R   0.591640 0.448290 0.539910 -0.588548
O22   O     O_R   0.408370 0.460100 0.551710 -0.598982
O23   O     O_R   0.408400 0.356660 0.448290 -0.619068
O24   O     O_R   0.051730 0.908360 0.460070 -0.626106
Zn1   Zn    Zn3+2 0.499980 0.569070 0.569050 1.035932
Zn2   Zn    Zn3+2 0.500020 0.430930 0.430950 1.017301
Zn3   Zn    Zn3+2 0.069080 0.999960 0.569030 0.977779
Zn4   Zn    Zn3+2 0.930920 0.999990 0.430930 1.035789
Zn5   Zn    Zn3+2 0.069060 0.569020 0.999970 0.991847
Zn6   Zn    Zn3+2 0.930920 0.430910 0.000010 0.989182
H29   H     H_    0.840915 0.874173 0.911867 0.135072
C113  C     C_2   0.738851 0.758977 0.157194 0.405901
H30   H     H_    0.713822 0.767963 0.101868 0.076563
O25   O     O_2   0.798822 0.743322 0.171266 -0.634167
C114  C     C_2   0.594075 0.920303 0.638062 0.392021
H31   H     H_    0.587112 0.952196 0.692703 0.072039
O26   O     O_2   0.664360 0.957270 0.642651 -0.585553
C115  C     C_2   0.410539 0.834317 0.610040 0.404215
H32   H     H_    0.453510 0.901374 0.662568 0.102885
O27   O     O_2   0.339394 0.793870 0.602422 -0.574002
H33   H     H_    0.305504 0.678050 0.461867 0.151268
H34   H     H_    0.604120 0.820794 0.504612 0.177721
C116  C     C_2   0.253091 0.666179 0.274325 0.428802
H35   H     H_    0.191541 0.664677 0.244464 0.123587
O28   O     O_2   0.321122 0.736030 0.313509 -0.580644
H36   H     H_    0.256919 0.368057 0.226706 0.172467
C117  C     C_2   0.685082 0.854698 0.811647 0.369545
H37   H     H_    0.704942 0.883392 0.880268 0.069822
O29   O     O_2   0.613461 0.838296 0.759312 -0.599719
H38   H     H_    0.964672 0.115969 0.874481 0.154090
C118  C     C_2   0.246994 0.357607 0.048369 0.486079
H39   H     H_    0.291461 0.424329 0.102112 0.093164
O30   O     O_2   0.273929 0.323819 0.004253 -0.537966
H40   H     H_    0.157831 0.295262 0.325159 0.140609
C119  C     C_2   0.093443 0.260285 0.480810 0.402162
H41   H     H_    0.064526 0.280767 0.436936 0.086012
O31   O     O_2   0.061285 0.246674 0.524670 -0.590379
C120  C     C_2   0.412748 0.247351 0.527479 0.404210
H42   H     H_    0.411693 0.185737 0.502857 0.075220
O32   O     O_2   0.483623 0.314655 0.570273 -0.591237
H43   H     H_    0.345152 0.185083 0.660293 0.105609
C121  C     C_2   0.380156 0.072662 0.701975 0.359479
H44   H     H_    0.403845 0.133937 0.758551 0.056727
O33   O     O_2   0.391488 0.016083 0.713043 -0.569577
H45   H     H_    0.314965 0.929636 0.546080 0.167365
C122  C     C_2   0.232817 0.886776 0.378505 0.412710
H46   H     H_    0.238495 0.834015 0.386501 0.081921
O34   O     O_2   0.203215 0.877431 0.305584 -0.588054
H47   H     H_    0.215678 0.026878 0.382123 0.197593
H48   H     H_    0.604097 0.444209 0.727209 0.217435
H49   H     H_    0.995349 0.599422 0.697959 0.138555
C123  C     C_2   0.962919 0.491361 0.757034 0.432131
H50   H     H_    0.032775 0.523888 0.779612 0.054219
O35   O     O_2   0.925890 0.416420 0.741014 -0.634145
C124  C     C_2   0.846037 0.637574 0.322530 0.322466
H51   H     H_    0.839369 0.634892 0.262166 0.106834
O36   O     O_2   0.779949 0.595731 0.322258 -0.527410
C125  C     C_2   0.019426 0.611022 0.278075 0.380795
H52   H     H_    0.991501 0.587217 0.312829 0.086172
O37   O     O_2   0.061401 0.581102 0.254838 -0.625665
C126  C     C_2   0.998177 0.894990 0.229322 0.441282
H53   H     H_    0.959252 0.884568 0.165360 0.069515
O38   O     O_2   0.045314 0.969702 0.290938 -0.606012
H54   H     H_    0.111650 0.839467 0.142127 0.187865
C127  C     C_2   0.112887 0.837964 0.999477 0.371346
H55   H     H_    0.177425 0.880219 0.057981 0.084239
O39   O     O_2   0.105427 0.831333 0.930365 -0.577592
H56   H     H_    0.942097 0.724522 0.866553 0.176774
C128  C     C_2   0.813786 0.639315 0.016348 0.410773
H57   H     H_    0.822874 0.631506 0.072542 0.116367
O40   O     O_2   0.739148 0.601394 0.954758 -0.567446
C129  C     C_2   0.408625 0.364321 0.750966 0.403096
H58   H     H_    0.450971 0.341302 0.778002 0.052371
O41   O     O_2   0.433270 0.413216 0.724440 -0.557475
H59   H     H_    0.887052 0.867847 0.632149 0.176427
C130  C     C_2   0.162088 0.415755 0.873515 0.407753
H60   H     H_    0.165209 0.475175 0.875964 0.094415
O42   O     O_2   0.228928 0.419893 0.920073 -0.537957
C131  C     C_2   0.840041 0.079096 0.626284 0.434529
H61   H     H_    0.775839 0.073638 0.601255 0.106753
O43   O     O_2   0.843632 0.012115 0.605886 -0.580102
H62   H     H_    0.846345 0.154608 0.824314 0.125383
H63   H     H_    0.705998 0.128706 0.819602 0.127115
H64   H     H_    0.799294 0.266062 0.659884 0.189429
C132  C     C_2   0.585752 0.606800 0.334831 0.463896
H65   H     H_    0.526150 0.572316 0.334480 0.050169
O44   O     O_2   0.584812 0.581712 0.265676 -0.509184
C133  C     C_2   0.524044 0.813271 0.234226 0.425695
H66   H     H_    0.496756 0.819070 0.276986 0.092471
O45   O     O_2   0.494150 0.823357 0.172315 -0.550795

loop_
_geom_bond_atom_site_label_1
_geom_bond_atom_site_label_2
_ccdc_geom_bond_type
C78   C87   S    
C101  C107  A    
C55   C119  S    
C55   C56   A    
C93   C94   A    
C91   H14   S    
C109  H23   S    
C11   H63   S    
C73   C74   A    
C105  C106  A    
C95   C96   A    
C10   H62   S    
C79   O24   A    
C86   O15   A    
C68   H12   S    
C118  O30   D    
C97   C98   A    
C7    C8    A    
C114  O26   D    
O10   Zn6   S    
C77   C78   A    
C133  H66   S    
C26   C27   A    
C29   C30   A    
C121  O33   D    
C62   C67   A    
C1    O12   A    
O9    Zn5   S    
C37   C85   S    
C63   C121  S    
C131  H61   S    
C102  H20   S    
C88   C89   A    
C53   H10   S    
C116  O28   D    
O5    Zn3   S    
C5    C6    A    
C122  O34   D    
C111  H24   S    
C57   C59   A    
C79   O2    A    
C106  C107  A    
C69   H11   S    
C59   C120  S    
C68   C74   A    
C15   C16   A    
C130  O42   D    
C98   C126  S    
C22   H28   S    
O16   Zn5   S    
C9    C110  S    
C95   C125  S    
C108  C109  A    
C92   C124  S    
C18   C19   A    
C23   C133  S    
C49   C50   A    
C110  C111  A    
C92   C93   A    
C49   H8    S    
C34   C114  S    
C1    C40   S    
C44   H38   S    
C47   C60   S    
C79   C99   S    
C47   O22   A    
C90   C92   A    
C81   O4    A    
C19   C20   A    
C133  O45   D    
C8    C9    A    
C51   C61   S    
O13   Zn6   S    
C25   O19   A    
C62   H43   S    
C23   C24   A    
C70   C71   A    
C46   C118  S    
C38   C48   S    
O21   Zn2   S    
C77   H15   S    
C2    H29   S    
C13   H59   S    
C27   C28   A    
C47   O23   A    
C84   O9    A    
C132  H65   S    
C66   C67   A    
C26   C113  S    
C24   H1    S    
C101  C103  A    
C22   C28   A    
C54   H7    S    
C39   H36   S    
C50   H9    S    
C88   H17   S    
C57   C67   S    
C90   C100  S    
C104  C105  A    
C82   O6    A    
C128  H57   S    
C113  O25   D    
C104  H56   S    
C88   C94   A    
C45   H6    S    
C38   C39   A    
C46   C48   A    
C74   C75   A    
C13   C21   A    
C51   C52   A    
C115  H32   S    
O23   Zn2   S    
C52   H40   S    
C76   C77   A    
C130  H60   S    
C121  H44   S    
C39   C40   A    
C5    C84   S    
C95   C100  A    
C72   C73   A    
C42   C48   A    
C65   C122  S    
C50   C51   A    
C45   C46   A    
C6    C16   S    
C29   C34   A    
C83   O8    A    
C30   C31   A    
C89   H18   S    
C119  H41   S    
O14   Zn5   S    
C60   C61   A    
C37   C38   A    
C75   C76   A    
C85   O11   A    
C116  H35   S    
C108  H22   S    
C126  H53   S    
O7    Zn3   S    
C36   C75   S    
O17   Zn6   S    
O22   Zn1   S    
C125  O37   D    
C31   C32   A    
C14   C15   A    
C81   O3    A    
C3    C112  A    
C73   C78   A    
C96   C97   A    
C62   C63   A    
C129  O41   D    
C17   C18   A    
C18   C28   S    
C115  O27   D    
C131  O43   D    
C85   O13   A    
O20   Zn1   S    
C14   H27   S    
C66   H47   S    
O3    Zn3   S    
C120  H42   S    
C86   C96   S    
C43   H5    S    
C83   O7    A    
C70   H13   S    
C42   H4    S    
C40   C41   A    
C123  O35   D    
C65   C66   A    
C71   H49   S    
C29   C115  S    
C132  O44   D    
C43   C44   A    
C36   O21   A    
O8    Zn4   S    
C30   H33   S    
C12   H26   S    
C42   C43   A    
C91   C102  A    
C113  H30   S    
C89   C90   A    
C33   H34   S    
C25   O18   A    
C82   O5    A    
C52   C53   A    
C19   C132  S    
C56   C83   S    
C105  H21   S    
C7    C131  S    
C76   H48   S    
C118  H39   S    
C56   C57   A    
O6    Zn4   S    
C15   H64   S    
C31   C41   S    
C111  C112  A    
C35   C37   A    
C58   C117  S    
C122  H46   S    
C112  H25   S    
O24   Zn3   S    
C44   C45   A    
C8    C82   S    
C24   C26   A    
C4    C5    A    
C3    C129  S    
O12   Zn2   S    
C11   C12   A    
C2    C58   A    
C58   C69   A    
C53   C54   A    
C6    C7    A    
C94   H16   S    
C3    C108  A    
C103  C127  S    
C64   H45   S    
O1    Zn1   S    
O11   Zn5   S    
O19   Zn2   S    
C13   C17   A    
C64   C65   A    
C80   C91   A    
C124  O36   D    
C12   C14   A    
C117  H37   S    
C128  O40   D    
C114  H31   S    
C10   C16   A    
C99   C100  A    
C32   C33   A    
C101  H54   S    
C106  C128  S    
O15   Zn6   S    
C125  H52   S    
C72   C123  S    
C93   H19   S    
C55   C61   A    
C21   C80   S    
C129  H58   S    
C127  O39   D    
C33   C34   A    
C4    C130  S    
C17   C81   S    
C124  H51   S    
C86   O14   A    
C35   C41   A    
C32   H3    S    
C117  O29   D    
C1    O1    A    
C10   C11   A    
C36   O20   A    
O2    Zn4   S    
C63   C64   A    
C97   C107  S    
C27   H2    S    
C87   O17   A    
C59   C60   A    
C71   C72   A    
C20   C21   A    
C126  O38   D    
C98   C99   A    
C20   C25   S    
C103  C104  A    
C68   C70   A    
C2    C102  A    
C22   C23   A    
C69   C80   A    
C120  O32   D    
O4    Zn4   S    
C119  O31   D    
C4    C9    A    
C109  C110  A    
C35   C116  S    
C87   O16   A    
C49   C54   A    
O18   Zn1   S    
C123  H50   S    
C127  H55   S    
C84   O10   A    
