data_mof_unit_45680.cif
_audit_creation_date              2012-12-11T14:50:49-0500
_audit_creation_method            fapswitch 2.2
_symmetry_space_group_name_H-M    P1
_symmetry_Int_Tables_number       1
_space_group_crystal_system       triclinic
_cell_length_a                    20.762607
_cell_length_b                    7.289928
_cell_length_c                    20.196751
_cell_angle_alpha                 90.400251
_cell_angle_beta                  101.739664
_cell_angle_gamma                 89.499511
_cell_volume                      2992.83704535

loop_
_atom_site_label
_atom_site_type_symbol
_atom_type_description
_atom_site_fract_x
_atom_site_fract_y
_atom_site_fract_z
_atom_type_partial_charge
O1    O     O_R   0.423690 0.494470 0.435930 -0.537993
O2    O     O_R   0.576310 0.994470 0.564070 -0.537877
O3    O     O_R   0.556070 0.822310 0.435760 -0.522504
O4    O     O_R   0.443930 0.322310 0.564240 -0.532058
C1    C     C_R   0.575202 0.655400 0.421067 0.712556
C2    C     C_R   0.424694 0.157195 0.578995 0.716113
O5    O     O_R   0.422940 0.824080 0.428040 -0.537388
O6    O     O_R   0.577060 0.324080 0.571960 -0.536164
O7    O     O_R   0.442240 0.995960 0.556300 -0.535399
O8    O     O_R   0.557760 0.495960 0.443700 -0.538235
C3    C     C_R   0.398927 0.657044 0.411012 0.691469
C4    C     C_R   0.601091 0.156674 0.588978 0.697561
O9    O     O_3   0.506490 0.661310 0.542090 -0.375927
O10   O     O_3   0.493510 0.161310 0.457910 -0.374000
V1    V     V_3+5 0.498800 0.935560 0.492190 1.431027
V2    V     V_3+5 0.501200 0.435560 0.507810 1.420756
C5    C     C_R   0.834187 0.076760 0.861882 -0.134616
C6    C     C_R   0.165750 0.575255 0.138241 -0.131264
C7    C     C_R   0.661574 0.157532 0.643350 -0.064616
C8    C     C_R   0.338485 0.658577 0.356570 -0.063907
C9    C     C_R   0.758397 0.325484 0.702121 0.004593
C10   C     C_R   0.241595 0.828410 0.297567 0.002829
C11   C     C_R   0.705724 0.303395 0.647043 -0.245581
C12   C     C_R   0.294330 0.806535 0.352641 -0.247125
C13   C     C_R   0.671441 0.028918 0.695591 -0.214376
C14   C     C_R   0.328584 0.527747 0.304557 -0.216473
C15   C     C_R   0.724143 0.046096 0.752539 0.115617
C16   C     C_R   0.275847 0.544649 0.247611 0.115462
C17   C     C_R   0.769158 0.193656 0.754971 0.101770
C18   C     C_R   0.230813 0.694375 0.244946 0.100779
C19   C     C_R   0.824585 0.202341 0.808682 -0.230403
C20   C     C_R   0.175359 0.703083 0.191238 -0.225036
C21   C     C_R   0.785987 0.940044 0.863016 0.024523
C22   C     C_R   0.213957 0.435965 0.137352 0.021149
C23   C     C_R   0.731602 0.921603 0.807672 0.116960
C24   C     C_R   0.268363 0.417622 0.192712 0.120648
H1    H     H_    0.863043 0.300779 0.808198 0.175662
H2    H     H_    0.136896 0.803534 0.191557 0.177873
H3    H     H_    0.697672 0.405537 0.607341 0.118117
H4    H     H_    0.302387 0.910298 0.392169 0.117536
H5    H     H_    0.636073 0.919514 0.692021 0.135477
H6    H     H_    0.363944 0.416660 0.308306 0.135313
C25   C     C_3   0.264138 0.213841 0.823323 -0.322656
C26   C     C_3   0.739027 0.739081 0.179422 -0.371860
C27   C     C_3   0.240016 0.882253 0.780195 -0.061015
C28   C     C_3   0.756753 0.398595 0.211222 -0.042455
C29   C     C_3   0.285876 0.902576 0.722146 0.241346
C30   C     C_3   0.709257 0.415629 0.267137 0.196446
H7    H     H_    0.280530 0.193186 0.878537 0.238573
H8    H     H_    0.719218 0.714603 0.124939 0.237986
C31   C     C_1   0.379971 0.154082 0.625581 -0.169752
C32   C     C_1   0.619927 0.648105 0.374692 -0.154542
C33   C     C_3   0.208438 0.077747 0.792001 0.092430
C34   C     C_3   0.791614 0.591000 0.207187 0.123305
C35   C     C_3   0.323074 0.206240 0.785306 -0.083531
C36   C     C_3   0.683441 0.752261 0.222198 -0.039767
C37   C     C_3   0.296887 0.115718 0.712635 0.086386
C38   C     C_3   0.703736 0.624969 0.287480 0.143917
C39   C     C_3   0.228349 0.205506 0.680535 -0.359193
C40   C     C_3   0.773802 0.692983 0.324436 -0.365500
C41   C     C_3   0.174398 0.148766 0.719937 -0.007081
C42   C     C_3   0.826352 0.645752 0.281724 -0.031554
C43   C     C_1   0.342617 0.146017 0.664656 -0.052818
C44   C     C_1   0.657434 0.642047 0.335774 0.017752
C45   C     C_1   0.160212 0.074105 0.838412 0.000427
C46   C     C_1   0.839924 0.586453 0.161193 0.049247
C47   C     C_1   0.121436 0.078215 0.876121 -0.113627
C48   C     C_1   0.878725 0.585839 0.123636 -0.083234
H9    H     H_    0.147756 0.033908 0.690778 0.125082
H10   H     H_    0.855067 0.526693 0.306156 0.146863
H11   H     H_    0.232883 0.355402 0.678679 0.199641
H12   H     H_    0.773367 0.842659 0.334428 0.167908
H13   H     H_    0.241924 0.353314 0.821014 0.171585
H14   H     H_    0.764945 0.871158 0.178202 0.151467
H15   H     H_    0.212501 0.165617 0.626463 0.137360
H16   H     H_    0.788740 0.637575 0.376371 0.138467
O11   O     O_R   0.942280 0.741210 0.056360 -0.517395
O12   O     O_R   0.057720 0.241210 0.943640 -0.520723
O13   O     O_R   0.077070 0.409690 0.071960 -0.533430
O14   O     O_R   0.922930 0.909690 0.928040 -0.533820
C49   C     C_R   0.102194 0.576608 0.087430 0.736504
C50   C     C_R   0.897785 0.077098 0.912596 0.735639
O15   O     O_R   0.943940 0.411580 0.064250 -0.527824
O16   O     O_R   0.056060 0.911580 0.935750 -0.540504
O17   O     O_R   0.923670 0.239840 0.935920 -0.540283
O18   O     O_R   0.076330 0.739840 0.064080 -0.537630
C51   C     C_R   0.924555 0.579965 0.078411 0.711049
C52   C     C_R   0.075536 0.078101 0.921507 0.711862
O19   O     O_3   0.993540 0.572620 0.957940 -0.382787
O20   O     O_3   0.006460 0.072620 0.042060 -0.372315
V3    V     V_3+5 0.001200 0.298330 0.007800 1.521777
V4    V     V_3+5 0.998800 0.798330 0.992200 1.507880
C53   C     C_2   0.276041 0.799368 0.847292 0.462517
H17   H     H_    0.300503 0.667995 0.847962 0.071665
O21   O     O_2   0.273784 0.868364 0.902043 -0.499221
C54   C     C_2   0.718675 0.337253 0.140995 0.382560
H18   H     H_    0.733145 0.214537 0.116726 0.119956
O22   O     O_2   0.670375 0.419280 0.110703 -0.498335
C55   C     C_3   0.355463 0.804597 0.738517 -0.722043
H19   H     H_    0.372623 0.768975 0.792041 0.225114
H20   H     H_    0.358976 0.684312 0.705650 0.228193
H21   H     H_    0.396147 0.885887 0.726645 0.182034
C56   C     C_3   0.636770 0.342263 0.242177 -0.569370
H22   H     H_    0.599212 0.443031 0.222903 0.148893
H23   H     H_    0.629875 0.241122 0.200753 0.221957
H24   H     H_    0.616380 0.290538 0.285064 0.233058
C57   C     C_3   0.252236 0.818310 0.651401 -0.676126
H25   H     H_    0.277936 0.860200 0.610883 0.189663
H26   H     H_    0.254325 0.666400 0.651482 0.216423
H27   H     H_    0.199869 0.855555 0.634527 0.183130
C58   C     C_3   0.738109 0.308023 0.334748 -0.758441
H28   H     H_    0.706524 0.323151 0.372702 0.219572
H29   H     H_    0.743962 0.160437 0.328047 0.214630
H30   H     H_    0.787914 0.351050 0.359942 0.166312
C59   C     C_3   0.117954 0.288931 0.718033 -0.690110
H31   H     H_    0.070846 0.215601 0.716078 0.166590
H32   H     H_    0.124969 0.374325 0.764454 0.252800
H33   H     H_    0.111434 0.375645 0.672114 0.233080
C60   C     C_3   0.878083 0.797237 0.287032 -0.778657
H34   H     H_    0.896029 0.837543 0.340731 0.205343
H35   H     H_    0.921140 0.748255 0.266862 0.217678
H36   H     H_    0.857158 0.918149 0.258358 0.255656
C61   C     C_2   0.344674 0.398190 0.776774 0.281383
H37   H     H_    0.307479 0.495902 0.756134 0.110096
O23   O     O_2   0.402408 0.444432 0.791819 -0.527079
C62   C     C_2   0.679137 0.942916 0.246143 0.247797
H38   H     H_    0.707831 0.046894 0.228699 0.066094
O24   O     O_2   0.642860 0.981594 0.284924 -0.549511
C63   C     C_2   0.792338 0.817572 0.922587 0.411742
H39   H     H_    0.786881 0.670354 0.915898 0.057908
O25   O     O_2   0.803693 0.881176 0.979846 -0.528736
C64   C     C_2   0.207628 0.310713 0.078010 0.423104
H40   H     H_    0.212989 0.163551 0.084967 0.064052
O26   O     O_2   0.196426 0.371931 0.020647 -0.525658
C65   C     C_2   0.798020 0.494430 0.702611 0.315702
H41   H     H_    0.803849 0.553561 0.655011 0.050442
O27   O     O_2   0.820601 0.576212 0.755025 -0.542285
C66   C     C_2   0.201904 0.999269 0.296861 0.321479
H42   H     H_    0.196185 0.061192 0.344384 0.051019
O28   O     O_2   0.179138 0.079401 0.244334 -0.540580
C67   C     C_3   0.679880 0.774975 0.807673 -0.729572
H43   H     H_    0.686497 0.693397 0.854482 0.209080
H44   H     H_    0.630585 0.840524 0.801913 0.212471
H45   H     H_    0.680023 0.677549 0.765181 0.219645
C68   C     C_3   0.320087 0.268294 0.192957 -0.737086
H46   H     H_    0.313437 0.184554 0.146313 0.210580
H47   H     H_    0.369372 0.331557 0.198550 0.209946
H48   H     H_    0.319987 0.173158 0.235639 0.219137
C69   C     C_2   0.383630 0.110633 0.827729 0.506280
H49   H     H_    0.427751 0.095375 0.807090 0.073913
O29   O     O_2   0.386123 0.061166 0.885828 -0.492493
C70   C     C_2   0.614658 0.729928 0.178755 0.503989
H50   H     H_    0.572543 0.727501 0.203112 0.049448
O30   O     O_2   0.604031 0.732702 0.117025 -0.479332
C71   C     C_2   0.183836 0.750458 0.757897 0.234644
H51   H     H_    0.133428 0.785445 0.760263 0.079063
O31   O     O_2   0.194891 0.598455 0.738712 -0.584102
C72   C     C_2   0.812705 0.256209 0.230134 0.171656
H52   H     H_    0.832167 0.216399 0.281676 0.088148
O32   O     O_2   0.842117 0.196912 0.187692 -0.535355

loop_
_geom_bond_atom_site_label_1
_geom_bond_atom_site_label_2
_ccdc_geom_bond_type
C25   H13   S    
C46   C48   T    
O11   V4    S    
O14   V4    S    
C53   H17   S    
C71   O31   D    
O15   C51   A    
C58   H28   S    
O1    C3    A    
C27   C53   S    
C2    O7    A    
C68   H46   S    
O17   V3    S    
C61   H37   S    
C58   H29   S    
O5    C3    A    
C47   C52   S    
C62   H38   S    
C69   O29   D    
C61   O23   D    
C15   C17   A    
C40   H12   S    
C38   C40   S    
C59   H31   S    
C28   C72   S    
C6    C49   S    
C29   C55   S    
C42   H10   S    
C40   C42   S    
C5    C50   S    
C26   H8    S    
C21   C23   A    
C33   C41   S    
C25   C33   S    
C8    C12   A    
C64   H40   S    
C59   H32   S    
C54   O22   D    
C41   C59   S    
C57   H25   S    
C1    C32   S    
C35   C69   S    
C27   C71   S    
C20   H2    S    
C2    C31   S    
O19   V3    S    
C33   C45   S    
O13   V3    S    
C49   O18   A    
C60   H35   S    
O2    C4    A    
O6    V2    S    
C72   O32   D    
C57   H26   S    
C58   H30   S    
C5    C21   A    
C68   H47   S    
C37   C43   S    
C35   C61   S    
C27   C29   S    
C9    C11   A    
C38   C44   S    
C28   C30   S    
C3    C8    S    
C39   C41   S    
C65   H41   S    
C31   C43   T    
O14   C50   A    
C32   C44   T    
C67   H45   S    
C13   H5    S    
O13   C49   A    
C25   H7    S    
C34   C42   S    
C15   C23   A    
C30   C56   S    
C9    C17   A    
C40   H16   S    
C19   H1    S    
O4    V2    S    
C7    C11   A    
C29   C37   S    
C26   C36   S    
O20   V4    S    
C55   H19   S    
O6    C4    A    
C59   H33   S    
C54   H18   S    
C28   C34   S    
C56   H23   S    
O1    V2    S    
O19   V4    S    
C26   H14   S    
O2    V1    S    
C6    C22   A    
C16   C24   A    
C42   C60   S    
C66   O28   D    
C23   C67   S    
C64   O26   D    
C25   C35   S    
C55   H20   S    
C70   O30   D    
C36   C62   S    
C35   C37   S    
C72   H52   S    
C5    C19   A    
C57   H27   S    
C10   C12   A    
O4    C2    A    
C6    C20   A    
C39   H15   S    
C71   H51   S    
C68   H48   S    
O3    V1    S    
C14   H6    S    
C63   H39   S    
C60   H36   S    
O12   C52   A    
C65   O27   D    
C21   C63   S    
C62   O24   D    
C10   C18   A    
C14   C16   A    
O16   C52   A    
O3    C1    A    
C60   H34   S    
C30   C38   S    
C34   C46   S    
O12   V3    S    
C13   C15   A    
C50   O17   A    
O15   V3    S    
C30   C58   S    
C10   C66   S    
C29   C57   S    
C45   C47   T    
C41   H9    S    
C67   H44   S    
O7    V1    S    
C16   C18   A    
C17   C19   A    
O8    V2    S    
C67   H43   S    
C18   C20   A    
O20   V3    S    
C8    C14   A    
C11   H3    S    
C27   C33   S    
C4    C7    S    
O5    V1    S    
C12   H4    S    
C36   C38   S    
C56   H24   S    
C22   C24   A    
C7    C13   A    
C37   C39   S    
C66   H42   S    
C22   C64   S    
C26   C34   S    
C24   C68   S    
C1    O8    A    
C55   H21   S    
C28   C54   S    
C70   H50   S    
O11   C51   A    
C53   O21   D    
O9    V2    S    
C56   H22   S    
C48   C51   S    
O10   V1    S    
O18   V4    S    
O16   V4    S    
C36   C70   S    
C69   H49   S    
C9    C65   S    
C39   H11   S    
C63   O25   D    
