data_mof_unit_38860.cif
_audit_creation_date              2012-10-26T19:20:39-0400
_audit_creation_method            fapswitch 2.2
_symmetry_space_group_name_H-M    P1
_symmetry_Int_Tables_number       1
_space_group_crystal_system       triclinic
_cell_length_a                    10.835623
_cell_length_b                    11.04568
_cell_length_c                    9.770457
_cell_angle_alpha                 111.181114
_cell_angle_beta                  97.598589
_cell_angle_gamma                 91.221049
_cell_volume                      1077.79537914

loop_
_atom_site_label
_atom_site_type_symbol
_atom_type_description
_atom_site_fract_x
_atom_site_fract_y
_atom_site_fract_z
_atom_type_partial_charge
C1    C     C_R   0.490955 0.253969 0.440524 0.561130
C2    C     C_R   0.738188 0.515238 0.501373 0.540889
C3    C     C_R   0.142954 0.514505 0.769756 -0.085474
C4    C     C_R   0.857035 0.485690 0.230275 -0.085423
C5    C     C_R   0.101601 0.578817 0.904924 -0.122502
C6    C     C_R   0.898383 0.421424 0.095092 -0.122504
C7    C     C_R   0.993559 0.644484 0.908349 -0.124845
C8    C     C_R   0.006408 0.355726 0.091644 -0.124822
C9    C     C_R   0.921408 0.636145 0.775772 -0.085535
C10   C     C_R   0.078555 0.363997 0.224212 -0.085525
C11   C     C_R   0.956393 0.560941 0.636857 0.012691
C12   C     C_R   0.509044 0.746031 0.559476 0.561109
C13   C     C_R   0.043586 0.439182 0.363145 0.012686
C14   C     C_R   0.076680 0.515068 0.634903 0.012092
C15   C     C_R   0.923306 0.485072 0.365109 0.012104
C16   C     C_R   0.874536 0.530664 0.501170 -0.048284
C17   C     C_R   0.125450 0.469437 0.498834 -0.048266
C18   C     C_2   0.485859 0.114678 0.406856 -0.130944
C19   C     C_2   0.514133 0.885322 0.593144 -0.130939
C20   C     C_2   0.502396 0.069558 0.516706 -0.162724
C21   C     C_2   0.497591 0.930441 0.483292 -0.162722
C22   C     C_2   0.507835 0.513231 0.081875 -0.028220
C23   C     C_2   0.492130 0.486794 0.918126 -0.028211
C24   C     C_R   0.261808 0.484790 0.498629 0.540890
Cu1   Cu    Cu3+1 0.521920 0.521810 0.644910 0.924925
Cu2   Cu    Cu3+1 0.478080 0.478190 0.355090 0.924937
H1    H     H_    0.036180 0.301201 0.986441 0.109166
H2    H     H_    0.519663 0.135456 0.632269 0.154791
H3    H     H_    0.531429 0.951466 0.708521 0.101643
H4    H     H_    0.468559 0.048534 0.291481 0.101642
H5    H     H_    0.426020 0.408204 0.843742 0.133282
H6    H     H_    0.573912 0.591844 0.156258 0.133290
H7    H     H_    0.616794 0.628981 0.935936 0.194304
H8    H     H_    0.383223 0.371005 0.064062 0.194313
H9    H     H_    0.963786 0.699023 0.013540 0.109169
H10   H     H_    0.223831 0.459852 0.772028 0.124421
H11   H     H_    0.776164 0.540373 0.228036 0.124348
H12   H     H_    0.154374 0.578953 0.007163 0.125804
H13   H     H_    0.845623 0.421327 0.992865 0.125814
H14   H     H_    0.838920 0.690251 0.783140 0.129980
H15   H     H_    0.161025 0.309851 0.216798 0.129983
H16   H     H_    0.480328 0.864542 0.367728 0.154780
N1    N     N_2   0.445130 0.445420 0.137360 -0.354082
N2    N     N_2   0.554870 0.554580 0.862640 -0.354083
O1    O     O_R   0.511700 0.332340 0.577400 -0.497162
O2    O     O_R   0.488300 0.667660 0.422600 -0.497184
O3    O     O_R   0.474680 0.295500 0.332650 -0.493981
O4    O     O_R   0.525320 0.704500 0.667350 -0.493991
O5    O     O_R   0.338170 0.518410 0.622370 -0.498339
O6    O     O_R   0.661830 0.481590 0.377630 -0.498295
O7    O     O_R   0.301150 0.481570 0.377630 -0.493068
O8    O     O_R   0.698850 0.518430 0.622370 -0.493058

loop_
_geom_bond_atom_site_label_1
_geom_bond_atom_site_label_2
_ccdc_geom_bond_type
C9    H14   S    
C18   H4    S    
C2    C16   S    
C11   C16   A    
C22   N1    D    
C14   C17   A    
C2    O8    A    
C13   C17   A    
C12   O4    A    
C7    C9    A    
C24   O7    A    
C13   C15   A    
Cu1   O8    S    
Cu2   O7    S    
C20   C21   S    
C10   H15   S    
C9    C11   A    
Cu1   O4    S    
C1    O1    A    
C1    C18   S    
C3    C14   A    
C22   H6    S    
Cu2   O3    S    
C4    C15   A    
C3    H10   S    
C12   C19   S    
C4    C6    A    
C19   C21   D    
Cu2   N1    S    
C18   C20   D    
Cu2   O6    S    
C2    O6    A    
C11   C14   A    
Cu1   O5    S    
C17   C24   S    
Cu2   O2    S    
C21   H16   S    
C19   H3    S    
Cu1   O1    S    
C5    H12   S    
C4    H11   S    
Cu1   N2    S    
C12   O2    A    
C24   O5    A    
C5    C7    A    
C8    H1    S    
C22   C23   S    
C1    O3    A    
C6    C8    A    
C20   H2    S    
Cu1   Cu2   S    
C6    H13   S    
H7    N2    S    
C7    H9    S    
H8    N1    S    
C8    C10   A    
C23   N2    D    
C15   C16   A    
C3    C5    A    
C10   C13   A    
C23   H5    S    
