data_mof_unit_26173.cif
_audit_creation_date              2012-12-11T15:52:30-0500
_audit_creation_method            fapswitch 2.2
_symmetry_space_group_name_H-M    P1
_symmetry_Int_Tables_number       1
_space_group_crystal_system       triclinic
_cell_length_a                    11.076844
_cell_length_b                    11.075642
_cell_length_c                    18.799011
_cell_angle_alpha                 89.888628
_cell_angle_beta                  89.971751
_cell_angle_gamma                 120.147702
_cell_volume                      1994.34748566

loop_
_atom_site_label
_atom_site_type_symbol
_atom_type_description
_atom_site_fract_x
_atom_site_fract_y
_atom_site_fract_z
_atom_type_partial_charge
C1    C     C_R   0.543115 0.423810 0.139661 0.576352
C2    C     C_R   0.550420 0.073493 0.144041 0.539068
C3    C     C_R   0.885565 0.459000 0.139321 0.546928
C4    C     C_R   0.459679 0.518048 0.851289 0.661025
C5    C     C_R   0.056800 0.538593 0.850739 0.615147
C6    C     C_R   0.480827 0.940333 0.851695 0.622087
C7    C     C_3   0.752667 0.053817 0.551006 0.136357
C8    C     C_3   0.940509 0.687648 0.544640 0.098659
C9    C     C_3   0.295106 0.253155 0.542693 0.109511
C10   C     C_3   0.920302 0.680696 0.464789 0.162132
C11   C     C_3   0.766708 0.073098 0.471006 0.161385
C12   C     C_3   0.300386 0.242092 0.462580 0.161712
C13   C     C_R   0.517520 0.457376 0.352974 0.540922
C14   C     C_R   0.544773 0.064920 0.354558 0.553940
C15   C     C_R   0.940986 0.483163 0.352588 0.541665
C16   C     C_R   0.453308 0.522808 0.644031 0.551317
C17   C     C_R   0.074852 0.549717 0.642887 0.557181
C18   C     C_R   0.479492 0.936372 0.646112 0.529221
C19   C     C_R   0.505868 0.015637 0.918801 -0.024911
C20   C     C_R   0.972639 0.482883 0.915585 -0.049789
C21   C     C_R   0.509179 0.487769 0.917338 0.029412
C22   C     C_R   0.923251 0.473008 0.063679 -0.102176
C23   C     C_R   0.533847 0.043604 0.067944 -0.084920
C24   C     C_R   0.529658 0.444757 0.063924 -0.029228
C25   C     C_R   0.393396 0.991529 0.963107 -0.021834
C26   C     C_R   0.990371 0.390869 0.960569 0.052808
C27   C     C_R   0.602402 0.596984 0.961510 0.036357
C28   C     C_R   0.960697 0.382486 0.032847 0.072343
C29   C     C_R   0.409857 0.012933 0.035686 0.049848
C30   C     C_R   0.613030 0.574420 0.033049 0.072727
C31   C     C_R   0.650923 0.076845 0.023447 0.224501
C32   C     C_R   0.901055 0.562262 0.018197 0.211560
C33   C     C_R   0.435244 0.333250 0.020565 0.155352
C34   C     C_R   0.906529 0.552415 0.944324 0.234887
C35   C     C_R   0.639930 0.078919 0.949456 0.240947
C36   C     C_R   0.435170 0.351476 0.945791 0.182064
C37   C     C_3   0.249724 0.868177 0.973314 0.158431
C38   C     C_3   0.113329 0.371631 0.973646 0.161707
C39   C     C_3   0.618307 0.737537 0.975854 0.094574
C40   C     C_3   0.082076 0.365675 0.052720 0.118436
C41   C     C_3   0.268707 0.895440 0.053079 0.094120
C42   C     C_3   0.627022 0.710034 0.055136 0.107976
C43   C     C_R   0.495725 0.996747 0.576498 0.033638
C44   C     C_R   0.050067 0.530865 0.567235 0.057804
C45   C     C_R   0.474758 0.514943 0.568725 0.061223
C46   C     C_R   0.014883 0.517689 0.419841 -0.015749
C47   C     C_R   0.521431 0.030038 0.428965 0.031340
C48   C     C_R   0.486238 0.497654 0.420666 -0.013699
C49   C     C_R   0.626797 0.070181 0.545353 0.046970
C50   C     C_R   0.036567 0.632599 0.531241 0.006506
C51   C     C_R   0.366169 0.407102 0.531316 0.006226
C52   C     C_R   0.020808 0.627743 0.459236 0.064578
C53   C     C_R   0.639003 0.086677 0.473068 0.048897
C54   C     C_R   0.370149 0.398514 0.459045 0.058102
C55   C     C_R   0.389190 0.973289 0.460118 -0.171093
C56   C     C_R   0.058091 0.432085 0.452710 -0.173394
C57   C     C_R   0.583829 0.619868 0.455533 -0.143270
C58   C     C_R   0.075683 0.438661 0.526943 -0.113608
C59   C     C_R   0.376232 0.956436 0.533888 -0.100356
C60   C     C_R   0.578540 0.628617 0.529818 -0.104384
Cr1   Cr    Cr6+3 0.769160 0.541570 0.250690 1.085860
Cr2   Cr    Cr6+3 0.458430 0.227590 0.250690 1.066718
Cr3   Cr    Cr6+3 0.772410 0.230840 0.250690 1.042047
Cr4   Cr    Cr6+3 0.541570 0.769160 0.749310 1.049935
Cr5   Cr    Cr6+3 0.227590 0.458430 0.749310 1.070802
Cr6   Cr    Cr6+3 0.230840 0.772410 0.749310 1.053728
H1    H     H_    0.165453 0.880428 0.948368 0.204355
H2    H     H_    0.101070 0.273854 0.950324 0.203393
H3    H     H_    0.713169 0.824728 0.950852 0.198741
H4    H     H_    0.162567 0.454365 0.084781 0.093747
H5    H     H_    0.269656 0.811958 0.085989 0.088127
H6    H     H_    0.537356 0.695938 0.088136 0.128654
H7    H     H_    0.296760 0.938536 0.427692 0.156866
H8    H     H_    0.067806 0.354631 0.422313 0.181202
H9    H     H_    0.670724 0.700999 0.426424 0.182226
H10   H     H_    0.103244 0.368773 0.552765 0.180804
H11   H     H_    0.272430 0.902874 0.556672 0.149221
H12   H     H_    0.658707 0.719767 0.556717 0.151215
H13   H     H_    0.732992 0.950173 0.569335 0.158551
H14   H     H_    0.992646 0.795053 0.567392 0.128158
H15   H     H_    0.187887 0.206177 0.565481 0.148647
H16   H     H_    0.813761 0.603649 0.446364 0.176441
H17   H     H_    0.860988 0.169072 0.452784 0.163011
H18   H     H_    0.367010 0.200355 0.443248 0.179287
O1    O     O_R   0.911480 0.572650 0.170990 -0.505168
O2    O     O_R   0.427350 0.338830 0.170990 -0.450508
O3    O     O_R   0.661170 0.088520 0.170990 -0.500065
O4    O     O_R   0.572650 0.911480 0.829010 -0.471470
O5    O     O_R   0.338830 0.427350 0.829010 -0.427159
O6    O     O_R   0.088520 0.661170 0.829010 -0.467478
O7    O     O_R   0.640340 0.528970 0.175680 -0.464278
O8    O     O_R   0.471030 0.111370 0.175680 -0.487684
O9    O     O_R   0.888630 0.359660 0.175680 -0.491883
O10   O     O_R   0.528970 0.640340 0.824320 -0.472345
O11   O     O_R   0.111370 0.471030 0.824320 -0.460222
O12   O     O_R   0.359660 0.888630 0.824320 -0.459731
O13   O     O_R   0.909980 0.572450 0.331530 -0.488065
O14   O     O_R   0.427550 0.337530 0.331530 -0.499314
O15   O     O_R   0.662470 0.090020 0.331530 -0.504706
O16   O     O_R   0.572450 0.909980 0.668470 -0.556987
O17   O     O_R   0.337530 0.427550 0.668470 -0.541888
O18   O     O_R   0.090020 0.662470 0.668470 -0.549254
O19   O     O_R   0.638950 0.528780 0.324500 -0.505777
O20   O     O_R   0.471220 0.110170 0.324500 -0.515456
O21   O     O_R   0.889830 0.361050 0.324500 -0.510139
O22   O     O_R   0.528780 0.638950 0.675500 -0.526434
O23   O     O_R   0.110170 0.471220 0.675500 -0.516404
O24   O     O_R   0.361050 0.889830 0.675500 -0.518122
O25   O     O_3   0.666667 0.333333 0.250560 -0.314046
O26   O     O_3   0.333333 0.666667 0.749440 -0.263608
O27   O     O_3   0.774778 0.096792 0.049780 -0.602965
H19   H     H_    0.752227 0.018323 0.082415 0.364930
O28   O     O_3   0.889289 0.671201 0.043801 -0.622008
H20   H     H_    0.966370 0.722431 0.077628 0.382230
O29   O     O_3   0.332861 0.214694 0.053052 -0.633484
H21   H     H_    0.243498 0.186837 0.028534 0.370195
O30   O     O_3   0.869754 0.631960 0.903003 -0.657786
H22   H     H_    0.844712 0.589241 0.855050 0.313271
O31   O     O_3   0.759014 0.121671 0.909340 -0.657381
H23   H     H_    0.743753 0.151562 0.862057 0.311949
O32   O     O_3   0.353608 0.242223 0.900357 -0.694458
H24   H     H_    0.304057 0.153572 0.926758 0.334738
O33   O     O_3   0.246497 0.744805 0.954578 -0.641422
H25   H     H_    0.184614 0.673400 0.989377 0.322382
O34   O     O_3   0.238976 0.490522 0.955351 -0.659535
H26   H     H_    0.308991 0.496412 0.989936 0.323374
O35   O     O_3   0.496391 0.739147 0.958860 -0.654277
H27   H     H_    0.485432 0.797250 0.995241 0.322427
O36   O     O_3   0.042112 0.234188 0.081555 -0.642449
H28   H     H_    0.038505 0.243717 0.133838 0.355697
O37   O     O_3   0.181926 0.942639 0.079898 -0.676182
H29   H     H_    0.196531 0.950495 0.132127 0.358066
O38   O     O_3   0.755896 0.797268 0.088482 -0.647540
H30   H     H_    0.824871 0.860115 0.052745 0.370529
O39   O     O_3   0.861116 0.165754 0.587347 -0.736999
H31   H     H_    0.840699 0.144738 0.638721 0.336801
O40   O     O_3   0.818637 0.589916 0.580115 -0.715900
H32   H     H_    0.831882 0.617964 0.630858 0.336618
O41   O     O_3   0.382525 0.214115 0.577112 -0.717208
H33   H     H_    0.355126 0.201155 0.628005 0.341145
O42   O     O_3   0.975978 0.812623 0.433346 -0.734540
H34   H     H_    0.914108 0.848676 0.448105 0.332190
O43   O     O_3   0.741803 0.950923 0.436338 -0.756477
H35   H     H_    0.802830 0.980549 0.393654 0.346574
O44   O     O_3   0.167750 0.179757 0.431617 -0.729403
H36   H     H_    0.131021 0.077955 0.434746 0.353822

loop_
_geom_bond_atom_site_label_1
_geom_bond_atom_site_label_2
_ccdc_geom_bond_type
C40   O36   S    
C45   C60   A    
C55   C59   A    
C3    O1    A    
C48   C57   A    
Cr6   O18   S    
C35   O31   S    
O27   H19   S    
C9    C51   S    
Cr5   O17   S    
C10   C52   S    
C59   H11   S    
O44   H36   S    
C58   H10   S    
O39   H31   S    
Cr6   O6    S    
C5    C20   S    
Cr5   O5    S    
C6    C19   S    
Cr2   O2    S    
C60   H12   S    
C7    H13   S    
C22   C32   A    
C42   O38   S    
Cr2   O14   S    
C23   C29   A    
Cr6   O12   S    
Cr1   O19   S    
O36   H28   S    
C17   O23   A    
C45   C51   A    
O43   H35   S    
C46   C52   A    
C33   C36   A    
C6    O4    A    
C12   H18   S    
C13   O14   A    
Cr3   O15   S    
C25   C37   S    
C37   O33   S    
Cr4   O26   S    
C44   C58   A    
Cr2   O8    S    
C50   C52   A    
O35   H27   S    
C32   O28   S    
C13   O19   A    
C5    O6    A    
C11   C53   S    
C43   C59   A    
C47   C53   A    
C20   C34   A    
C34   O30   S    
C21   C27   A    
Cr1   O25   S    
C1    O7    A    
C22   C28   A    
C27   C30   A    
C18   O16   A    
C15   O13   A    
C5    O11   A    
C39   C42   S    
Cr2   O20   S    
Cr5   O23   S    
C25   C29   A    
Cr1   O13   S    
C33   O29   S    
C56   H8    S    
O33   H25   S    
C39   O35   S    
C7    C49   S    
C27   C39   S    
C48   C54   A    
C43   C49   A    
C57   C60   A    
C11   H17   S    
C32   C34   A    
C10   H16   S    
C8    O40   S    
C10   O42   S    
C23   C31   A    
C12   O44   S    
Cr3   O25   S    
C7    C11   S    
C17   O18   A    
C7    O39   S    
C14   O20   A    
Cr5   O11   S    
C15   O21   A    
O41   H33   S    
C42   H6    S    
C39   H3    S    
C2    O3    A    
C3    O9    A    
Cr6   O26   S    
C2    O8    A    
O32   H24   S    
Cr1   O1    S    
C4    O10   A    
C38   H2    S    
C6    O12   A    
O42   H34   S    
O34   H26   S    
C31   C35   A    
Cr3   O21   S    
O37   H29   S    
C8    C50   S    
C38   O34   S    
C18   O24   A    
C47   C55   A    
O28   H20   S    
C44   C50   A    
C1    O2    A    
C31   O27   S    
Cr3   O3    S    
C26   C38   S    
Cr6   O24   S    
C16   C45   S    
C13   C48   S    
O31   H23   S    
Cr4   O22   S    
C14   C47   S    
C16   O22   A    
C4    O5    A    
O40   H32   S    
Cr3   O9    S    
C40   H4    S    
C26   C28   A    
C24   C33   A    
C41   H5    S    
C51   C54   A    
C57   H9    S    
C36   O32   S    
C17   C44   S    
Cr4   O10   S    
C19   C35   A    
C18   C43   S    
C38   C40   S    
C4    C21   S    
C9    O41   S    
C14   O15   A    
O38   H30   S    
Cr2   O25   S    
C20   C26   A    
C49   C53   A    
C37   H1    S    
C56   C58   A    
C37   C41   S    
C19   C25   A    
C9    C12   S    
C24   C30   A    
Cr5   O26   S    
C55   H7    S    
Cr1   O7    S    
C16   O17   A    
Cr4   O16   S    
C41   O37   S    
C1    C24   S    
C8    C10   S    
C46   C56   A    
C2    C23   S    
C8    H14   S    
C28   C40   S    
C29   C41   S    
C30   C42   S    
C3    C22   S    
C15   C46   S    
O30   H22   S    
C11   O43   S    
C21   C36   A    
Cr4   O4    S    
C12   C54   S    
O29   H21   S    
C9    H15   S    
