data_mof_unit_65511.cif
_audit_creation_date              2012-12-11T15:58:26-0500
_audit_creation_method            fapswitch 2.2
_symmetry_space_group_name_H-M    P1
_symmetry_Int_Tables_number       1
_space_group_crystal_system       triclinic
_cell_length_a                    6.937372
_cell_length_b                    17.328773
_cell_length_c                    18.636423
_cell_angle_alpha                 106.79744
_cell_angle_beta                  90.177878
_cell_angle_gamma                 90.574393
_cell_volume                      2144.65657373

loop_
_atom_site_label
_atom_site_type_symbol
_atom_type_description
_atom_site_fract_x
_atom_site_fract_y
_atom_site_fract_z
_atom_type_partial_charge
O1    O     O_R   0.505770 0.442340 0.559500 -0.519532
O2    O     O_R   0.168070 0.405470 0.411510 -0.537008
O3    O     O_R   0.005580 0.557660 0.440500 -0.519721
C1    C     C_R   0.338599 0.381860 0.383056 0.651591
O4    O     O_R   0.175550 0.432860 0.557160 -0.523116
O5    O     O_R   0.013110 0.585240 0.587190 -0.536892
C2    C     C_R   0.344450 0.415871 0.580629 0.718452
O6    O     O_R   0.498240 0.414760 0.412810 -0.539333
O7    O     O_3   0.341770 0.549960 0.509680 -0.357838
V1    V     V_3+5 0.063870 0.490730 0.498200 1.384477
O8    O     O_R   0.683850 0.594530 0.588490 -0.541104
C3    C     C_R   0.853986 0.617900 0.616704 0.656009
O9    O     O_R   0.676380 0.567140 0.442840 -0.523157
C4    C     C_R   0.845366 0.584136 0.419378 0.718444
V2    V     V_3+5 0.564820 0.509270 0.501800 1.382617
O10   O     O_3   0.836790 0.450040 0.490320 -0.358579
C5    C     C_1   0.856648 0.636149 0.367359 -0.224936
C6    C     C_1   0.867897 0.678704 0.323800 -0.004490
C7    C     C_1   0.882245 0.728872 0.271913 -0.005734
C8    C     C_1   0.894556 0.771117 0.228108 -0.005718
C9    C     C_1   0.908906 0.821284 0.176220 -0.004445
C10   C     C_1   0.920163 0.863837 0.132659 -0.225080
C11   C     C_3   0.689095 0.793374 0.788320 -0.299995
H1    H     H_    0.607068 0.778817 0.834092 0.138811
C12   C     C_3   0.669273 0.722110 0.716197 -0.322367
H2    H     H_    0.593838 0.742692 0.672323 0.136771
H3    H     H_    0.578432 0.673841 0.727861 0.134058
H4    H     H_    0.915498 0.718580 0.870823 0.124025
H5    H     H_    0.885339 0.612435 0.763602 0.123605
C13   C     C_3   0.990664 0.733706 0.823892 -0.323957
C14   C     C_3   0.012097 0.830014 0.746013 -0.325637
C15   C     C_3   0.904691 0.811482 0.812167 0.112142
H6    H     H_    0.167586 0.841912 0.760300 0.136656
H7    H     H_    0.952636 0.885413 0.735967 0.124830
C16   C     C_3   0.870204 0.688406 0.687634 0.114078
C17   C     C_3   0.970280 0.661913 0.751360 -0.316740
C18   C     C_3   0.991771 0.758349 0.673380 -0.315662
H8    H     H_    0.137897 0.736569 0.653282 0.142170
H9    H     H_    0.145711 0.743709 0.839716 0.138654
H10   H     H_    0.115869 0.637817 0.733104 0.136471
C19   C     C_3   0.581518 0.296668 0.291701 -0.279053
H11   H     H_    0.647447 0.352241 0.283307 0.132033
H12   H     H_    0.659988 0.283676 0.339044 0.139266
C20   C     C_3   0.612770 0.225927 0.220042 -0.340345
H13   H     H_    0.704040 0.179470 0.233571 0.134025
H14   H     H_    0.691407 0.248061 0.177756 0.136422
H15   H     H_    0.318658 0.384213 0.234976 0.125713
H16   H     H_    0.366857 0.279416 0.128282 0.121246
C21   C     C_3   0.261224 0.327309 0.243408 -0.331718
C22   C     C_3   0.278779 0.231521 0.321492 -0.329305
C23   C     C_3   0.362166 0.311038 0.311743 0.107846
H17   H     H_    0.121774 0.238045 0.333505 0.136866
H18   H     H_    0.349099 0.218208 0.370261 0.124763
C24   C     C_3   0.417049 0.188523 0.187638 0.113617
C25   C     C_3   0.293834 0.256367 0.171173 -0.306528
C26   C     C_3   0.311470 0.160194 0.249568 -0.307573
H19   H     H_    0.397404 0.112842 0.264037 0.122181
H20   H     H_    0.169290 0.132591 0.228176 0.137442
H21   H     H_    0.103909 0.335420 0.254122 0.135479
H22   H     H_    0.151106 0.231605 0.147505 0.143974
C27   C     C_1   0.354816 0.363816 0.632660 -0.225032
C28   C     C_1   0.366446 0.321270 0.676215 -0.004229
C29   C     C_1   0.381856 0.271122 0.728100 -0.005800
C30   C     C_1   0.395188 0.228906 0.771892 -0.005825
C31   C     C_1   0.410599 0.178757 0.823776 -0.004311
C32   C     C_1   0.422228 0.136208 0.867330 -0.224723
O11   O     O_R   0.278700 0.085270 0.087180 -0.538835
O12   O     O_R   0.601470 0.067150 0.942830 -0.523291
O13   O     O_R   0.763830 0.914750 0.912810 -0.537676
C33   C     C_R   0.432577 0.084150 0.919357 0.717924
O14   O     O_R   0.608870 0.094540 0.088490 -0.538105
O15   O     O_R   0.771290 0.942340 0.059510 -0.519850
C34   C     C_R   0.438827 0.117999 0.116718 0.653772
O16   O     O_R   0.271240 0.057690 0.940480 -0.519604
O17   O     O_3   0.435150 0.950050 0.990310 -0.358245
V3    V     V_3+5 0.713080 0.009270 0.001800 1.383978
O18   O     O_R   0.100490 0.932820 0.057180 -0.523183
C35   C     C_R   0.931482 0.915845 0.080637 0.718670
O19   O     O_R   0.093090 0.905430 0.911530 -0.540229
C36   C     C_R   0.922523 0.882046 0.883227 0.655309
V4    V     V_3+5 0.212120 0.990690 0.998230 1.383133
O20   O     O_3   0.940180 0.049940 0.009690 -0.358199
H23   H     H_    0.622346 0.847675 0.778588 0.132466
H24   H     H_    0.922556 0.779447 0.628597 0.122711

loop_
_geom_bond_atom_site_label_1
_geom_bond_atom_site_label_2
_ccdc_geom_bond_type
H16   C25   S    
C19   H11   S    
C16   C17   S    
O15   V3    S    
V4    O20   S    
H15   C21   S    
O18   C35   A    
H5    C17   S    
C28   C29   S    
C11   H23   S    
C9    C10   T    
C16   C18   S    
O5    C3    A    
O14   V3    S    
V2    O10   S    
C26   H19   S    
O13   V3    S    
C6    C7    S    
C2    C27   S    
O15   C35   A    
O8    V2    S    
C7    C8    T    
C21   C23   S    
C33   O16   A    
C22   H17   S    
C11   H1    S    
C14   H6    S    
C18   H24   S    
O11   C34   A    
O7    V1    S    
C1    O6    A    
O9    C4    A    
C19   H12   S    
C4    C5    S    
C20   H14   S    
C5    C6    T    
O4    C2    A    
C24   C26   S    
C22   H18   S    
C1    C23   S    
C17   H10   S    
C10   C35   S    
V3    O20   S    
O19   V4    S    
O17   V4    S    
C12   H2    S    
C21   C25   S    
C22   C26   S    
C14   C18   S    
O2    C1    A    
O17   V3    S    
C18   H8    S    
C15   C36   S    
C24   C34   S    
C14   C15   S    
O18   V4    S    
C22   C23   S    
C14   H7    S    
C3    C16   S    
O3    C4    A    
C12   C16   S    
O1    V2    S    
O11   V4    S    
O6    V2    S    
O9    V2    S    
C19   C20   S    
C12   H3    S    
O16   V4    S    
O2    V1    S    
C20   H13   S    
O14   C34   A    
C24   C25   S    
O1    C2    A    
C29   C30   T    
O5    V1    S    
O8    C3    A    
O12   V3    S    
C21   H21   S    
C13   C17   S    
C11   C15   S    
H4    C13   S    
O7    V2    S    
O4    V1    S    
O3    V1    S    
V1    O10   S    
C30   C31   S    
C13   C15   S    
C32   C33   S    
C26   H20   S    
C13   H9    S    
C11   C12   S    
C27   C28   T    
O19   C36   A    
C20   C24   S    
C8    C9    S    
O12   C33   A    
C31   C32   T    
O13   C36   A    
C25   H22   S    
C19   C23   S    
