data_mof_unit_23327.cif
_audit_creation_date              2012-10-26T18:29:51-0400
_audit_creation_method            fapswitch 2.2
_symmetry_space_group_name_H-M    P1
_symmetry_Int_Tables_number       1
_space_group_crystal_system       triclinic
_cell_length_a                    10.864081
_cell_length_b                    13.031475
_cell_length_c                    11.818048
_cell_angle_alpha                 99.64589
_cell_angle_beta                  93.312053
_cell_angle_gamma                 93.702124
_cell_volume                      1642.03768643

loop_
_atom_site_label
_atom_site_type_symbol
_atom_type_description
_atom_site_fract_x
_atom_site_fract_y
_atom_site_fract_z
_atom_type_partial_charge
C1    C     C_R   0.497238 0.299040 0.478229 0.575111
C2    C     C_R   0.514289 0.029483 0.550289 -0.009406
C3    C     C_R   0.437573 0.968406 0.459018 -0.071888
C4    C     C_R   0.260291 0.496034 0.500140 0.565348
C5    C     C_R   0.422308 0.858854 0.452000 0.266575
C6    C     C_R   0.548057 0.875487 0.631712 -0.153525
C7    C     C_R   0.557891 0.983428 0.642987 0.269282
C8    C     C_R   0.373425 0.406562 0.024431 -0.182453
C9    C     C_R   0.385726 0.413366 0.146668 0.395469
C10   C     C_R   0.549578 0.546242 0.155492 0.172802
C11   C     C_R   0.542618 0.535965 0.033451 -0.069844
C12   C     C_3   0.879051 0.498394 0.497947 0.043799
C13   C     C_R   0.455639 0.463875 0.966737 -0.052312
C14   C     C_R   0.451877 0.452387 0.843283 0.421217
C15   C     C_R   0.606964 0.591018 0.857236 0.174344
C16   C     C_R   0.494028 0.699840 0.521345 0.592289
C17   C     C_R   0.619388 0.597705 0.976162 -0.168517
C18   C     C_R   0.740333 0.499986 0.499239 0.605149
C19   C     C_3   0.067708 0.397698 0.549817 0.158774
C20   C     C_3   0.924169 0.405316 0.555669 0.126751
C21   C     C_3   0.087173 0.597744 0.570633 -0.238119
C22   C     C_3   0.065508 0.485705 0.376402 -0.248851
C23   C     C_3   0.945283 0.603005 0.564708 -0.016880
C24   C     C_3   0.122912 0.493849 0.501035 -0.022966
C25   C     C_3   0.128189 0.282905 0.669447 -0.069192
C26   C     C_3   0.878136 0.500819 0.183550 -0.087911
C27   C     C_3   0.368214 0.780724 0.263017 -0.091136
C28   C     C_3   0.548534 0.037000 0.836304 -0.119667
C29   C     C_3   0.444141 0.137331 0.189381 -0.086459
C30   C     C_3   0.753282 0.160558 0.576712 -0.043602
C31   C     C_3   0.427715 0.276131 0.783829 -0.090328
C32   C     C_3   0.202748 0.304020 0.143106 -0.118069
C33   C     C_3   0.922987 0.454744 0.763025 -0.044890
C34   C     C_3   0.923156 0.476817 0.371589 0.134394
C35   C     C_R   0.487172 0.812896 0.534724 -0.002909
C36   C     C_R   0.485476 0.184452 0.465043 -0.009330
C37   C     C_R   0.382804 0.017608 0.374355 -0.127170
C38   C     C_R   0.411212 0.123373 0.373390 0.201454
C39   C     C_R   0.545276 0.135551 0.547403 0.206957
Cu1   Cu    Cu3+1 0.509350 0.507730 0.615930 1.084536
Cu2   Cu    Cu3+1 0.490650 0.492270 0.384070 1.074043
H1    H     H_    0.131600 0.664047 0.535768 0.164998
H2    H     H_    0.099313 0.555228 0.340241 0.200857
H3    H     H_    0.095821 0.415968 0.321171 0.107059
H4    H     H_    0.889147 0.394688 0.333458 0.063926
H5    H     H_    0.196055 0.242723 0.614210 0.125044
H6    H     H_    0.035479 0.241021 0.648309 0.096314
H7    H     H_    0.154681 0.278780 0.760499 0.148387
H8    H     H_    0.966889 0.467279 0.161233 0.075116
H9    H     H_    0.865443 0.562210 0.130294 0.159591
H10   H     H_    0.800212 0.439967 0.159696 0.119501
H11   H     H_    0.455372 0.825489 0.249035 0.119607
H12   H     H_    0.591022 0.841008 0.698760 0.182368
H13   H     H_    0.293260 0.801658 0.205234 0.119595
H14   H     H_    0.377785 0.696204 0.235990 0.172729
H15   H     H_    0.556993 0.960991 0.865795 0.130040
H16   H     H_    0.449386 0.049577 0.817918 0.089670
H17   H     H_    0.585539 0.099383 0.908175 0.127739
H18   H     H_    0.432733 0.051849 0.156664 0.085411
H19   H     H_    0.543253 0.162305 0.215207 0.112763
H20   H     H_    0.417240 0.176926 0.116845 0.136723
H21   H     H_    0.764822 0.184659 0.491865 0.075410
H22   H     H_    0.762402 0.075145 0.568376 0.143017
H23   H     H_    0.320548 0.974739 0.305650 0.162081
H24   H     H_    0.829141 0.198602 0.638675 0.179378
H25   H     H_    0.395962 0.243831 0.858898 0.056130
H26   H     H_    0.530669 0.281147 0.787526 0.191385
H27   H     H_    0.392926 0.218567 0.707089 0.141566
H28   H     H_    0.225712 0.240934 0.073823 0.101300
H29   H     H_    0.146020 0.361251 0.108419 0.076189
H30   H     H_    0.145783 0.265548 0.201179 0.150620
H31   H     H_    0.999423 0.511475 0.753229 0.144474
H32   H     H_    0.958171 0.402931 0.821061 0.131007
H33   H     H_    0.849598 0.497348 0.807100 0.144983
H34   H     H_    0.083315 0.328360 0.483426 0.064531
H35   H     H_    0.299254 0.358235 0.973354 0.115337
H36   H     H_    0.690815 0.652874 0.021667 0.161217
H37   H     H_    0.884662 0.334306 0.496206 0.062090
H38   H     H_    0.124737 0.606933 0.661501 0.140715
H39   H     H_    0.915897 0.616846 0.653113 0.153078
I1    I     I_    0.895633 0.743212 0.504759 -0.280495
I2    I     I_    0.728723 0.698616 0.796163 -0.419951
I3    I     I_    0.662952 0.677782 0.249261 -0.309376
N1    N     N_R   0.523430 0.519360 0.790130 -0.209479
N2    N     N_R   0.476570 0.480640 0.209880 -0.225102
O1    O     O_R   0.506640 0.354460 0.582000 -0.451400
O2    O     O_3   0.878120 0.546011 0.301467 -0.480957
O3    O     O_3   0.331895 0.798435 0.377219 -0.560425
O4    O     O_3   0.618780 0.043450 0.740577 -0.520318
O5    O     O_3   0.367856 0.165991 0.280795 -0.519981
O6    O     O_3   0.640180 0.190654 0.620020 -0.518631
O7    O     O_3   0.377871 0.372666 0.775624 -0.531867
O8    O     O_3   0.310330 0.353980 0.207067 -0.490447
O9    O     O_3   0.870151 0.392225 0.660322 -0.549037
O10   O     O_R   0.490840 0.341410 0.386200 -0.454399
O11   O     O_R   0.325590 0.506510 0.597900 -0.444880
O12   O     O_R   0.309790 0.493450 0.402100 -0.485823
O13   O     O_R   0.509160 0.658590 0.613800 -0.510782
O14   O     O_R   0.493360 0.645540 0.418000 -0.463288
O15   O     O_R   0.690210 0.506550 0.597900 -0.459365
O16   O     O_R   0.674410 0.493490 0.402100 -0.466251
O17   O     O_3   0.128633 0.388889 0.656746 -0.522559

loop_
_geom_bond_atom_site_label_1
_geom_bond_atom_site_label_2
_ccdc_geom_bond_type
C31   H25   S    
C10   N2    A    
C8    C13   A    
Cu1   N1    S    
C19   C20   S    
C14   N1    A    
C33   O9    S    
C28   H15   S    
C27   H13   S    
C19   H34   S    
C28   H16   S    
C31   H26   S    
C12   C23   S    
C26   H9    S    
C16   C35   S    
Cu1   O13   S    
C4    C24   S    
C19   O17   S    
C27   H14   S    
C25   O17   S    
C7    O4    S    
C10   I3    S    
C8    H35   S    
C6    C35   A    
Cu1   O1    S    
C33   H31   S    
C9    N2    A    
C4    O11   A    
C5    O3    S    
C2    C39   A    
C22   H3    S    
C6    C7    A    
C29   H18   S    
C8    C9    A    
Cu2   O14   S    
C28   O4    S    
C23   H39   S    
C15   I2    S    
C25   H6    S    
C32   O8    S    
C13   C14   A    
C21   H38   S    
C18   O15   A    
Cu1   O11   S    
C39   O6    S    
C29   O5    S    
C32   H30   S    
C31   H27   S    
C22   C34   S    
C29   H20   S    
C26   H8    S    
C26   O2    S    
C32   H29   S    
C18   O16   A    
C37   C38   A    
C4    O12   A    
C22   H2    S    
C29   H19   S    
C1    O10   A    
C12   C20   S    
C17   H36   S    
C34   H4    S    
C25   H7    S    
C14   O7    S    
C32   H28   S    
C33   H32   S    
Cu1   Cu2   S    
C21   C23   S    
C2    C7    A    
C22   C24   S    
C6    H12   S    
C12   C34   S    
C9    O8    S    
C37   H23   S    
C27   H11   S    
C1    O1    A    
C15   C17   A    
C20   O9    S    
C11   C17   A    
C23   I1    S    
C36   C39   A    
C30   O6    S    
C3    C5    A    
Cu1   O15   S    
C16   O14   A    
C15   N1    A    
C28   H17   S    
Cu2   N2    S    
C38   O5    S    
C20   H37   S    
C30   H21   S    
C2    C3    A    
C26   H10   S    
C11   C13   A    
C16   O13   A    
Cu2   O10   S    
C5    C35   A    
C36   C38   A    
Cu2   O16   S    
C19   C24   S    
Cu2   O12   S    
C34   O2    S    
C27   O3    S    
C30   H24   S    
C10   C11   A    
C21   H1    S    
C33   H33   S    
C3    C37   A    
C31   O7    S    
C21   C24   S    
C12   C18   S    
C30   H22   S    
C25   H5    S    
C1    C36   S    
