data_mof_unit_40144.cif
_audit_creation_date              2012-12-10T17:35:00-0500
_audit_creation_method            fapswitch 2.2
_symmetry_space_group_name_H-M    P1
_symmetry_Int_Tables_number       1
_space_group_crystal_system       triclinic
_cell_length_a                    12.473063
_cell_length_b                    13.384089
_cell_length_c                    13.882216
_cell_angle_alpha                 107.321498
_cell_angle_beta                  72.895812
_cell_angle_gamma                 118.036734
_cell_volume                      1919.80916009

loop_
_atom_site_label
_atom_site_type_symbol
_atom_type_description
_atom_site_fract_x
_atom_site_fract_y
_atom_site_fract_z
_atom_type_partial_charge
C1    C     C_R   0.144649 0.714244 0.513462 0.886321
C2    C     C_1   0.984201 0.522413 0.793213 -0.112176
C3    C     C_R   0.736240 0.973221 0.386453 0.452884
C4    C     C_R   0.776984 0.161616 0.492949 -0.362926
C5    C     C_R   0.188770 0.912284 0.616442 0.270864
C6    C     C_R   0.268873 0.985697 0.686204 0.219284
C7    C     C_R   0.392471 0.000497 0.658286 0.432799
C8    C     C_R   0.439881 0.964972 0.553807 -0.103145
C9    C     C_R   0.354400 0.876246 0.493147 -0.213086
C10   C     C_R   0.567365 0.010210 0.509006 -0.091008
C11   C     C_R   0.608297 0.945120 0.416475 -0.265592
C12   C     C_R   0.985607 0.507517 0.686676 0.750904
C13   C     C_R   0.521907 0.853203 0.358204 0.426173
C14   C     C_R   0.395881 0.828265 0.392502 0.435901
C15   C     C_R   0.654175 0.122339 0.546687 0.424277
C16   C     C_R   0.820342 0.078446 0.432624 0.347505
C17   C     C_R   0.227506 0.838756 0.533717 -0.218820
C18   C     C_R   0.650954 0.691509 0.649709 -0.314927
C19   C     C_R   0.256660 0.348402 0.359410 0.500061
C20   C     C_R   0.360284 0.322340 0.331587 0.240611
C21   C     C_R   0.468977 0.403639 0.363780 0.269602
C22   C     C_R   0.461954 0.481296 0.456058 -0.191205
C23   C     C_R   0.855801 0.286297 0.492856 0.863896
C24   C     C_R   0.351698 0.501604 0.492187 0.124239
C25   C     C_R   0.559700 0.538348 0.514110 -0.053137
C26   C     C_R   0.558102 0.632615 0.592087 0.005341
C27   C     C_R   0.456362 0.659777 0.620679 -0.217505
C28   C     C_R   0.353174 0.592721 0.574749 -0.082908
C29   C     C_R   0.652511 0.498799 0.504665 0.620465
C30   C     C_R   0.741294 0.652715 0.637277 0.535652
C31   C     C_R   0.017174 0.496566 0.313634 0.873205
C32   C     C_1   0.028392 0.495759 0.207991 -0.018442
C33   C     C_2   0.041747 0.492427 0.012548 0.319211
C34   C     C_2   0.997206 0.554259 0.987380 0.334071
C35   C     C_1   0.988787 0.537067 0.881919 0.068241
C36   C     C_1   0.035218 0.495353 0.119612 0.007293
Cu1   Cu    Cu3+1 0.899780 0.525060 0.522890 1.106409
Cu2   Cu    Cu3+1 0.100220 0.474940 0.477110 1.048153
H1    H     H_    0.452479 0.728349 0.684769 0.131802
H2    H     H_    0.644815 0.761240 0.712048 0.207573
H3    H     H_    0.276436 0.615105 0.606042 0.178782
N1    N     N_R   0.748810 0.563010 0.557590 -0.291494
N2    N     N_R   0.250540 0.437620 0.443020 -0.283231
O1    O     O_R   0.025040 0.682470 0.528790 -0.506087
O2    O     O_R   0.194310 0.640150 0.490130 -0.607540
O3    O     O_R   0.903380 0.524130 0.659910 -0.521598
O4    O     O_R   0.072660 0.481800 0.621240 -0.594451
O5    O     O_R   0.805690 0.359850 0.509870 -0.533368
O6    O     O_R   0.974960 0.317530 0.471210 -0.491756
O7    O     O_R   0.927340 0.518200 0.378760 -0.527954
O8    O     O_R   0.096620 0.475870 0.340090 -0.515916
S1    S     S_3+6 0.949636 0.659196 0.075135 0.029588
O9    O     O_2   0.811059 0.608952 0.096612 -0.214081
O10   O     O_2   0.996173 0.697725 0.174173 -0.320691
O11   O     O_3   0.003529 0.773986 0.019858 -0.494013
H4    H     H_    0.967321 0.825856 0.068871 0.414296
O12   O     O_3   0.313137 0.756355 0.326968 -0.594942
C37   C     C_3   0.296416 0.824897 0.277807 -0.280053
H5    H     H_    0.385268 0.878537 0.233218 0.180256
H6    H     H_    0.252850 0.880384 0.333863 0.174912
H7    H     H_    0.233224 0.767141 0.222885 0.216914
S2    S     S_3+6 0.807218 0.696223 0.749220 0.097069
O13   O     O_2   0.779067 0.793099 0.821837 -0.229249
O14   O     O_2   0.747827 0.595437 0.803013 -0.293318
O15   O     O_3   0.960985 0.741376 0.724943 -0.499316
H8    H     H_    0.981813 0.744974 0.789813 0.382499
O16   O     O_3   0.638068 0.389002 0.453517 -0.517907
C38   C     C_3   0.542027 0.309183 0.513054 -0.210931
H9    H     H_    0.554018 0.333082 0.594396 0.198533
H10   H     H_    0.449685 0.300428 0.511259 0.124051
H11   H     H_    0.542427 0.223160 0.479627 0.202183
S3    S     S_3+6 0.167662 0.288103 0.257195 0.101801
O17   O     O_2   0.032369 0.258031 0.289011 -0.267299
O18   O     O_2   0.224160 0.375161 0.188405 -0.351832
O19   O     O_3   0.176823 0.165738 0.184607 -0.410832
H12   H     H_    0.149469 0.154536 0.120509 0.396442
S4    S     S_3+6 0.606765 0.426073 0.269196 0.074102
O20   O     O_2   0.713059 0.536486 0.301180 -0.265119
O21   O     O_2   0.642083 0.327464 0.248051 -0.240761
O22   O     O_3   0.578637 0.432296 0.160214 -0.487559
H13   H     H_    0.555261 0.353313 0.118713 0.393010
O23   O     O_3   0.364871 0.230320 0.254651 -0.494281
C39   C     C_3   0.351844 0.143032 0.300128 -0.142715
H14   H     H_    0.335987 0.062984 0.241234 0.188033
H15   H     H_    0.271483 0.123541 0.364603 0.178456
H16   H     H_    0.437424 0.166612 0.327371 0.159942
O24   O     O_3   0.082453 0.417785 0.933552 -0.595710
C40   C     C_3   0.170922 0.397291 0.959192 -0.127787
H17   H     H_    0.125340 0.335455 0.012715 0.213178
H18   H     H_    0.244015 0.478706 0.992023 0.143702
H19   H     H_    0.217495 0.358110 0.888125 0.219032
S5    S     S_3+6 0.948925 0.074252 0.457851 0.064325
O25   O     O_2   0.035904 0.186421 0.510621 -0.268397
O26   O     O_2   0.893951 0.989964 0.528778 -0.279980
O27   O     O_3   0.027368 0.025979 0.347986 -0.448289
H20   H     H_    0.058736 0.980400 0.367223 0.379344
O28   O     O_3   0.563212 0.802166 0.260678 -0.540357
C41   C     C_3   0.508537 0.680562 0.249235 -0.091422
H21   H     H_    0.424155 0.642037 0.215425 0.210084
H22   H     H_    0.487297 0.650166 0.322062 0.107517
H23   H     H_    0.574278 0.647332 0.193941 0.229791
O29   O     O_3   0.781240 0.900610 0.310738 -0.509047
C42   C     C_3   0.759414 0.804351 0.348678 -0.021982
H24   H     H_    0.750070 0.731362 0.283224 0.236867
H25   H     H_    0.674161 0.776516 0.407965 0.091291
H26   H     H_    0.839903 0.821131 0.379527 0.212463
O30   O     O_3   0.615551 0.197180 0.625598 -0.577320
C43   C     C_3   0.684248 0.238995 0.705327 -0.107923
H27   H     H_    0.770653 0.315585 0.690335 0.126201
H28   H     H_    0.705594 0.172629 0.718633 0.164580
H29   H     H_    0.628984 0.266562 0.777651 0.201654
S6    S     S_3+6 0.078498 0.950447 0.600994 0.111404
O31   O     O_2   0.014031 0.867464 0.514522 -0.266502
O32   O     O_2   0.984459 0.953020 0.697449 -0.145313
O33   O     O_3   0.155735 0.082519 0.570823 -0.530385
H30   H     H_    0.124805 0.133215 0.627614 0.413509
O34   O     O_3   0.463218 0.046088 0.733614 -0.530758
C44   C     C_3   0.481793 0.957990 0.752140 -0.250903
H31   H     H_    0.543667 0.929677 0.685823 0.150920
H32   H     H_    0.392373 0.883824 0.771171 0.152999
H33   H     H_    0.528227 0.992807 0.819409 0.210675
S7    S     S_3+6 0.214821 0.055583 0.807991 0.081773
O35   O     O_2   0.189916 0.149065 0.793487 -0.307887
O36   O     O_2   0.096319 0.969818 0.857692 -0.184625
O37   O     O_3   0.316639 0.114406 0.887937 -0.462708
H34   H     H_    0.371605 0.192849 0.873332 0.365545

loop_
_geom_bond_atom_site_label_1
_geom_bond_atom_site_label_2
_ccdc_geom_bond_type
C2    C35   T    
O24   C40   S    
C20   O23   S    
C29   N1    A    
S3    O18   D    
C7    O34   S    
O27   H20   S    
C18   C26   A    
O11   H4    S    
C2    C12   S    
S6    O32   D    
O28   C41   S    
C7    C8    A    
Cu2   O6    S    
S4    O20   D    
C26   C27   A    
Cu1   Cu2   S    
C32   C36   T    
C10   C15   A    
C12   O4    A    
C5    C6    A    
C23   O6    A    
C5    C17   A    
C37   H6    S    
O33   H30   S    
C41   H21   S    
C28   H3    S    
C33   C36   S    
C43   H27   S    
C34   C35   S    
C15   O30   S    
Cu1   N1    S    
C18   H2    S    
C44   H31   S    
Cu2   O2    S    
S2    O14   D    
C29   O16   S    
C31   C32   S    
C19   N2    A    
C8    C9    A    
C22   C25   A    
O30   C43   S    
C18   C30   A    
S1    O11   S    
S3    O17   D    
C37   H7    S    
C21   C22   A    
C13   O28   S    
C19   S3    S    
S3    O19   S    
S6    O31   D    
S1    O10   D    
S4    O21   D    
C25   C29   A    
O16   C38   S    
C12   O3    A    
C27   H1    S    
C9    C14   A    
C38   H9    S    
Cu2   O8    S    
C25   C26   A    
S5    O27   S    
C44   H33   S    
C4    C16   A    
O19   H12   S    
S2    O13   D    
C1    O1    A    
C39   H14   S    
C40   H19   S    
S5    O26   D    
C33   C34   D    
C42   H25   S    
C20   C21   A    
Cu1   O5    S    
Cu2   O4    S    
C3    O29   S    
C9    C17   A    
C39   H15   S    
C40   H18   S    
O15   H8    S    
C41   H22   S    
C30   S2    S    
C4    C15   A    
O37   H34   S    
C22   C24   A    
C6    S7    S    
C31   O7    A    
S7    O36   D    
C42   H24   S    
S1    O9    D    
S4    O22   S    
C4    C23   S    
C14   O12   S    
C23   O5    A    
S2    O15   S    
C34   S1    S    
C8    C10   A    
C24   C28   A    
C31   O8    A    
O22   H13   S    
C16   S5    S    
C6    C7    A    
C5    S6    S    
C41   H23   S    
C19   C20   A    
C1    C17   S    
C43   H29   S    
S7    O37   S    
C37   H5    S    
Cu2   N2    S    
O34   C44   S    
Cu1   O7    S    
C11   C13   A    
C1    O2    A    
O12   C37   S    
Cu1   O1    S    
C38   H11   S    
S5    O25   D    
C43   H28   S    
C42   H26   S    
C33   O24   S    
O29   C42   S    
C44   H32   S    
C3    C11   A    
C10   C11   A    
C39   H16   S    
C40   H17   S    
C38   H10   S    
O23   C39   S    
C21   S4    S    
C27   C28   A    
S7    O35   D    
C24   N2    A    
C30   N1    A    
Cu1   O3    S    
C13   C14   A    
S6    O33   S    
C3    C16   A    
