data_mof_unit_9227.cif
_audit_creation_date              2012-12-10T16:53:06-0500
_audit_creation_method            fapswitch 2.2
_symmetry_space_group_name_H-M    P1
_symmetry_Int_Tables_number       1
_space_group_crystal_system       triclinic
_cell_length_a                    10.763801
_cell_length_b                    10.879534
_cell_length_c                    9.721043
_cell_angle_alpha                 89.763462
_cell_angle_beta                  90.648237
_cell_angle_gamma                 90.809376
_cell_volume                      1138.1886934

loop_
_atom_site_label
_atom_site_type_symbol
_atom_type_description
_atom_site_fract_x
_atom_site_fract_y
_atom_site_fract_z
_atom_type_partial_charge
C1    C     C_R   0.506335 0.265199 0.500436 0.887174
C2    C     C_R   0.067800 0.610815 0.559142 0.062037
C3    C     C_R   0.128960 0.510433 0.498996 -0.065956
C4    C     C_R   0.061836 0.413416 0.439589 -0.150878
C5    C     C_R   0.933714 0.413421 0.440013 -0.166953
C6    C     C_R   0.871162 0.509448 0.502073 -0.055568
C7    C     C_2   0.580163 0.932346 0.414810 0.142891
C8    C     C_2   0.502757 0.867155 0.495977 -0.358860
C9    C     C_2   0.563165 0.066067 0.397557 0.233028
C10   C     C_2   0.524497 0.132934 0.505022 -0.352855
C11   C     C_2   0.437445 0.421168 0.920893 -0.081103
C12   C     C_R   0.262686 0.502838 0.499517 0.791849
C13   C     C_2   0.427791 0.428988 0.074801 0.254621
C14   C     C_R   0.503432 0.734664 0.499475 0.858902
C15   C     C_R   0.737326 0.502835 0.500653 0.784682
C16   C     C_R   0.133823 0.713193 0.613205 -0.237268
C17   C     C_R   0.071526 0.812488 0.669743 0.188515
C18   C     C_R   0.941266 0.811052 0.673113 0.206916
C19   C     C_R   0.874955 0.710517 0.619714 -0.222572
C20   C     C_R   0.936721 0.609815 0.561718 0.067560
Cu1   Cu    Cu3+1 0.500020 0.500020 0.638630 0.976456
Cu2   Cu    Cu3+1 0.499980 0.499980 0.361370 1.013210
H1    H     H_    0.108852 0.335918 0.395448 0.177053
H2    H     H_    0.513269 0.090211 0.605378 0.151901
H3    H     H_    0.385628 0.348586 0.868670 0.187955
H4    H     H_    0.540995 0.572319 0.894787 0.204306
H5    H     H_    0.569466 0.547267 0.107211 0.191410
H6    H     H_    0.234122 0.718268 0.610051 0.161927
H7    H     H_    0.774671 0.713669 0.621679 0.172792
H8    H     H_    0.882916 0.336833 0.394232 0.154641
H9    H     H_    0.429744 0.910578 0.553496 0.148785
N1    N     N_2   0.498640 0.498660 0.846910 -0.290523
N2    N     N_2   0.498610 0.498630 0.153040 -0.288829
O1    O     O_R   0.500020 0.321960 0.617040 -0.580299
O2    O     O_R   0.499980 0.321920 0.382900 -0.523587
O3    O     O_R   0.319670 0.500020 0.617100 -0.571314
O4    O     O_R   0.319630 0.499980 0.382950 -0.546154
O5    O     O_R   0.500020 0.678080 0.617100 -0.580513
O6    O     O_R   0.499980 0.678040 0.382960 -0.545627
O7    O     O_R   0.680370 0.500020 0.617050 -0.575035
O8    O     O_R   0.680330 0.499980 0.382900 -0.564878
I1    I     I_    0.286108 0.312398 0.153570 -0.325268
I2    I     I_    0.180306 0.962067 0.745718 -0.332104
I3    I     I_    0.837771 0.958337 0.753636 -0.304445
I4    I     I_    0.731977 0.849528 0.310959 -0.347639
N3    N     N_2   0.594016 0.123793 0.270183 -0.395970
H10   H     H_    0.688378 0.132738 0.255180 0.270177
C21   C     C_3   0.527370 0.077675 0.150511 -0.535771
H11   H     H_    0.539606 0.143170 0.063677 0.227991
H12   H     H_    0.426625 0.067901 0.172192 0.247129
H13   H     H_    0.563444 0.987148 0.119137 0.236060

loop_
_geom_bond_atom_site_label_1
_geom_bond_atom_site_label_2
_ccdc_geom_bond_type
C16   H6    S    
C17   I2    S    
H4    N1    S    
Cu1   O1    S    
C18   I3    S    
C14   O5    A    
C6    C20   A    
C9    C10   D    
C19   C20   A    
C21   H12   S    
C17   C18   A    
C6    C15   S    
C9    N3    S    
Cu1   O3    S    
Cu1   Cu2   S    
H5    N2    S    
C13   N2    D    
Cu2   O2    S    
C11   C13   S    
C15   O8    A    
Cu1   O5    S    
Cu1   O7    S    
Cu2   O6    S    
C7    I4    S    
C13   I1    S    
C11   N1    D    
C2    C3    A    
C21   H13   S    
C5    C6    A    
Cu1   N1    S    
N3    C21   S    
C15   O7    A    
Cu2   O8    S    
C12   O3    A    
C11   H3    S    
C2    C20   A    
C3    C4    A    
C19   H7    S    
C7    C8    D    
C2    C16   A    
C1    O1    A    
C1    O2    A    
C18   C19   A    
C5    H8    S    
C12   O4    A    
C7    C9    S    
Cu2   N2    S    
N3    H10   S    
C21   H11   S    
C8    C14   S    
C3    C12   S    
C10   H2    S    
C14   O6    A    
C8    H9    S    
C4    C5    A    
Cu2   O4    S    
C4    H1    S    
C1    C10   S    
C16   C17   A    
