data_mof_unit_14136.cif
_audit_creation_date              2012-12-10T19:08:09-0500
_audit_creation_method            fapswitch 2.2
_symmetry_space_group_name_H-M    P1
_symmetry_Int_Tables_number       1
_space_group_crystal_system       triclinic
_cell_length_a                    9.056087
_cell_length_b                    10.993384
_cell_length_c                    9.614843
_cell_angle_alpha                 91.782848
_cell_angle_beta                  90.786417
_cell_angle_gamma                 93.018189
_cell_volume                      955.321614438

loop_
_atom_site_label
_atom_site_type_symbol
_atom_type_description
_atom_site_fract_x
_atom_site_fract_y
_atom_site_fract_z
_atom_type_partial_charge
C1    C     C_R   0.507328 0.262407 0.495769 0.793823
C2    C     C_R   0.587500 0.582368 0.936367 0.164213
C3    C     C_3   0.718210 0.677932 0.946968 0.186074
C4    C     C_R   0.220860 0.498926 0.499121 0.843592
C5    C     C_3   0.715730 0.660730 0.105736 -0.437545
C6    C     C_R   0.502684 0.737357 0.502126 0.822539
C7    C     C_R   0.778771 0.497179 0.499901 0.851181
C8    C     C_1   0.065433 0.495962 0.497362 -0.125704
C9    C     C_1   0.934060 0.494842 0.498128 -0.097974
C10   C     C_R   0.476259 0.067737 0.608549 -0.013358
C11   C     C_R   0.512478 0.127879 0.485230 -0.212734
C12   C     C_R   0.546669 0.926660 0.381421 -0.196252
C13   C     C_R   0.548043 0.051230 0.364636 0.470400
C14   C     C_3   0.558475 0.189616 0.176541 -0.213054
C15   C     C_3   0.315194 0.878987 0.852366 -0.144412
C16   C     C_R   0.509721 0.870235 0.503676 -0.223336
C17   C     C_R   0.470603 0.941234 0.617717 -0.003840
C18   C     C_3   0.545382 0.951025 0.758742 0.338298
C19   C     C_3   0.549329 0.087974 0.748182 -0.428994
C20   C     C_R   0.577649 0.586443 0.077968 0.188592
C21   C     C_R   0.395862 0.434088 0.069473 -0.081009
C22   C     C_R   0.404620 0.425162 0.921164 -0.018882
Cu1   Cu    Cu3+1 0.499990 0.499980 0.640670 0.994785
Cu2   Cu    Cu3+1 0.500010 0.500020 0.359330 0.938791
H1    H     H_    0.679245 0.769971 0.923893 0.132941
H2    H     H_    0.648431 0.256436 0.214991 0.193947
H3    H     H_    0.439373 0.206035 0.188429 0.174920
H4    H     H_    0.571538 0.186969 0.061277 0.162218
H5    H     H_    0.302071 0.795397 0.784138 0.192267
H6    H     H_    0.257308 0.955661 0.806901 0.148636
H7    H     H_    0.262060 0.858524 0.953464 0.231090
H8    H     H_    0.943280 0.846205 0.808828 0.334025
H9    H     H_    0.801205 0.600501 0.148470 0.237557
H10   H     H_    0.706857 0.746889 0.165452 0.179687
H11   H     H_    0.570966 0.872467 0.291384 0.198181
H12   H     H_    0.658148 0.915423 0.755682 0.092215
H13   H     H_    0.476810 0.134275 0.823642 0.203322
H14   H     H_    0.664091 0.129999 0.741538 0.163146
H15   H     H_    0.460529 0.392519 0.146902 0.200224
H16   H     H_    0.324813 0.366607 0.862621 0.151389
N1    N     N_R   0.500920 0.500930 0.147930 -0.275835
N2    N     N_R   0.500930 0.500890 0.852020 -0.194806
O1    O     O_R   0.500000 0.319640 0.618810 -0.579614
O2    O     O_3   0.466011 0.911345 0.878451 -0.586559
O3    O     O_2   0.998754 0.592461 0.983988 -0.258745
O4    O     O_2   0.919391 0.619703 0.747326 -0.305409
O5    O     O_3   0.978149 0.811291 0.896435 -0.555319
O6    O     O_R   0.500020 0.319680 0.381230 -0.635517
O7    O     O_R   0.288380 0.499980 0.618770 -0.561158
O8    O     O_R   0.288400 0.500020 0.381190 -0.562770
O9    O     O_R   0.499980 0.680320 0.618770 -0.583516
O10   O     O_R   0.500000 0.680360 0.381190 -0.572281
O11   O     O_R   0.711600 0.499980 0.618810 -0.522410
O12   O     O_R   0.711620 0.500020 0.381230 -0.611090
O13   O     O_3   0.582738 0.075009 0.224600 -0.582343
S1    S     S_3+6 0.906842 0.666967 0.891649 -0.003583

loop_
_geom_bond_atom_site_label_1
_geom_bond_atom_site_label_2
_ccdc_geom_bond_type
Cu2   O10   S    
C14   O13   S    
Cu1   Cu2   S    
C1    O6    A    
C15   H5    S    
C19   H14   S    
C18   O2    S    
C6    O9    A    
C6    C16   S    
C3    S1    S    
C10   C19   S    
Cu1   O9    S    
C21   H15   S    
C4    O7    A    
C4    C8    S    
C22   H16   S    
C5    H10   S    
C3    C5    S    
C20   N1    A    
C5    C20   S    
C21   C22   A    
C14   H2    S    
C12   H11   S    
C15   H7    S    
Cu2   N1    S    
C11   C13   A    
C22   N2    A    
Cu1   N2    S    
C2    N2    A    
C21   N1    A    
Cu1   O11   S    
C15   O2    S    
C2    C3    S    
C5    H9    S    
Cu2   O8    S    
C14   H3    S    
H8    O5    S    
Cu1   O7    S    
C16   C17   A    
C10   C11   A    
C7    O11   A    
C10   C17   A    
Cu2   O12   S    
Cu2   O6    S    
C6    O10   A    
C3    H1    S    
Cu1   O1    S    
C12   C13   A    
C15   H6    S    
C17   C18   S    
C18   C19   S    
O4    S1    D    
C7    C9    S    
C2    C20   A    
C8    C9    T    
C19   H13   S    
C7    O12   A    
C14   H4    S    
C18   H12   S    
C1    O1    A    
C12   C16   A    
O3    S1    D    
C4    O8    A    
O5    S1    S    
C13   O13   S    
C1    C11   S    
