data_mof_unit_11054.cif
_audit_creation_date              2013-03-05T15:52:29-0500
_audit_creation_method            fapswitch 2.2
_symmetry_space_group_name_H-M    P1
_symmetry_Int_Tables_number       1
_space_group_crystal_system       triclinic
_cell_length_a                    27.852804
_cell_length_b                    10.797864
_cell_length_c                    9.70092
_cell_angle_alpha                 93.56119
_cell_angle_beta                  89.323989
_cell_angle_gamma                 94.457404
_cell_volume                      2903.04694757

loop_
_atom_site_label
_atom_site_type_symbol
_atom_site_description
_atom_site_fract_x
_atom_site_fract_y
_atom_site_fract_z
_atom_type_partial_charge
O1    O     O_R   0.500000 0.319640 0.618810 -0.553122
O2    O     O_R   0.500000 0.319660 0.381240 -0.509158
C1    C     C_R   0.501061 0.261528 0.497112 0.904519
O3    O     O_R   0.430260 0.500010 0.618770 -0.564469
O4    O     O_R   0.430270 0.500030 0.381200 -0.544085
C2    C     C_R   0.407698 0.502163 0.500724 0.879594
Cu1   Cu    Cu3+1 0.500000 0.499990 0.640660 1.109716
Cu2   Cu    Cu3+1 0.500000 0.500010 0.359340 1.134705
O5    O     O_R   0.500000 0.680340 0.618760 -0.521334
O6    O     O_R   0.500000 0.680360 0.381190 -0.558492
O7    O     O_R   0.569730 0.499970 0.618800 -0.530879
O8    O     O_R   0.569740 0.499990 0.381230 -0.565107
C3    C     C_R   0.493733 0.735435 0.504904 0.906629
C4    C     C_R   0.592072 0.491888 0.498845 0.948137
C5    C     C_R   0.175922 0.408021 0.532688 0.664433
O9    O     O_2   0.198487 0.305955 0.559236 -0.455229
N1    N     N_R   0.202340 0.515154 0.503490 -0.445032
C6    C     C_R   0.180804 0.620066 0.474613 0.690396
C7    C     C_R   0.279718 0.514810 0.376656 0.317643
C8    C     C_R   0.329836 0.511428 0.377625 -0.135420
C9    C     C_R   0.329320 0.517419 0.626887 -0.174825
C10   C     C_R   0.279144 0.520064 0.629172 0.326623
C11   C     C_R   0.254017 0.517238 0.503150 0.106018
C12   C     C_R   0.102187 0.509347 0.502807 -0.076694
C13   C     C_R   0.125563 0.403874 0.535850 -0.020039
C14   C     C_R   0.098339 0.295918 0.570200 -0.072162
C15   C     C_R   0.130018 0.618418 0.467718 -0.144433
C16   C     C_R   0.354899 0.509571 0.501894 -0.138568
H1    H     H_    0.348370 0.524262 0.723619 0.247119
H2    H     H_    0.115491 0.212889 0.592919 0.222344
C17   C     C_R   0.644873 0.478514 0.499032 -0.138626
C18   C     C_R   0.972873 0.397969 0.561353 0.004311
C19   C     C_R   0.976229 0.599319 0.455469 0.026333
C20   C     C_R   0.949086 0.496289 0.509066 0.088417
C21   C     C_R   0.944971 0.302458 0.624576 -0.229864
C22   C     C_R   0.894869 0.297778 0.628886 0.353637
C23   C     C_R   0.870617 0.392852 0.572169 -0.124246
C24   C     C_R   0.897835 0.491282 0.509939 -0.108161
C25   C     C_R   0.873779 0.584636 0.448451 -0.130160
C26   C     C_R   0.823042 0.571298 0.441466 0.629742
N2    N     N_R   0.797591 0.479792 0.508508 -0.461597
C27   C     C_R   0.820030 0.395212 0.578477 0.658558
C28   C     C_R   0.718839 0.381557 0.427277 0.375192
C29   C     C_R   0.667754 0.381155 0.422845 0.268263
C30   C     C_R   0.673188 0.566336 0.581528 -0.137654
C31   C     C_R   0.722770 0.565067 0.584976 -0.096154
C32   C     C_R   0.745864 0.474598 0.507330 0.181365
O10   O     O_2   0.793174 0.315193 0.654685 -0.408990
C33   C     C_R   0.023782 0.397804 0.548985 0.072941
C34   C     C_R   0.050991 0.505162 0.505134 0.088597
C35   C     C_R   0.027409 0.608056 0.463733 0.013010
C36   C     C_R   0.048508 0.292774 0.577027 -0.170461
H3    H     H_    0.961190 0.229023 0.673018 0.178403
H4    H     H_    0.030297 0.204823 0.600599 0.162949
O11   O     O_2   0.208715 0.725358 0.455383 -0.410652
C37   C     C_R   0.106099 0.722319 0.431162 0.354674
H5    H     H_    0.349109 0.509018 0.280199 0.244644
C38   C     C_R   0.951276 0.690387 0.394515 -0.230874
C39   C     C_R   0.901184 0.685408 0.392193 0.345517
O12   O     O_2   0.798985 0.647228 0.366622 -0.399751
C40   C     C_R   0.055889 0.716606 0.431708 -0.231649
H6    H     H_    0.969741 0.767612 0.345873 0.180083
H7    H     H_    0.657415 0.639627 0.641423 0.229152
H8    H     H_    0.743603 0.636097 0.647436 0.197922
H9    H     H_    0.040214 0.800542 0.407194 0.177564
C41   C     C_R   0.548903 0.124532 0.715566 0.402441
C42   C     C_R   0.551292 0.075379 0.844560 -0.190961
H10   H     H_    0.575837 0.119510 0.921889 0.252636
C43   C     C_R   0.521682 0.971668 0.876114 0.377003
C44   C     C_R   0.493262 0.907176 0.772717 0.421138
C45   C     C_R   0.497323 0.944925 0.635045 -0.123674
C46   C     C_R   0.516839 0.066401 0.613034 -0.045998
C47   C     C_R   0.501007 0.124211 0.494495 -0.143517
C48   C     C_R   0.473390 0.051003 0.392674 0.232622
C49   C     C_R   0.464975 0.921736 0.403079 0.259435
C50   C     C_R   0.482696 0.867594 0.517963 -0.177746
C51   C     C_R   0.584502 0.569463 0.132468 0.273710
C52   C     C_R   0.612883 0.676938 0.104453 0.229993
C53   C     C_R   0.606467 0.725028 0.977973 -0.243673
H11   H     H_    0.630736 0.802662 0.948644 0.251238
C54   C     C_R   0.571925 0.668261 0.884992 0.368546
C55   C     C_R   0.535385 0.574645 0.931459 0.089670
C56   C     C_R   0.538294 0.555550 0.075919 -0.026219
N3    N     N_R   0.500460 0.501210 0.147910 -0.225772
C57   C     C_R   0.464504 0.437663 0.069109 0.445591
C58   C     C_R   0.466446 0.430477 0.921783 0.369782
N4    N     N_R   0.500480 0.501290 0.852040 -0.243324
N5    N     N_R   0.255534 0.515650 0.246631 0.174620
O13   O     O_R   0.276731 0.571185 0.144620 -0.205944
O14   O     O_R   0.213876 0.454435 0.226044 -0.286931
N6    N     N_R   0.131702 0.833389 0.386730 0.174690
O15   O     O_R   0.122536 0.941031 0.444611 -0.310545
O16   O     O_R   0.155463 0.829414 0.270432 -0.221033
N7    N     N_R   0.879218 0.788236 0.338901 0.172519
O17   O     O_R   0.854601 0.859254 0.421555 -0.218475
O18   O     O_R   0.892212 0.826282 0.218393 -0.274114
N8    N     N_R   0.450696 0.108414 0.284694 0.173686
O19   O     O_R   0.475584 0.138360 0.175804 -0.220342
O20   O     O_R   0.403974 0.108057 0.283173 -0.223029
Cl1   Cl    Cl    0.593318 0.243809 0.684778 -0.522042
N9    N     N_R   0.254257 0.524673 0.759912 0.170024
O21   O     O_R   0.271282 0.472429 0.864294 -0.205100
O22   O     O_R   0.216238 0.586739 0.778158 -0.288336
Cl2   Cl    Cl    0.524520 0.918913 0.043084 -0.475364
Cl3   Cl    Cl    0.446539 0.798005 0.822520 -0.442532
N10   N     N_R   0.433373 0.847303 0.308120 0.173261
O23   O     O_R   0.430788 0.871973 0.179077 -0.169438
O24   O     O_R   0.403235 0.761217 0.354410 -0.347565
Cl4   Cl    Cl    0.416229 0.352579 0.145821 -0.395796
N11   N     N_R   0.608970 0.457177 0.139201 0.138608
O25   O     O_R   0.655812 0.461779 0.133028 -0.285847
O26   O     O_R   0.584873 0.349360 0.118984 -0.274819
N12   N     N_R   0.652429 0.723804 0.191717 0.191977
O27   O     O_R   0.652807 0.696774 0.320310 -0.320033
O28   O     O_R   0.686103 0.802151 0.147211 -0.226287
Cl5   Cl    Cl    0.581810 0.740137 0.729853 -0.633468
N13   N     N_R   0.433159 0.344756 0.846814 0.165666
O29   O     O_R   0.443921 0.230106 0.824893 -0.303679
O30   O     O_R   0.388118 0.367951 0.843805 -0.284767
N14   N     N_R   0.640062 0.281060 0.346604 0.196477
O31   O     O_R   0.596554 0.246028 0.384116 -0.326266
O32   O     O_R   0.657883 0.223000 0.238548 -0.166838
Cl6   Cl    Cl    0.750588 0.265634 0.337037 -0.352597
N15   N     N_R   0.869551 0.190755 0.683874 0.170881
O33   O     O_R   0.881085 0.156125 0.804440 -0.274673
O34   O     O_R   0.843047 0.113904 0.602524 -0.200740

loop_
_geom_bond_atom_site_label_1
_geom_bond_atom_site_label_2
_geom_bond_distance
_ccdc_geom_bond_type
C38   H6    1.076558 S    
C19   C38   1.409891 A    
C26   O12   1.348775 S    
C21   H3    1.077323 S    
N2    C27   1.364248 A    
C7    C8    1.399385 A    
C35   C40   1.412266 A    
C12   C15   1.416162 A    
C4    C17   1.488881 S    
C49   C50   1.402224 A    
C54   C55   1.465183 A    
Cu1   Cu2   2.729076 S    
C51   C52   1.391774 A    
Cu1   O7    1.951245 S    
N9    O21   1.300885 A    
C10   N9    1.438169 S    
O4    C2    1.312231 A    
C22   C23   1.414090 A    
C22   N15   1.434696 S    
C57   Cl4   1.753613 S    
N13   O30   1.299225 A    
C45   C50   1.411909 A    
O7    C4    1.314436 A    
C5    C13   1.399909 A    
N10   O23   1.299906 A    
C51   C56   1.398658 A    
C55   N4    1.410067 A    
N8    O19   1.300480 A    
C5    N1    1.365028 A    
C47   C48   1.420797 A    
C41   Cl1   1.752085 S    
C23   C27   1.411755 A    
O5    C3    1.306384 A    
N11   O25   1.302567 A    
O1    Cu1   1.945764 S    
C37   N6    1.434121 S    
C41   C46   1.427288 A    
C21   C22   1.392693 A    
C36   H4    1.077415 S    
C44   C45   1.421103 A    
C39   N7    1.434845 S    
C41   C42   1.393551 A    
N9    O22   1.301141 A    
Cu2   N3    2.051794 S    
C9    C10   1.399927 A    
C51   N11   1.441566 S    
O3    Cu1   1.956537 S    
N8    O20   1.301295 A    
N14   O32   1.301032 A    
N1    C6    1.367696 A    
C48   N8    1.427682 S    
C12   C34   1.423093 A    
C2    C16   1.478837 S    
C17   C29   1.433193 A    
C42   H10   1.083612 S    
C18   C21   1.409426 A    
C12   C13   1.410420 A    
O3    C2    1.315058 A    
C7    N5    1.437790 S    
C48   C49   1.406940 A    
N6    O15   1.301187 A    
C53   C54   1.405359 A    
C15   C37   1.414015 A    
C27   O10   1.348498 S    
C8    C16   1.402159 A    
C38   C39   1.392437 A    
C57   C58   1.427093 A    
C9    H1    1.079173 S    
C30   H7    1.071350 S    
C31   H8    1.083262 S    
O1    C1    1.303237 A    
C18   C20   1.416854 A    
C7    C11   1.413187 A    
C28   C29   1.423678 A    
C23   C24   1.418603 A    
C14   C36   1.386614 A    
N6    O16   1.301321 A    
C56   N3    1.371103 A    
C3    C50   1.480474 S    
Cu2   O8    1.956532 S    
C33   C36   1.413732 A    
C25   C39   1.413989 A    
C34   C35   1.414998 A    
N2    C32   1.437624 S    
N7    O17   1.301326 A    
C37   C40   1.395008 A    
N1    C11   1.437760 S    
N3    C57   1.379934 A    
N7    O18   1.301143 A    
C6    O11   1.348075 S    
C26   N2    1.364506 A    
C9    C16   1.400457 A    
N5    O14   1.301131 A    
C14   H2    1.083593 S    
C30   C31   1.382944 A    
C52   N12   1.438082 S    
C28   Cl6   1.769971 S    
C25   C26   1.411282 A    
N14   O31   1.295935 A    
C58   N4    1.370200 A    
N15   O34   1.301348 A    
N12   O27   1.299037 A    
C43   Cl2   1.754716 S    
C42   C43   1.386019 A    
Cu1   O5    1.972024 S    
C31   C32   1.389325 A    
C20   C24   1.424237 A    
O2    Cu2   1.972024 S    
C6    C15   1.415569 A    
O8    C4    1.316817 A    
C46   C47   1.431915 A    
O6    C3    1.321736 A    
O4    Cu2   1.951248 S    
C19   C35   1.424185 A    
C44   Cl3   1.770337 S    
O2    C1    1.322769 A    
C13   C14   1.396339 A    
C45   C46   1.408120 A    
N13   O29   1.300436 A    
C52   C53   1.380506 A    
C24   C25   1.417746 A    
N10   O24   1.300779 A    
C54   Cl5   1.745061 S    
C19   C20   1.418237 A    
C58   N13   1.429751 S    
C43   C44   1.401384 A    
C1    C47   1.481255 S    
N11   O26   1.302908 A    
C18   C33   1.421735 A    
C53   H11   1.085172 S    
C40   H9    1.076728 S    
Cu1   N4    2.049952 S    
N5    O13   1.300901 A    
C49   N10   1.444487 S    
Cu2   O6    1.945764 S    
C33   C34   1.419944 A    
C17   C30   1.402166 A    
C29   N14   1.447305 S    
C10   C11   1.413349 A    
C55   C56   1.433230 A    
C8    H5    1.081326 S    
C28   C32   1.406518 A    
C5    O9    1.350072 S    
N15   O33   1.301109 A    
N12   O28   1.301641 A    
