data_mof_unit_15772.cif
_audit_creation_date              2012-12-11T17:43:41-0500
_audit_creation_method            fapswitch 2.2
_symmetry_space_group_name_H-M    P1
_symmetry_Int_Tables_number       1
_space_group_crystal_system       triclinic
_cell_length_a                    14.841383
_cell_length_b                    15.063095
_cell_length_c                    17.254263
_cell_angle_alpha                 109.762862
_cell_angle_beta                  106.493723
_cell_angle_gamma                 107.809954
_cell_volume                      3116.53213435

loop_
_atom_site_label
_atom_site_type_symbol
_atom_type_description
_atom_site_fract_x
_atom_site_fract_y
_atom_site_fract_z
_atom_type_partial_charge
Br1   Br    Br    0.211905 0.291318 0.126433 -0.626378
Br2   Br    Br    0.340928 0.851252 0.617796 -0.486349
Br3   Br    Br    0.873418 0.064488 0.075931 -0.486276
Br4   Br    Br    0.094154 0.789189 0.754498 -0.472330
Br5   Br    Br    0.651205 0.177078 0.895348 -0.528191
Br6   Br    Br    0.322013 0.904317 0.170467 -0.546971
Br7   Br    Br    0.246779 0.624538 0.829440 -0.576271
Br8   Br    Br    0.762069 0.291785 0.138901 -0.429461
Br9   Br    Br    0.797137 0.616159 0.789211 -0.618327
Br10  Br    Br    0.518731 0.341692 0.044793 -0.491051
Br11  Br    Br    0.542500 0.807005 0.109747 -0.479113
Br12  Br    Br    0.830656 0.563614 0.321912 -0.500004
Br13  Br    Br    0.160546 0.344237 0.669284 -0.466055
Br14  Br    Br    0.628226 0.190059 0.537869 -0.484414
Br15  Br    Br    0.156422 0.795628 0.432839 -0.426306
Br16  Br    Br    0.420555 0.222677 0.443571 -0.447284
C1    C     C_R   0.090162 0.274030 0.034796 0.334910
C2    C     C_R   0.094420 0.060210 0.942695 -0.161564
C3    C     C_R   0.004671 0.875864 0.903890 0.151068
C4    C     C_R   0.001385 0.070061 0.933772 0.122660
C5    C     C_R   0.098161 0.964381 0.929957 0.080512
C6    C     C_R   0.906506 0.976554 0.892089 0.060413
C7    C     C_R   0.724677 0.926396 0.787605 -0.218878
C8    C     C_R   0.289529 0.034759 0.024499 -0.167614
C9    C     C_R   0.592262 0.929555 0.842670 -0.090577
C10   C     C_R   0.396765 0.964792 0.967020 -0.077585
C11   C     C_R   0.588981 0.627800 0.387470 -0.089687
C12   C     C_R   0.914237 0.700851 0.907906 0.279711
C13   C     C_R   0.549291 0.652101 0.826627 -0.042596
C14   C     C_R   0.575823 0.627922 0.304003 -0.082357
C15   C     C_R   0.531173 0.622656 0.891030 -0.095287
C16   C     C_R   0.934913 0.448116 0.736814 -0.123175
C17   C     C_R   0.065296 0.501114 0.259984 -0.107957
C18   C     C_R   0.521226 0.532738 0.221895 0.119993
C19   C     C_R   0.611554 0.671432 0.979748 0.126250
C20   C     C_R   0.479111 0.437726 0.225549 -0.063864
C21   C     C_R   0.707718 0.752760 0.005579 -0.065211
C22   C     C_R   0.492445 0.437918 0.309171 -0.032057
C23   C     C_R   0.026829 0.466809 0.727013 0.005910
C24   C     C_R   0.726385 0.779377 0.940379 -0.144111
C25   C     C_R   0.547564 0.532816 0.390084 -0.077875
C26   C     C_R   0.647579 0.729031 0.850812 -0.076810
C27   C     C_R   0.557083 0.489688 0.083092 0.310011
C28   C     C_R   0.539731 0.671567 0.088584 0.293033
C29   C     C_R   0.605226 0.541775 0.040519 -0.060747
C30   C     C_R   0.480699 0.609160 0.116343 -0.075150
C31   C     C_R   0.594275 0.633109 0.043310 -0.114165
C32   C     C_R   0.511193 0.536153 0.134656 -0.095702
C33   C     C_R   0.620751 0.905846 0.770441 -0.116492
C34   C     C_R   0.973022 0.456762 0.265314 0.013777
C35   C     C_R   0.387245 0.036310 0.036855 0.057731
C36   C     C_R   0.964005 0.455877 0.344971 0.033797
C37   C     C_R   0.028783 0.450314 0.640935 0.029752
C38   C     C_R   0.081314 0.387828 0.521521 -0.223889
C39   C     C_R   0.907189 0.510922 0.462160 -0.178915
C40   C     C_R   0.717441 0.219015 0.825047 0.270506
C41   C     C_R   0.230028 0.798676 0.187167 0.309505
C42   C     C_R   0.084168 0.399918 0.605971 0.388414
C43   C     C_R   0.905762 0.502407 0.379675 0.386930
C44   C     C_R   0.971129 0.487376 0.593019 -0.169754
C45   C     C_R   0.665529 0.214738 0.741359 0.033688
C46   C     C_R   0.021160 0.416324 0.390507 -0.191835
C47   C     C_R   0.966398 0.473996 0.509271 0.109414
C48   C     C_R   0.022843 0.425041 0.473240 0.111160
C49   C     C_R   0.560437 0.135758 0.665693 -0.001546
C50   C     C_R   0.269202 0.900664 0.355710 -0.035617
C51   C     C_R   0.380296 0.086679 0.440004 0.437250
C52   C     C_R   0.401718 0.971567 0.600400 0.390442
C53   C     C_R   0.303283 0.999686 0.359138 -0.197955
C54   C     C_R   0.496826 0.050772 0.672548 -0.246740
C55   C     C_R   0.278222 0.896245 0.437359 0.330215
C56   C     C_R   0.237223 0.805256 0.271518 0.042933
C57   C     C_R   0.526672 0.138925 0.581997 0.318064
C58   C     C_R   0.364208 0.979687 0.519288 -0.112603
C59   C     C_R   0.423337 0.071471 0.515719 -0.123012
C60   C     C_R   0.668595 0.978107 0.932637 -0.054480
C61   C     C_R   0.308823 0.892038 0.884422 -0.116921
C62   C     C_R   0.773330 0.000589 0.950840 0.335022
C63   C     C_R   0.210139 0.888913 0.871396 0.376444
C64   C     C_R   0.307274 0.601119 0.016353 -0.013946
C65   C     C_R   0.728937 0.456336 0.039506 0.038838
C66   C     C_R   0.801364 0.971450 0.877517 -0.053056
C67   C     C_R   0.366380 0.573506 0.074187 0.067674
C68   C     C_R   0.199767 0.960750 0.942145 -0.063866
C69   C     C_R   0.726329 0.309357 0.747055 -0.098703
C70   C     C_R   0.215650 0.704830 0.263522 -0.130988
C71   C     C_R   0.296810 0.504692 0.088064 -0.070925
C72   C     C_R   0.723770 0.537887 0.952925 -0.124959
C73   C     C_R   0.109518 0.539853 0.811521 0.381590
C74   C     C_R   0.891218 0.412109 0.181282 0.368555
C75   C     C_R   0.919006 0.195943 0.944006 -0.104563
C76   C     C_R   0.085385 0.790219 0.991004 -0.128355
C77   C     C_R   0.005130 0.176261 0.967248 -0.012506
C78   C     C_R   0.679376 0.510457 0.008304 0.079982
C79   C     C_R   0.001814 0.791182 0.931052 -0.011929
C80   C     C_R   0.910386 0.880822 0.870411 -0.215760
H1    H     H_    0.557765 0.532774 0.454727 0.151305
H2    H     H_    0.864212 0.548551 0.490398 0.176863
H3    H     H_    0.855804 0.400841 0.683242 0.174596
H4    H     H_    0.143827 0.528688 0.310177 0.138410
H5    H     H_    0.511350 0.912031 0.829056 0.162954
H6    H     H_    0.472463 0.966134 0.976709 0.149745
H7    H     H_    0.646367 0.997829 0.988395 0.176670
H8    H     H_    0.317655 0.838440 0.830060 0.197868
H9    H     H_    0.317558 0.483902 0.142051 0.152734
H10   H     H_    0.701803 0.573523 0.911153 0.165023
H11   H     H_    0.744841 0.903824 0.730679 0.165242
H12   H     H_    0.662315 0.747395 0.799172 0.151203
H13   H     H_    0.283645 0.090966 0.079485 0.186858
H14   H     H_    0.459318 0.364348 0.311102 0.176276
H15   H     H_    0.803327 0.837562 0.960417 0.152269
H16   H     H_    0.065599 0.380978 0.362230 0.164788
H17   H     H_    0.929978 0.527664 0.621675 0.182003
H18   H     H_    0.561943 0.869181 0.700884 0.168594
H19   H     H_    0.455671 0.093129 0.100636 0.173846
H20   H     H_    0.524037 0.038089 0.730354 0.206327
H21   H     H_    0.274557 0.009317 0.299133 0.203604
H22   H     H_    0.338856 0.666480 0.004046 0.194082
H23   H     H_    0.631580 0.701422 0.450186 0.138477
H24   H     H_    0.721638 0.431305 0.089364 0.186406
H25   H     H_    0.699964 0.345918 0.707124 0.185958
H26   H     H_    0.223131 0.683602 0.317682 0.157635
H27   H     H_    0.841487 0.144155 0.890610 0.146720
H28   H     H_    0.166108 0.837040 0.010253 0.178082
H29   H     H_    0.837632 0.812005 0.838765 0.170164
H30   H     H_    0.165245 0.127830 0.961936 0.176580
H31   H     H_    0.488393 0.613561 0.757645 0.156225
H32   H     H_    0.609488 0.702416 0.303584 0.150750
H33   H     H_    0.455867 0.560363 0.871535 0.170884
H34   H     H_    0.433341 0.363405 0.164147 0.191434
H35   H     H_    0.769625 0.790676 0.074101 0.157400
H36   H     H_    0.124154 0.349611 0.493806 0.179402
N1    N     N_R   0.055660 0.348550 0.045620 -0.076019
N2    N     N_R   0.185200 0.638170 0.176300 -0.069060
N3    N     N_R   0.201680 0.494570 0.045620 -0.060902
N4    N     N_R   0.798320 0.505430 0.954380 -0.050521
N5    N     N_R   0.068420 0.560530 0.871650 -0.083197
N6    N     N_R   0.931580 0.439470 0.128350 -0.084824
N7    N     N_R   0.948070 0.295860 0.997670 -0.049510
N8    N     N_R   0.051930 0.704140 0.002330 -0.067341
N9    N     N_R   0.944340 0.651450 0.954380 -0.069921
N10   N     N_R   0.960830 0.507850 0.823700 -0.048603
N11   N     N_R   0.039170 0.492150 0.176300 -0.067135
N12   N     N_R   0.811290 0.303410 0.871650 -0.078477
N13   N     N_R   0.188710 0.696590 0.128350 -0.075118
N14   N     N_R   0.205200 0.552990 0.997670 -0.061986
N15   N     N_R   0.794800 0.447010 0.002330 -0.053188
N16   N     N_R   0.814800 0.361830 0.823700 -0.066374
Ni1   Ni    Ni4+2 0.119340 0.493420 0.109960 0.240872
Ni2   Ni    Ni4+2 0.880660 0.506580 0.890040 0.264737
Ni3   Ni    Ni4+2 0.872590 0.372590 0.000000 0.307730
Ni4   Ni    Ni4+2 0.127410 0.627410 0.000000 0.262371

loop_
_geom_bond_atom_site_label_1
_geom_bond_atom_site_label_2
_ccdc_geom_bond_type
C67   C71   A    
C4    C77   S    
C7    C66   A    
C39   C43   A    
C13   C26   A    
C2    C5    A    
Br5   C40   S    
C69   N16   A    
N12   N16   A    
C19   C31   S    
C51   C59   A    
C17   N11   A    
C38   H36   S    
C65   H24   S    
C12   C79   A    
C6    C66   S    
C3    C5    A    
C60   C62   A    
N12   Ni3   S    
C41   N13   A    
N6    N11   A    
C76   H28   S    
C63   C68   A    
C7    C33   A    
C50   C53   A    
C52   C58   A    
C49   C54   A    
Br7   C73   S    
C49   C57   A    
C2    C4    A    
C16   C23   A    
N7    Ni3   S    
C11   C25   A    
C46   C48   A    
C55   C58   A    
Br12  C43   S    
C70   N2    A    
C14   H32   S    
C50   C56   S    
C28   C30   A    
C65   N15   A    
C39   C47   A    
C70   H26   S    
C34   C36   S    
N5    Ni4   S    
C69   H25   S    
C22   H14   S    
C27   C32   A    
N8    Ni4   S    
C16   N10   A    
C28   C31   A    
C60   H7    S    
C64   N14   A    
C33   H18   S    
C75   N7    A    
C75   H27   S    
N4    N15   A    
C11   C14   A    
C57   C59   A    
Br6   C41   S    
C44   H17   S    
C64   C67   A    
C29   C78   S    
C74   N6    A    
C37   C44   A    
C34   C74   A    
N9    Ni2   S    
C24   H15   S    
C72   C78   A    
C29   C31   A    
C64   H22   S    
N5    N10   A    
C58   C59   A    
C14   C18   A    
C47   C48   A    
C10   C61   A    
Br14  C57   S    
C71   N3    A    
N1    Ni1   S    
N8    N9    A    
C72   N4    A    
C22   C25   A    
Br13  C42   S    
C54   H20   S    
C17   C34   A    
N3    Ni1   S    
N2    Ni1   S    
C76   C79   A    
C35   H19   S    
C21   H35   S    
C51   C53   A    
N15   Ni3   S    
C36   C43   A    
C20   H34   S    
C75   C77   A    
C72   H10   S    
C62   C66   A    
N4    Ni2   S    
C50   C55   A    
C71   H9    S    
C5    C68   S    
N3    N14   A    
C7    H11   S    
C61   C63   A    
Br11  C28   S    
Br16  C51   S    
C27   C29   A    
C45   C69   A    
Br4   C63   S    
N14   Ni4   S    
C52   C54   A    
C4    C6    A    
N1    N7    A    
C73   N5    A    
C13   H31   S    
C1    N1    A    
C15   C19   A    
C1    C77   A    
C76   N8    A    
C3    C79   S    
C38   C42   A    
N2    N13   A    
C19   C21   A    
Br10  C27   S    
C6    C80   A    
C8    H13   S    
N16   Ni2   S    
C24   C26   A    
Br8   C74   S    
C56   C70   A    
C37   C42   A    
C11   H23   S    
N6    Ni3   S    
C21   C24   A    
Br15  C55   S    
C18   C32   S    
Br2   C52   S    
C16   H3    S    
C17   H4    S    
N10   Ni2   S    
C20   C22   A    
C8    C68   A    
C13   C15   A    
C36   C46   A    
C10   C35   A    
C10   H6    S    
C65   C78   A    
C9    H5    S    
C23   C37   S    
C38   C48   A    
C8    C35   A    
C39   H2    S    
C53   H21   S    
C18   C20   A    
C80   H29   S    
C25   H1    S    
C41   C56   A    
C9    C33   A    
N13   Ni4   S    
C44   C47   A    
C30   C67   S    
C40   N12   A    
C30   C32   A    
C45   C49   S    
N11   Ni1   S    
C46   H16   S    
Br1   C1    S    
C9    C60   A    
C15   H33   S    
C40   C45   A    
C61   H8    S    
C12   N9    A    
Br3   C62   S    
C26   H12   S    
C23   C73   A    
C2    H30   S    
C3    C80   A    
Br9   C12   S    
