data_mof_unit_29876.cif
_audit_creation_date              2012-12-11T19:38:29-0500
_audit_creation_method            fapswitch 2.2
_symmetry_space_group_name_H-M    P1
_symmetry_Int_Tables_number       1
_space_group_crystal_system       triclinic
_cell_length_a                    8.194604
_cell_length_b                    15.163608
_cell_length_c                    22.879193
_cell_angle_alpha                 97.880592
_cell_angle_beta                  89.769128
_cell_angle_gamma                 98.363007
_cell_volume                      2785.80146438

loop_
_atom_site_label
_atom_site_type_symbol
_atom_type_description
_atom_site_fract_x
_atom_site_fract_y
_atom_site_fract_z
_atom_type_partial_charge
Ba1   Ba    Ba6+2 0.856850 0.543240 0.473390 1.641728
Ba2   Ba    Ba6+2 0.332990 0.456830 0.526620 1.641640
C1    C     C_3   0.738007 0.876852 0.334202 -0.380654
C2    C     C_R   0.119180 0.570519 0.939965 -0.027599
C3    C     C_R   0.069123 0.567016 0.880300 0.596340
C4    C     C_3   0.197282 0.761096 0.314514 0.389983
C5    C     C_R   0.943962 0.413430 0.878715 0.568695
C6    C     C_R   0.989306 0.415662 0.938502 -0.014907
C7    C     C_R   0.077884 0.494492 0.969206 -0.052540
C8    C     C_R   0.209513 0.648538 0.971224 -0.077057
C9    C     C_R   0.258216 0.650789 0.029987 -0.074782
C10   C     C_R   0.216791 0.575399 0.059788 -0.014828
C11   C     C_R   0.125656 0.497174 0.029384 -0.052742
C12   C     C_3   0.688432 0.782285 0.349907 0.401832
C13   C     C_R   0.948893 0.340088 0.968168 -0.074875
C14   C     C_R   0.995288 0.342874 0.027212 -0.077371
C15   C     C_R   0.083959 0.421266 0.058665 -0.026413
C16   C     C_3   0.104441 0.711611 0.259182 -0.297683
C17   C     C_R   0.132287 0.425081 0.118527 0.592704
C18   C     C_R   0.264794 0.577052 0.119279 0.572508
C19   C     C_2   0.784617 0.443785 0.767257 -0.083512
C20   C     C_3   0.757133 0.414812 0.702052 -0.047180
C21   C     C_1   0.005987 0.518349 0.686029 0.029943
C22   C     C_2   0.053953 0.521745 0.742332 -0.109947
C23   C     C_3   0.476345 0.327586 0.346641 0.281192
C24   C     C_2   0.935746 0.484893 0.787310 0.190279
C25   C     C_R   0.420052 0.547250 0.233630 -0.105265
C26   C     C_R   0.458605 0.558454 0.293926 -0.028792
C27   C     C_R   0.188785 0.481367 0.314166 0.043976
C28   C     C_3   0.229480 0.734726 0.601983 0.317142
C29   C     C_R   0.145974 0.473648 0.253514 -0.108203
C30   C     C_R   0.260877 0.508068 0.212193 0.193795
C31   C     C_2   0.863129 0.473432 0.664738 -0.292591
C32   C     C_R   0.847277 0.168973 0.547464 -0.028923
C33   C     C_R   0.772597 0.076105 0.544560 -0.037705
C34   C     C_3   0.447635 0.301930 0.280475 -0.372724
C35   C     C_R   0.638877 0.888996 0.524117 -0.044050
C36   C     C_R   0.774421 0.921636 0.562280 -0.046331
C37   C     C_R   0.826606 0.013855 0.578508 0.004229
C38   C     C_R   0.576199 0.795967 0.514108 0.037384
C39   C     C_R   0.430233 0.768092 0.480872 -0.282305
C40   C     C_3   0.256730 0.836453 0.619549 -0.392525
C41   C     C_R   0.623872 0.196383 0.484541 -0.002436
C42   C     C_R   0.559083 0.104799 0.477213 -0.047281
C43   C     C_R   0.630616 0.044254 0.506926 0.012159
C44   C     C_R   0.416964 0.074238 0.443015 -0.043337
C45   C     C_3   0.066121 0.280741 0.688095 0.344585
C46   C     C_R   0.322907 0.991619 0.446689 0.017583
C47   C     C_R   0.401734 0.923580 0.468379 -0.052237
C48   C     C_R   0.557889 0.951768 0.499028 0.004735
C49   C     C_R   0.337211 0.829427 0.460514 -0.030342
C50   C     C_R   0.765611 0.227128 0.519239 -0.272190
C51   C     C_3   0.914866 0.262144 0.382954 0.322122
C52   C     C_3   0.828227 0.178645 0.344391 -0.361063
C53   C     C_3   0.712189 0.658147 0.651419 0.297091
C54   C     C_3   0.724548 0.681070 0.718229 -0.363731
C55   C     C_3   0.320311 0.841788 0.299791 -0.211352
C56   C     C_3   0.089832 0.262478 0.751053 -0.312382
C57   C     C_3   0.244105 0.910648 0.269388 -0.387717
C58   C     C_3   0.911052 0.043645 0.638162 -0.202798
C59   C     C_3   0.850805 0.985928 0.686273 -0.438944
C60   C     C_3   0.137659 0.984598 0.434600 -0.192428
C61   C     C_3   0.070553 0.063867 0.413515 -0.475204
C62   C     C_3   0.516869 0.217485 0.657948 0.388714
C63   C     C_3   0.466862 0.126502 0.678815 -0.369287
C64   C     C_R   0.342687 0.527034 0.333788 -0.289696
H1    H     H_    0.757642 0.777803 0.390620 0.108758
H2    H     H_    0.830730 0.639642 0.634621 0.012946
H3    H     H_    0.612375 0.600494 0.640236 0.078173
H4    H     H_    0.704053 0.927052 0.370477 0.062133
H5    H     H_    0.829031 0.735793 0.730785 0.132013
H6    H     H_    0.745016 0.621142 0.738432 0.073268
H7    H     H_    0.608217 0.703354 0.735579 0.134104
H8    H     H_    0.554410 0.771499 0.359054 -0.107350
H9    H     H_    0.675998 0.885096 0.292795 0.116529
H10   H     H_    0.362532 0.349247 0.366390 0.044526
H11   H     H_    0.579536 0.384228 0.354237 0.057972
H12   H     H_    0.352601 0.855714 0.655138 0.126220
H13   H     H_    0.342441 0.246525 0.271714 0.142842
H14   H     H_    0.419135 0.360542 0.260455 0.073956
H15   H     H_    0.559937 0.279657 0.259546 0.117985
H16   H     H_    0.872674 0.890192 0.327494 0.141998
H17   H     H_    0.191313 0.700006 0.223212 0.121119
H18   H     H_    0.141478 0.345891 0.682331 0.094674
H19   H     H_    0.933788 0.284225 0.680927 -0.067501
H20   H     H_    0.201688 0.230348 0.755372 0.154513
H21   H     H_    0.105461 0.326863 0.781262 0.110973
H22   H     H_    0.981352 0.216917 0.764230 0.120675
H23   H     H_    0.297599 0.870900 0.581260 0.062555
H24   H     H_    0.653891 0.230939 0.658438 -0.089882
H25   H     H_    0.470170 0.213270 0.611963 0.080094
H26   H     H_    0.516079 0.073455 0.648396 0.066719
H27   H     H_    0.268637 0.712271 0.331384 -0.034634
H28   H     H_    0.330632 0.109862 0.679447 0.144348
H29   H     H_    0.961249 0.283173 0.048173 0.123235
H30   H     H_    0.880886 0.278218 0.945782 0.123031
H31   H     H_    0.328038 0.712269 0.052151 0.123063
H32   H     H_    0.515074 0.568960 0.203600 0.125955
H33   H     H_    0.243645 0.708216 0.950253 0.123595
H34   H     H_    0.139678 0.859461 0.635614 0.117289
H35   H     H_    0.179927 0.549046 0.755628 0.133529
H36   H     H_    0.691278 0.419559 0.797342 0.121555
H37   H     H_    0.023914 0.441115 0.238901 0.126626
H38   H     H_    0.376001 0.533792 0.380069 0.080659
H39   H     H_    0.835691 0.462944 0.617732 0.081980
H40   H     H_    0.832556 0.876197 0.584532 0.111422
H41   H     H_    0.369806 0.117932 0.416497 0.113439
H42   H     H_    0.382397 0.697053 0.474148 0.067039
H43   H     H_    0.816812 0.297496 0.522096 0.068728
H44   H     H_    0.041100 0.645603 0.268174 0.138037
H45   H     H_    0.822805 0.305032 0.399472 0.030654
H46   H     H_    0.011553 0.751004 0.244572 0.147581
H47   H     H_    0.348333 0.712063 0.589344 0.004332
H48   H     H_    0.141538 0.717698 0.563966 0.069240
H49   H     H_    0.517526 0.127609 0.723879 0.119230
H50   H     H_    0.201919 0.881555 0.223801 0.134331
H51   H     H_    0.138621 0.933927 0.294688 0.134897
H52   H     H_    0.339805 0.970141 0.266388 0.125250
H53   H     H_    0.382665 0.877206 0.341122 0.080939
H54   H     H_    0.415263 0.815227 0.270163 0.106198
H55   H     H_    0.713831 0.973473 0.686805 0.143164
H56   H     H_    0.976229 0.242777 0.421272 0.000167
H57   H     H_    0.899423 0.920811 0.679863 0.139418
H58   H     H_    0.896328 0.021932 0.730043 0.136226
H59   H     H_    0.046224 0.045176 0.633370 0.141446
H60   H     H_    0.878179 0.110517 0.655119 0.128748
H61   H     H_    0.100352 0.126091 0.444703 0.185294
H62   H     H_    0.120307 0.075092 0.369374 0.126113
H63   H     H_    0.933979 0.047918 0.409794 0.116571
H64   H     H_    0.101704 0.932659 0.397852 0.160336
H65   H     H_    0.072046 0.971511 0.475829 0.148012
H66   H     H_    0.757875 0.198811 0.308329 0.139896
H67   H     H_    0.742458 0.137217 0.370885 0.066459
H68   H     H_    0.919601 0.137411 0.323687 0.114495
N1    N     N_R   0.983470 0.488726 0.849672 -0.423433
N2    N     N_R   0.217850 0.503450 0.149323 -0.421341
O1    O     O_2   0.889550 0.449610 0.359390 -0.473938
O2    O     O_2   0.196384 0.180130 0.540387 -0.483003
O3    O     O_3   0.118023 0.211257 0.649046 -0.607077
O4    O     O_3   0.130110 0.450560 0.430470 -0.478504
O5    O     O_3   0.576420 0.610430 0.532020 -0.489866
O6    O     O_2   0.341600 0.276000 0.466340 -0.448309
O7    O     O_3   0.515182 0.252620 0.370398 -0.658339
O8    O     O_2   0.429960 0.457393 0.707793 -0.501824
O9    O     O_3   0.449016 0.284403 0.695162 -0.585942
O10   O     O_2   0.099903 0.634265 0.856032 -0.595908
O11   O     O_2   0.870516 0.343497 0.852393 -0.619372
O12   O     O_3   0.678312 0.733795 0.627657 -0.643481
O13   O     O_2   0.100889 0.357762 0.142718 -0.600129
O14   O     O_2   0.349054 0.644658 0.144092 -0.622005
O15   O     O_3   0.674110 0.616450 0.398780 -0.484572
O16   O     O_2   0.794974 0.553905 0.295840 -0.490502
O17   O     O_3   0.033984 0.305558 0.348903 -0.634698
O18   O     O_3   0.726944 0.718425 0.303301 -0.589159
O19   O     O_2   0.848090 0.724020 0.533700 -0.467570
O20   O     O_3   0.092920 0.663620 0.428750 -0.458269
O21   O     O_2   0.991678 0.814410 0.463971 -0.504594
O22   O     O_3   0.080179 0.790508 0.354779 -0.597753
O23   O     O_2   0.300150 0.550420 0.640640 -0.463756
O24   O     O_3   0.059600 0.549520 0.569540 -0.496491
O25   O     O_3   0.515600 0.383630 0.601220 -0.472551
O26   O     O_3   0.167346 0.694776 0.650548 -0.624067
O27   O     O_3   0.613290 0.389640 0.467990 -0.482927
O28   O     O_3   0.096790 0.336450 0.571260 -0.475753
P1    P     P_3+3 0.056000 0.422550 0.367550 0.997010
P2    P     P_3+3 0.670460 0.710570 0.550500 0.968988
P3    P     P_3+3 0.131269 0.777729 0.427209 0.919690
P4    P     P_3+3 0.133720 0.577520 0.632450 0.989673
P5    P     P_3+3 0.060370 0.221112 0.577059 0.931336
P6    P     P_3+3 0.663676 0.610653 0.322216 0.966377
P7    P     P_3+3 0.526778 0.277590 0.447383 0.926390
P8    P     P_3+3 0.537457 0.389157 0.677381 0.951333

loop_
_geom_bond_atom_site_label_1
_geom_bond_atom_site_label_2
_ccdc_geom_bond_type
C63   H26   S    
C53   C54   S    
C25   H32   S    
C51   O17   S    
C39   H42   S    
Ba2   P4    S    
C62   O9    S    
O12   P2    S    
C60   H64   S    
C49   P3    S    
C62   H24   S    
C19   C24   D    
C56   H21   S    
O21   P3    D    
O1    P1    D    
C53   H2    S    
Ba1   O1    S    
C5    C6    A    
C51   C52   S    
O5    P2    S    
C35   C36   A    
O15   P6    S    
C59   H58   S    
C23   H11   S    
C12   H8    S    
C58   H59   S    
C16   H46   S    
C32   C33   A    
C35   C38   A    
C51   H56   S    
C36   C37   A    
C41   C50   A    
C55   C57   S    
C37   C58   S    
O19   P2    D    
C13   C14   A    
C52   H68   S    
O23   P4    D    
O18   P6    S    
C59   H55   S    
Ba1   Ba2   S    
C27   P1    S    
Ba1   O19   S    
C7    C11   A    
C24   N1    S    
C15   C17   A    
O25   P8    S    
C14   C15   A    
C21   C31   D    
C21   C22   D    
O3    P5    S    
C3    O10   D    
C1    H9    S    
C59   H57   S    
C38   P2    S    
C61   H62   S    
C55   H53   S    
O17   P1    S    
C51   H45   S    
O24   P4    S    
O9    P8    S    
C57   H51   S    
C19   C20   S    
C12   O18   S    
O2    P5    D    
C63   H49   S    
C4    C55   S    
O28   P5    S    
C23   O7    S    
C56   H20   S    
Ba2   O25   S    
C4    O22   S    
C42   C44   A    
O22   P3    S    
C5    O11   D    
C4    C16   S    
C44   C46   A    
C9    H31   S    
C64   H38   S    
C1    H4    S    
C31   H39   S    
C34   H14   S    
Ba2   O28   S    
C13   H30   S    
C30   N2    S    
C41   P7    S    
C6    C7    A    
O20   P3    S    
C47   C49   A    
C17   N2    Am   
C57   H50   S    
C52   H67   S    
C27   C64   A    
C58   C59   S    
C29   H37   S    
C36   H40   S    
Ba1   O20   S    
C26   C64   A    
C41   C42   A    
C5    N1    Am   
C60   C61   S    
C40   H34   S    
O16   P6    D    
C46   C60   S    
C29   C30   A    
Ba1   P1    S    
C34   H15   S    
C12   H1    S    
C4    H27   S    
C44   H41   S    
C10   C18   A    
C1    H16   S    
C16   H17   S    
C45   H18   S    
C18   N2    Am   
C50   H43   S    
C32   P5    S    
C53   H3    S    
Ba1   O4    S    
C55   H54   S    
O26   P4    S    
C19   H36   S    
C26   P6    S    
C38   C39   A    
C40   H12   S    
C57   H52   S    
Ba2   O6    S    
Ba2   O23   S    
C2    C8    A    
C33   C43   A    
C45   H19   S    
O27   P7    S    
C42   C43   A    
C28   H48   S    
O4    P1    S    
C3    N1    Am   
C20   C31   S    
C63   H28   S    
C14   H29   S    
C54   H7    S    
C54   H6    S    
C25   C30   A    
C60   H65   S    
Ba1   O24   S    
C16   H44   S    
C22   C24   S    
C2    C3    A    
C34   H13   S    
C56   H22   S    
Ba2   O27   S    
C9    C10   A    
C1    C12   S    
C6    C13   A    
C52   H66   S    
O8    P8    D    
C32   C50   A    
C11   C15   A    
C22   H35   S    
C40   H23   S    
Ba2   O4    S    
C62   C63   S    
C23   H10   S    
C58   H60   S    
O7    P7    S    
C27   C29   A    
C45   C56   S    
C35   C48   A    
C53   O12   S    
C43   C48   A    
C46   C47   A    
C33   C37   A    
C17   O13   D    
C18   O14   D    
Ba1   O15   S    
C61   H63   S    
C8    H33   S    
C61   H61   S    
Ba1   O5    S    
C8    C9    A    
C23   C34   S    
C21   P4    S    
C10   C11   A    
Ba1   O27   S    
Ba2   O24   S    
C47   C48   A    
C45   O3    S    
C25   C26   A    
Ba2   O5    S    
C28   O26   S    
C28   C40   S    
C62   H25   S    
C2    C7    A    
C39   C49   A    
C20   P8    S    
C54   H5    S    
Ba1   P2    S    
O6    P7    D    
C28   H47   S    
