data_mof_unit_24202.cif
_audit_creation_date              2012-12-11T14:56:33-0500
_audit_creation_method            fapswitch 2.2
_symmetry_space_group_name_H-M    P1
_symmetry_Int_Tables_number       1
_space_group_crystal_system       triclinic
_cell_length_a                    10.549172
_cell_length_b                    10.733147
_cell_length_c                    17.169096
_cell_angle_alpha                 80.13019
_cell_angle_beta                  89.950202
_cell_angle_gamma                 119.475427
_cell_volume                      1659.07213763

loop_
_atom_site_label
_atom_site_type_symbol
_atom_type_description
_atom_site_fract_x
_atom_site_fract_y
_atom_site_fract_z
_atom_type_partial_charge
C1    C     C_R   0.223494 0.854738 0.128877 0.543340
C2    C     C_R   0.674752 0.216722 0.315098 0.077597
C3    C     C_R   0.666038 0.184818 0.239412 -0.167208
C4    C     C_R   0.618685 0.253029 0.179347 0.053208
C5    C     C_1   0.670860 0.846378 0.204756 -0.050856
C6    C     C_1   0.682307 0.836184 0.274067 -0.052958
C7    C     C_1   0.181341 0.826189 0.211403 -0.034725
C8    C     C_1   0.151627 0.820394 0.279795 -0.031641
C9    C     C_1   0.644583 0.322585 0.777969 -0.011969
C10   C     C_1   0.652244 0.345235 0.707549 -0.036278
C11   C     C_R   0.614789 0.708591 0.807278 0.103925
C12   C     C_R   0.611959 0.214468 0.101932 0.568777
C13   C     C_R   0.586184 0.698537 0.729483 0.064770
C14   C     C_R   0.668071 0.822144 0.667693 -0.025191
C15   C     C_R   0.769606 0.957866 0.687079 -0.040676
C16   C     C_R   0.789621 0.968585 0.767215 0.036257
C17   C     C_R   0.699001 0.845973 0.826691 0.036606
C18   C     C_R   0.236777 0.971641 0.755423 -0.043188
C19   C     C_R   0.238331 0.959613 0.676341 0.053770
C20   C     C_R   0.175673 0.821184 0.657417 0.002733
C21   C     C_R   0.145397 0.698064 0.716398 -0.023211
C22   C     C_R   0.153345 0.709837 0.795946 0.051317
C23   C     C_R   0.641371 0.857873 0.125007 0.532222
C24   C     C_R   0.196008 0.846420 0.816362 -0.013113
C25   C     C_R   0.687739 0.807985 0.356481 0.533348
C26   C     C_R   0.682071 0.385488 0.399218 0.579256
C27   C     C_R   0.103420 0.810392 0.359108 0.547338
C28   C     C_R   0.677835 0.798332 0.586909 0.548269
C29   C     C_R   0.679384 0.383317 0.624638 0.532392
C30   C     C_R   0.104041 0.803157 0.584353 0.564824
C31   C     C_R   0.227768 0.866660 0.897443 0.544647
C32   C     C_R   0.637200 0.283434 0.860668 0.553743
C33   C     C_R   0.649711 0.865801 0.900660 0.582402
C34   C     C_R   0.573940 0.350829 0.195412 0.082160
C35   C     C_R   0.581903 0.381867 0.271145 -0.157713
C36   C     C_R   0.636850 0.319355 0.330047 0.053332
Cr1   Cr    Cr6+3 0.402240 0.783890 0.019450 1.024893
Cr2   Cr    Cr6+3 0.382360 0.097900 0.991800 1.059057
Cr3   Cr    Cr6+3 0.715380 0.118170 0.988700 1.049274
Cr4   Cr    Cr6+3 0.936650 0.882420 0.465510 1.053605
Cr5   Cr    Cr6+3 0.605770 0.565620 0.493360 1.027297
Cr6   Cr    Cr6+3 0.921340 0.550490 0.496380 1.082672
H1    H     H_    0.555200 0.463342 0.281921 0.139772
H2    H     H_    0.698426 0.108481 0.227083 0.113998
O1    O     O_R   0.521780 0.757110 0.108900 -0.515079
O2    O     O_R   0.513330 0.228330 0.898660 -0.490022
O3    O     O_R   0.739230 0.266130 0.888050 -0.474205
O4    O     O_R   0.712580 0.991850 0.918770 -0.478105
O5    O     O_3   0.499990 0.999980 0.999980 -0.291257
O6    O     O_R   0.083770 0.911170 0.376030 -0.502937
O7    O     O_R   0.808770 0.880340 0.383890 -0.501563
O8    O     O_R   0.584340 0.689460 0.394160 -0.506791
O9    O     O_R   0.614320 0.443940 0.423590 -0.513950
O10   O     O_R   0.805020 0.410040 0.421340 -0.470247
O11   O     O_R   0.049240 0.685450 0.403290 -0.498102
O12   O     O_R   0.275160 0.783810 0.101120 -0.493910
O13   O     O_R   0.077520 0.903010 0.551800 -0.476990
O14   O     O_R   0.802980 0.872780 0.546830 -0.489294
O15   O     O_R   0.578090 0.681300 0.569920 -0.525988
O16   O     O_R   0.608530 0.436370 0.586530 -0.526136
O17   O     O_R   0.798770 0.401880 0.597100 -0.465994
O18   O     O_R   0.043450 0.677890 0.566230 -0.509710
O19   O     O_3   0.821250 0.666180 0.485090 -0.271401
O20   O     O_R   0.237900 0.972600 0.090980 -0.512508
O21   O     O_R   0.511190 0.220540 0.061620 -0.457884
O22   O     O_R   0.736920 0.257720 0.063840 -0.511008
O23   O     O_R   0.710450 0.984050 0.081720 -0.516965
O24   O     O_R   0.524090 0.765520 0.933110 -0.493816
O25   O     O_R   0.277300 0.791600 0.938160 -0.508103
O26   O     O_R   0.240210 0.981010 0.915190 -0.503937
N1    N     N_3   0.529218 0.425528 0.134169 -0.569759
H3    H     H_    0.600838 0.537703 0.128166 0.241379
H4    H     H_    0.424628 0.403822 0.152652 0.239176
N2    N     N_3   0.297678 0.087354 0.613856 -0.585488
H5    H     H_    0.241243 0.143690 0.618006 0.252400
H6    H     H_    0.407337 0.154466 0.621430 0.235004
C37   C     C_1   0.106596 0.558368 0.696834 0.279896
N3    N     N_1   0.076337 0.447053 0.681122 -0.261596
N4    N     N_3   0.109820 0.579838 0.855050 -0.596654
H7    H     H_    0.037760 0.572208 0.899895 0.247858
H8    H     H_    0.202426 0.583285 0.878701 0.261984
N5    N     N_3   0.724179 0.147146 0.376396 -0.582700
H9    H     H_    0.826169 0.164959 0.355754 0.248891
H10   H     H_    0.650182 0.035042 0.386636 0.230702
N6    N     N_3   0.549576 0.579146 0.868572 -0.571499
H11   H     H_    0.585026 0.509540 0.855057 0.245024
H12   H     H_    0.435711 0.526660 0.868581 0.274242
N7    N     N_3   0.468934 0.561785 0.716541 -0.607066
H13   H     H_    0.510376 0.507888 0.689577 0.280554
H14   H     H_    0.394697 0.579267 0.682832 0.266685
C38   C     C_1   0.846430 0.087652 0.625203 0.239267
N8    N     N_1   0.907768 0.190845 0.575668 -0.244336
N9    N     N_3   0.896962 0.102771 0.789297 -0.551987
H15   H     H_    0.954688 0.076275 0.832229 0.237720
H16   H     H_    0.977206 0.169784 0.742266 0.257816
C39   C     C_1   0.270817 0.113170 0.770943 0.217165
N10   N     N_1   0.296114 0.225713 0.782835 -0.286855

loop_
_geom_bond_atom_site_label_1
_geom_bond_atom_site_label_2
_ccdc_geom_bond_type
Cr2   O26   S    
N9    H15   S    
C23   O1    A    
Cr1   O25   S    
Cr6   O19   S    
C18   C39   S    
C35   C36   A    
C7    C8    T    
Cr2   O5    S    
C20   C30   S    
C37   N3    T    
C16   N9    S    
Cr4   O19   S    
N2    H6    S    
C18   C24   A    
C1    O12   A    
C22   N4    S    
C18   C19   A    
C5    C6    T    
C27   O11   A    
C6    C25   S    
C15   C16   A    
C30   O13   A    
C34   C35   A    
C23   O23   A    
C9    C32   S    
Cr1   O12   S    
C31   O26   A    
C19   C20   A    
Cr3   O23   S    
C16   C17   A    
Cr2   O21   S    
C4    C12   S    
C35   H1    S    
C9    C10   T    
Cr6   O18   S    
Cr5   O8    S    
C27   O6    A    
N9    H16   S    
C21   C22   A    
C17   C33   S    
C26   O10   A    
Cr2   O20   S    
N6    H12   S    
C29   O17   A    
C3    H2    S    
Cr4   O14   S    
N2    H5    S    
Cr1   O24   S    
Cr5   O15   S    
C38   N8    T    
N1    H4    S    
N6    H11   S    
C12   O22   A    
C25   O7    A    
Cr6   O11   S    
Cr1   O5    S    
C5    C23   S    
C29   O16   A    
C39   N10   T    
C20   C21   A    
Cr6   O17   S    
Cr5   O9    S    
C26   C36   S    
Cr3   O5    S    
N7    H14   S    
N5    H10   S    
C30   O18   A    
Cr3   O22   S    
C22   C24   A    
C2    N5    S    
Cr5   O19   S    
Cr1   O1    S    
C3    C4    A    
C26   O9    A    
Cr3   O3    S    
C28   O15   A    
C2    C36   A    
C33   O4    A    
C11   C17   A    
Cr4   O13   S    
C1    C7    S    
C32   O2    A    
C19   N2    S    
Cr5   O16   S    
C28   O14   A    
Cr4   O7    S    
C12   O21   A    
N4    H8    S    
C2    C3    A    
C25   O8    A    
N1    H3    S    
Cr6   O10   S    
Cr2   O2    S    
C11   C13   A    
C10   C29   S    
C11   N6    S    
Cr4   O6    S    
C34   N1    S    
C13   N7    S    
C32   O3    A    
C4    C34   A    
C24   C31   S    
C15   C38   S    
N4    H7    S    
C31   O25   A    
N7    H13   S    
N5    H9    S    
C21   C37   S    
C8    C27   S    
C14   C15   A    
C14   C28   S    
C13   C14   A    
C1    O20   A    
C33   O24   A    
Cr3   O4    S    
