data_mof_unit_33170.cif
_audit_creation_date              2012-12-10T17:02:14-0500
_audit_creation_method            fapswitch 2.2
_symmetry_space_group_name_H-M    P1
_symmetry_Int_Tables_number       1
_space_group_crystal_system       triclinic
_cell_length_a                    10.632262
_cell_length_b                    10.775865
_cell_length_c                    10.05215
_cell_angle_alpha                 90.196023
_cell_angle_beta                  92.101181
_cell_angle_gamma                 90.329332
_cell_volume                      1150.89215179

loop_
_atom_site_label
_atom_site_type_symbol
_atom_type_description
_atom_site_fract_x
_atom_site_fract_y
_atom_site_fract_z
_atom_type_partial_charge
C1    C     C_R   0.498382 0.262914 0.499372 0.959472
C2    C     C_2   0.484809 0.131253 0.494888 -0.090563
C3    C     C_2   0.501458 0.598867 0.928314 0.179092
C4    C     C_R   0.259032 0.492310 0.497291 0.965509
C5    C     C_2   0.537737 0.592699 0.075380 0.599467
C6    C     C_R   0.508991 0.736931 0.500151 0.844883
C7    C     C_R   0.738870 0.518280 0.503079 0.880026
C8    C     C_R   0.110572 0.377699 0.709700 0.490373
C9    C     C_R   0.059911 0.379821 0.837849 -0.020453
C10   C     C_R   0.960886 0.460846 0.863989 0.020763
C11   C     C_R   0.902784 0.528517 0.759904 0.437957
C12   C     C_R   0.059849 0.457298 0.609184 -0.076409
C13   C     C_R   0.943446 0.512111 0.627608 -0.133297
C14   C     C_R   0.123036 0.488283 0.491968 -0.225668
C15   C     C_R   0.058460 0.547590 0.384340 0.420693
C16   C     C_R   0.933489 0.577326 0.395026 0.073621
C17   C     C_R   0.872520 0.546102 0.511853 -0.232526
C18   C     C_2   0.518591 0.934764 0.390356 0.318932
C19   C     C_2   0.545336 0.866007 0.499030 0.213846
C20   C     C_2   0.542280 0.067337 0.399647 0.385098
H1    H     H_    0.146045 0.499028 0.230340 0.339965
H2    H     H_    0.231838 0.247073 0.756396 0.352377
H3    H     H_    0.146772 0.362120 0.019319 0.228397
H4    H     H_    0.041192 0.248515 0.979209 0.211319
H5    H     H_    0.933868 0.568490 0.024459 0.251461
H6    H     H_    0.825106 0.454617 0.999617 0.206607
H7    H     H_    0.807066 0.677521 0.718932 0.335485
H8    H     H_    0.821134 0.579974 0.227261 0.232628
H9    H     H_    0.809795 0.708183 0.326187 0.211016
H10   H     H_    0.443347 0.953506 0.212518 0.334047
H11   H     H_    0.635059 0.852680 0.671746 0.342154
H12   H     H_    0.427098 0.094950 0.681310 0.227399
H13   H     H_    0.655403 0.060801 0.252699 0.336405
H14   H     H_    0.309703 0.108005 0.563657 0.213179
H15   H     H_    0.386346 0.746921 0.932530 0.191926
H16   H     H_    0.531702 0.778338 0.878056 0.169378
H17   H     H_    0.511599 0.321698 0.884696 0.228539
H18   H     H_    0.646889 0.389586 0.844331 0.211502
H19   H     H_    0.639120 0.742020 0.067264 0.311683
H20   H     H_    0.378520 0.379279 0.167460 0.367453
N1    N     N_2   0.501340 0.501330 0.852150 -0.049222
N2    N     N_2   0.501380 0.501360 0.147810 0.046370
N3    N     N_3   0.399525 0.072193 0.583293 -0.457867
N4    N     N_3   0.457916 0.713986 0.873440 -0.403525
N5    N     N_3   0.568156 0.400068 0.902358 -0.373071
N6    N     N_3   0.112923 0.304027 0.942418 -0.453671
N7    N     N_3   0.921156 0.475332 0.997712 -0.443414
N8    N     N_3   0.871536 0.643179 0.287599 -0.385678
O1    O     O_R   0.499980 0.319060 0.613040 -0.633134
O2    O     O_3   0.606806 0.686733 0.136715 -0.774456
O3    O     O_3   0.407876 0.431147 0.093653 -0.734845
O4    O     O_3   0.204673 0.295940 0.677454 -0.789643
O5    O     O_3   0.815568 0.617127 0.792844 -0.775725
O6    O     O_3   0.458488 0.885550 0.277377 -0.735406
O7    O     O_3   0.612582 0.918256 0.606472 -0.797196
O8    O     O_3   0.621261 0.125070 0.312125 -0.756322
O9    O     O_R   0.500020 0.319100 0.386900 -0.588710
O10   O     O_R   0.316750 0.499980 0.613090 -0.566821
O11   O     O_R   0.316790 0.500020 0.386950 -0.623863
O12   O     O_R   0.499980 0.680900 0.613100 -0.623679
O13   O     O_R   0.500020 0.680940 0.386960 -0.518046
O14   O     O_R   0.683210 0.499980 0.613050 -0.602743
O15   O     O_R   0.683250 0.500020 0.386910 -0.608951
O16   O     O_3   0.114958 0.577954 0.267645 -0.713058
Zn1   Zn    Zn3+2 0.499970 0.499970 0.650990 0.993719
Zn2   Zn    Zn3+2 0.500030 0.500030 0.349010 1.055220

loop_
_geom_bond_atom_site_label_1
_geom_bond_atom_site_label_2
_ccdc_geom_bond_type
C8    C9    A    
C7    C17   S    
C15   O16   S    
H7    O5    S    
C7    O14   A    
H15   N4    S    
N2    O3    S    
C1    O9    A    
C8    C12   A    
H20   O3    S    
C11   C13   A    
C9    C10   A    
C8    O4    S    
O10   Zn1   S    
C11   O5    S    
C13   C17   A    
O9    Zn2   S    
C20   O8    S    
H4    N6    S    
C16   N8    S    
H13   O8    S    
O15   Zn2   S    
C9    N6    S    
H3    N6    S    
C6    C19   S    
H10   O6    S    
C7    O15   A    
O1    Zn1   S    
C2    N3    S    
H6    N7    S    
C6    O13   A    
H12   N3    S    
C12   C14   A    
O12   Zn1   S    
C1    C2    S    
C18   C20   S    
H8    N8    S    
O11   Zn2   S    
C4    C14   S    
C5    O2    S    
C3    N4    S    
H16   N4    S    
C10   C11   A    
C18   O6    S    
H9    N8    S    
H17   N5    S    
C15   C16   A    
C6    O12   A    
H19   O2    S    
C12   C13   A    
C4    O11   A    
C5    N2    D    
H2    O4    S    
C18   C19   D    
C4    O10   A    
C10   N7    S    
N2    Zn2   S    
N1    N5    S    
H5    N7    S    
C19   O7    S    
H18   N5    S    
N1    Zn1   S    
O14   Zn1   S    
H11   O7    S    
C14   C15   A    
C2    C20   D    
O13   Zn2   S    
C3    N1    D    
H14   N3    S    
C16   C17   A    
C3    C5    S    
H1    O16   S    
C1    O1    A    
