data_mof_unit_17855.cif
_audit_creation_date              2012-12-11T14:06:33-0500
_audit_creation_method            fapswitch 2.2
_symmetry_space_group_name_H-M    P1
_symmetry_Int_Tables_number       1
_space_group_crystal_system       triclinic
_cell_length_a                    11.922084
_cell_length_b                    11.920438
_cell_length_c                    19.309525
_cell_angle_alpha                 89.993226
_cell_angle_beta                  89.994629
_cell_angle_gamma                 119.999008
_cell_volume                      2376.57182602

loop_
_atom_site_label
_atom_site_type_symbol
_atom_type_description
_atom_site_fract_x
_atom_site_fract_y
_atom_site_fract_z
_atom_type_partial_charge
C1    C     C_R   0.552886 0.475901 0.597263 0.527455
C2    C     C_R   0.524091 0.076977 0.597260 0.527610
C3    C     C_R   0.923005 0.447105 0.597266 0.527597
C4    C     C_2   0.085277 0.462727 0.322471 -0.019548
C5    C     C_2   0.537400 0.622731 0.322555 -0.007793
C6    C     C_2   0.377349 0.914806 0.322470 -0.017817
C7    C     C_R   0.451825 0.924599 0.929005 0.574689
C8    C     C_R   0.075409 0.527236 0.929005 0.574932
C9    C     C_R   0.472770 0.548179 0.929005 0.573820
C10   C     C_R   0.403433 0.842888 0.132999 0.524315
C11   C     C_R   0.157146 0.560575 0.132986 0.527718
C12   C     C_R   0.439435 0.596547 0.133016 0.522844
C13   C     C_R   0.551539 0.476778 0.403964 0.549590
C14   C     C_R   0.523259 0.074732 0.403979 0.549629
C15   C     C_R   0.925300 0.448551 0.403985 0.550018
C16   C     C_1   0.034001 0.514504 0.859141 0.006966
C17   C     C_1   0.485524 0.519516 0.859142 0.006636
C18   C     C_1   0.480499 0.966014 0.859140 0.006815
C19   C     C_1   0.994000 0.495250 0.726577 -0.030786
C20   C     C_1   0.504738 0.498748 0.726577 -0.030792
C21   C     C_1   0.501234 0.005971 0.726573 -0.030801
C22   C     C_1   0.013146 0.506560 0.798208 -0.031817
C23   C     C_1   0.493456 0.506599 0.798209 -0.031850
C24   C     C_1   0.493406 0.986853 0.798205 -0.031858
C25   C     C_1   0.970393 0.478790 0.665994 0.006529
C26   C     C_1   0.521186 0.491595 0.665992 0.006501
C27   C     C_1   0.508379 0.029570 0.665988 0.006573
C28   C     C_2   0.991994 0.489505 0.338747 -0.102728
C29   C     C_2   0.511047 0.502683 0.338640 -0.101036
C30   C     C_2   0.497465 0.007946 0.338776 -0.102318
C31   C     C_2   0.135892 0.554751 0.207766 -0.150293
C32   C     C_2   0.445345 0.581068 0.207817 -0.154551
C33   C     C_2   0.418792 0.864200 0.207781 -0.147521
C34   C     C_2   0.105286 0.450436 0.248638 0.208073
C35   C     C_2   0.549437 0.655266 0.248752 0.208679
C36   C     C_2   0.345191 0.894990 0.248613 0.218813
Cr1   Cr    Cr6+3 0.468420 0.238090 0.499960 1.013108
Cr2   Cr    Cr6+3 0.761910 0.230330 0.499960 1.013028
Cr3   Cr    Cr6+3 0.769670 0.531580 0.499960 1.013647
Cr4   Cr    Cr6+3 0.515700 0.760130 0.026360 1.114756
Cr5   Cr    Cr6+3 0.239870 0.755570 0.026360 1.098944
Cr6   Cr    Cr6+3 0.244430 0.484300 0.026360 1.100514
H1    H     H_    0.152423 0.643830 0.231957 0.095040
H2    H     H_    0.356524 0.507952 0.231974 0.096809
H3    H     H_    0.491093 0.847455 0.232045 0.083583
H4    H     H_    0.942238 0.511809 0.298515 0.135310
H5    H     H_    0.489815 0.431103 0.298277 0.135901
H6    H     H_    0.569620 0.057581 0.298564 0.136382
O1    O     O_R   0.434830 0.101190 0.575190 -0.516352
O2    O     O_R   0.898810 0.333640 0.575190 -0.516363
O3    O     O_R   0.666360 0.565170 0.575190 -0.516303
O4    O     O_3   0.333333 0.666667 0.026340 -0.355735
O5    O     O_R   0.480130 0.360720 0.570290 -0.504756
O6    O     O_R   0.639280 0.119410 0.570290 -0.504840
O7    O     O_R   0.880590 0.519870 0.570290 -0.504837
O8    O     O_R   0.439410 0.104260 0.424150 -0.494496
O9    O     O_R   0.895740 0.335150 0.424150 -0.494931
O10   O     O_R   0.664850 0.560590 0.424150 -0.492810
O11   O     O_R   0.484380 0.363570 0.430280 -0.502695
O12   O     O_R   0.636430 0.120810 0.430280 -0.502418
O13   O     O_R   0.879190 0.515620 0.430280 -0.502243
O14   O     O_3   0.666667 0.333333 0.499980 -0.264319
O15   O     O_R   0.548200 0.655360 0.951320 -0.495128
O16   O     O_R   0.344640 0.892840 0.951320 -0.496686
O17   O     O_R   0.107160 0.451800 0.951320 -0.495357
O18   O     O_R   0.505020 0.871000 0.955840 -0.490290
O19   O     O_R   0.129000 0.634020 0.955840 -0.491663
O20   O     O_R   0.365980 0.494980 0.955840 -0.491979
O21   O     O_R   0.543640 0.655270 0.102360 -0.399980
O22   O     O_R   0.344730 0.888370 0.102360 -0.398005
O23   O     O_R   0.111630 0.456360 0.102360 -0.400124
O24   O     O_R   0.500790 0.870920 0.095850 -0.454078
O25   O     O_R   0.129080 0.629870 0.095850 -0.450977
O26   O     O_R   0.370130 0.499210 0.095850 -0.450421
S1    S     S_3+6 0.052455 0.290384 0.217374 0.052577
O27   O     O_2   0.008659 0.194474 0.275737 -0.289363
O28   O     O_2   0.939619 0.249960 0.169150 -0.204992
O29   O     O_3   0.173584 0.286661 0.174870 -0.500410
H7    H     H_    0.137282 0.195330 0.160245 0.389284
S2    S     S_3+6 0.709092 0.764179 0.217572 0.045944
O30   O     O_2   0.750522 0.693498 0.168684 -0.224847
O31   O     O_2   0.710617 0.875599 0.180297 -0.252237
O32   O     O_3   0.817539 0.822458 0.282302 -0.537312
H8    H     H_    0.900391 0.885267 0.260047 0.399702
S3    S     S_3+6 0.238493 0.948388 0.217264 0.030666
O33   O     O_2   0.186894 0.992875 0.275541 -0.305646
O34   O     O_2   0.311197 0.060926 0.168863 -0.224313
O35   O     O_3   0.113280 0.827299 0.174964 -0.507604
H9    H     H_    0.060236 0.864842 0.158753 0.379609
C37   C     C_3   0.179178 0.465976 0.376805 -0.251886
C38   C     C_3   0.156682 0.332449 0.398615 -0.237773
C39   C     C_3   0.210588 0.337210 0.470986 -0.432064
H10   H     H_    0.208293 0.244668 0.482066 0.156410
H11   H     H_    0.311790 0.418325 0.475169 0.159619
H12   H     H_    0.150799 0.351347 0.510355 0.157426
H13   H     H_    0.051994 0.259630 0.399578 0.231240
H14   H     H_    0.205545 0.300203 0.361094 0.211332
H15   H     H_    0.278265 0.523476 0.355807 0.103699
H16   H     H_    0.175699 0.519504 0.423235 0.128089
C40   C     C_3   0.531410 0.711868 0.376964 -0.249873
C41   C     C_3   0.663622 0.823062 0.400209 -0.236514
C42   C     C_3   0.655434 0.871085 0.472336 -0.434637
H17   H     H_    0.747239 0.961404 0.484405 0.158252
H18   H     H_    0.573858 0.890650 0.475356 0.158494
H19   H     H_    0.639951 0.796753 0.511745 0.156338
H20   H     H_    0.736640 0.791587 0.402435 0.238605
H21   H     H_    0.697125 0.904552 0.362833 0.214604
H22   H     H_    0.473857 0.753150 0.355611 0.103254
H23   H     H_    0.476740 0.653674 0.422862 0.125768
C43   C     C_3   0.286422 0.821038 0.376818 -0.251335
C44   C     C_3   0.175298 0.843614 0.398259 -0.238321
C45   C     C_3   0.125574 0.789671 0.470567 -0.431635
H24   H     H_    0.035054 0.791622 0.481303 0.156599
H25   H     H_    0.105837 0.688594 0.474922 0.160141
H26   H     H_    0.199039 0.849674 0.510073 0.157032
H27   H     H_    0.207306 0.948349 0.399203 0.231909
H28   H     H_    0.094510 0.794868 0.360554 0.208439
H29   H     H_    0.245018 0.721723 0.356102 0.104214
H30   H     H_    0.343185 0.824863 0.423417 0.127991

loop_
_geom_bond_atom_site_label_1
_geom_bond_atom_site_label_2
_ccdc_geom_bond_type
C41   H21   S    
C14   O8    A    
C12   O21   A    
C41   C42   S    
C12   O26   A    
C33   H3    S    
Cr3   O3    S    
C44   C45   S    
C43   H29   S    
C45   H25   S    
Cr1   O14   S    
C15   C28   S    
Cr5   O19   S    
S3    O33   D    
C28   H4    S    
C17   C23   T    
Cr4   O15   S    
C31   H1    S    
C29   H5    S    
C18   C24   T    
C13   C29   S    
C11   O23   A    
C35   S2    S    
C33   C36   D    
C42   H19   S    
C1    O5    A    
C43   C44   S    
C39   H10   S    
C38   H13   S    
Cr1   O8    S    
C3    O7    A    
Cr3   O7    S    
C15   O9    A    
Cr6   O17   S    
C20   C23   S    
C44   H27   S    
Cr5   O4    S    
C5    C29   D    
C34   S1    S    
Cr1   O5    S    
C21   C27   T    
C11   C31   S    
C8    O17   A    
C8    C16   S    
Cr4   O18   S    
C12   C32   S    
Cr6   O20   S    
C6    C43   S    
C14   C30   S    
S2    O32   S    
C45   H24   S    
C4    C28   D    
C3    O2    A    
C4    C37   S    
S3    O34   D    
C32   H2    S    
Cr3   O13   S    
C4    C34   S    
Cr6   O26   S    
C40   H22   S    
Cr4   O21   S    
C32   C35   D    
C3    C25   S    
C19   C22   S    
S2    O31   D    
C11   O25   A    
C38   C39   S    
O29   H7    S    
C13   O10   A    
Cr4   O4    S    
Cr3   O10   S    
C39   H12   S    
S1    O27   D    
C2    O1    A    
Cr2   O9    S    
Cr1   O1    S    
O32   H8    S    
Cr2   O6    S    
C5    C40   S    
C7    C18   S    
C39   H11   S    
C15   O13   A    
C31   C34   D    
Cr1   O11   S    
C38   H14   S    
C42   H18   S    
S1    O28   D    
C2    C27   S    
Cr2   O12   S    
C10   O22   A    
C9    C17   S    
C6    C30   D    
C2    O6    A    
C1    C26   S    
C37   H16   S    
S3    O35   S    
C30   H6    S    
C41   H20   S    
Cr3   O14   S    
C16   C22   T    
Cr4   O24   S    
C9    O15   A    
S2    O30   D    
C43   H30   S    
Cr2   O2    S    
C36   S3    S    
C14   O12   A    
C1    O3    A    
C44   H28   S    
C9    O20   A    
C7    O18   A    
C37   C38   S    
C20   C26   T    
C5    C35   S    
Cr6   O23   S    
C6    C36   S    
C10   C33   S    
C42   H17   S    
C19   C25   T    
S1    O29   S    
C7    O16   A    
Cr5   O25   S    
C40   H23   S    
O35   H9    S    
C8    O19   A    
C21   C24   S    
C40   C41   S    
Cr5   O16   S    
C13   O11   A    
C37   H15   S    
C45   H26   S    
Cr6   O4    S    
Cr5   O22   S    
Cr2   O14   S    
C10   O24   A    
