data_mof_unit_65686.cif
_audit_creation_date              2012-12-10T19:20:40-0500
_audit_creation_method            fapswitch 2.2
_symmetry_space_group_name_H-M    P1
_symmetry_Int_Tables_number       1
_space_group_crystal_system       monoclinic
_cell_length_a                    38.987573
_cell_length_b                    38.987531
_cell_length_c                    18.226028
_cell_angle_alpha                 90.0
_cell_angle_beta                  90.000018
_cell_angle_gamma                 90.0
_cell_volume                      27704.0949596

loop_
_atom_site_label
_atom_site_type_symbol
_atom_type_description
_atom_site_fract_x
_atom_site_fract_y
_atom_site_fract_z
_atom_type_partial_charge
C1    C     C_R   0.567128 0.000000 0.500000 0.858513
C2    C     C_R   1.000000 0.713740 0.500001 0.108712
C3    C     C_R   0.986403 0.123346 0.439371 0.177682
C4    C     C_R   0.123346 0.986407 0.560633 0.177684
C5    C     C_R   0.986402 0.876654 0.560629 0.177681
C6    C     C_R   0.876654 0.013592 0.560634 0.177684
C7    C     C_R   0.013597 0.123346 0.560629 0.177682
C8    C     C_R   0.376654 0.486408 0.939365 0.177684
C9    C     C_R   0.513597 0.376654 0.939371 0.177681
C10   C     C_R   0.623346 0.513591 0.939365 0.177684
C11   C     C_R   0.486403 0.623346 0.939371 0.177681
C12   C     C_R   0.623346 0.486409 0.060635 0.177684
C13   C     C_R   0.286260 0.000000 0.500000 0.108711
C14   C     C_R   0.486403 0.376654 0.060629 0.177681
C15   C     C_R   0.376654 0.513592 0.060635 0.177684
C16   C     C_R   0.513597 0.623346 0.060629 0.177681
C17   C     C_R   0.840911 0.987160 0.439570 -0.252673
C18   C     C_R   0.012845 0.840911 0.439576 -0.252673
C19   C     C_R   0.159089 0.012841 0.439571 -0.252673
C20   C     C_R   0.987155 0.159088 0.439575 -0.252673
C21   C     C_R   0.159089 0.987159 0.560429 -0.252673
C22   C     C_R   0.987155 0.840912 0.560425 -0.252673
C23   C     C_R   0.840911 0.012840 0.560430 -0.252672
C24   C     C_R   1.000000 0.286260 0.499999 0.108712
C25   C     C_R   0.012845 0.159088 0.560425 -0.252673
C26   C     C_R   0.340911 0.487161 0.939569 -0.252673
C27   C     C_R   0.512845 0.340912 0.939575 -0.252673
C28   C     C_R   0.659089 0.512839 0.939569 -0.252672
C29   C     C_R   0.487155 0.659088 0.939575 -0.252672
C30   C     C_R   0.659089 0.487161 0.060430 -0.252673
C31   C     C_R   0.487155 0.340912 0.060425 -0.252672
C32   C     C_R   0.340911 0.512839 0.060430 -0.252673
C33   C     C_R   0.512845 0.659088 0.060425 -0.252672
C34   C     C_R   0.822986 0.000000 0.500000 0.053231
C35   C     C_R   0.213740 0.500000 1.000000 0.108711
C36   C     C_R   1.000000 0.822986 0.500000 0.053230
C37   C     C_R   0.177014 0.000000 0.500000 0.053229
C38   C     C_R   1.000000 0.177014 0.500000 0.053230
C39   C     C_R   0.322986 0.500000 1.000000 0.053231
C40   C     C_R   0.500000 0.322986 1.000000 0.053232
C41   C     C_R   0.677014 0.500000 1.000000 0.053231
C42   C     C_R   0.500000 0.677014 0.000000 0.053231
C43   C     C_R   0.894908 0.000000 0.500000 -0.121116
C44   C     C_R   1.000000 0.894909 0.500000 -0.121107
C45   C     C_R   0.105091 0.000000 0.500000 -0.121115
C46   C     C_R   0.500000 0.213740 1.000000 0.108712
C47   C     C_R   1.000000 0.105091 0.500000 -0.121108
C48   C     C_R   0.394908 0.500000 1.000000 -0.121117
C49   C     C_R   0.500000 0.394909 0.000000 -0.121106
C50   C     C_R   0.605091 0.500000 1.000000 -0.121118
C51   C     C_R   0.500000 0.605091 0.000000 -0.121107
C52   C     C_R   0.767383 0.028615 0.526195 -0.185914
C53   C     C_R   0.971382 0.767384 0.526180 -0.185914
C54   C     C_R   0.232616 0.971384 0.526189 -0.185915
C55   C     C_R   0.028618 0.232616 0.526180 -0.185914
C56   C     C_R   0.232616 0.028616 0.473811 -0.185914
C57   C     C_R   0.786260 0.500000 1.000000 0.108712
C58   C     C_R   0.028618 0.767384 0.473822 -0.185914
C59   C     C_R   0.767383 0.971385 0.473805 -0.185914
C60   C     C_R   0.971382 0.232616 0.473819 -0.185913
C61   C     C_R   0.267383 0.528615 0.026196 -0.185914
C62   C     C_R   0.471383 0.267384 0.026184 -0.185913
C63   C     C_R   0.732617 0.471386 0.026197 -0.185913
C64   C     C_R   0.528617 0.732616 0.026186 -0.185913
C65   C     C_R   0.732617 0.528614 0.973802 -0.185914
C66   C     C_R   0.528617 0.267384 0.973815 -0.185912
C67   C     C_R   0.267383 0.471385 0.973803 -0.185914
C68   C     C_R   0.500000 0.786260 0.000001 0.108712
C69   C     C_R   0.471383 0.732616 0.973816 -0.185912
C70   C     C_R   0.731775 0.028545 0.526546 -0.189957
C71   C     C_R   0.971452 0.731775 0.526530 -0.189957
C72   C     C_R   0.268225 0.971454 0.526539 -0.189958
C73   C     C_R   0.028548 0.268225 0.526531 -0.189958
C74   C     C_R   0.268225 0.028546 0.473460 -0.189957
C75   C     C_R   0.028548 0.731775 0.473471 -0.189957
C76   C     C_R   0.731775 0.971455 0.473454 -0.189957
C77   C     C_R   0.971452 0.268225 0.473468 -0.189957
C78   C     C_R   0.231775 0.528545 0.026547 -0.189957
C79   C     C_R   0.785406 0.000000 0.500000 0.143759
C80   C     C_R   0.471453 0.231775 0.026535 -0.189956
C81   C     C_R   0.768225 0.471455 0.026548 -0.189957
C82   C     C_R   0.528547 0.768225 0.026537 -0.189957
C83   C     C_R   0.768225 0.528544 0.973451 -0.189958
C84   C     C_R   0.528547 0.231775 0.973464 -0.189958
C85   C     C_R   0.231775 0.471455 0.973453 -0.189957
C86   C     C_R   0.471453 0.768225 0.973465 -0.189958
C87   C     C_3   0.904081 0.936349 0.388392 -0.751846
C88   C     C_3   0.063660 0.904084 0.388419 -0.751853
C89   C     C_3   0.095919 0.063652 0.388395 -0.751848
C90   C     C_R   1.000000 0.785407 0.500001 0.143759
C91   C     C_3   0.936340 0.095917 0.388418 -0.751849
C92   C     C_3   0.095919 0.936348 0.611605 -0.751848
C93   C     C_3   0.936339 0.904084 0.611580 -0.751849
C94   C     C_3   0.904081 0.063651 0.611608 -0.751849
C95   C     C_3   0.063660 0.095916 0.611583 -0.751853
C96   C     C_3   0.404081 0.436349 0.888390 -0.751846
C97   C     C_3   0.563660 0.404084 0.888420 -0.751849
C98   C     C_3   0.595919 0.563650 0.888389 -0.751847
C99   C     C_3   0.436340 0.595916 0.888419 -0.751850
C100  C     C_3   0.595919 0.436350 0.111611 -0.751848
C101  C     C_R   0.214594 0.000000 0.500000 0.143759
C102  C     C_3   0.436340 0.404084 0.111580 -0.751850
C103  C     C_3   0.404081 0.563651 0.111609 -0.751848
C104  C     C_3   0.563660 0.595916 0.111581 -0.751850
C105  C     C_R   1.000000 0.567128 0.500000 0.858509
C106  C     C_R   1.000000 0.214593 0.500000 0.143759
C107  C     C_R   0.285406 0.500000 1.000000 0.143760
C108  C     C_R   0.500000 0.285407 1.000000 0.143759
C109  C     C_R   0.714594 0.500000 1.000000 0.143760
C110  C     C_R   0.500000 0.714593 0.000000 0.143759
C111  C     C_R   0.658115 0.970325 0.520113 -0.177748
C112  C     C_R   0.029672 0.658115 0.520131 -0.177746
C113  C     C_R   0.341885 0.029674 0.520121 -0.177747
C114  C     C_R   0.970327 0.341885 0.520128 -0.177746
C115  C     C_R   0.341885 0.970326 0.479879 -0.177748
C116  C     C_R   0.432872 0.000000 0.500000 0.858512
C117  C     C_R   0.970327 0.658115 0.479870 -0.177747
C118  C     C_R   0.658115 0.029675 0.479887 -0.177749
C119  C     C_R   0.029673 0.341885 0.479871 -0.177746
C120  C     C_R   0.158115 0.470325 0.020112 -0.177749
C121  C     C_R   0.529674 0.158115 0.020122 -0.177748
C122  C     C_R   0.841885 0.529675 0.020110 -0.177748
C123  C     C_R   0.470326 0.841885 0.020122 -0.177746
C124  C     C_R   0.841885 0.470325 0.979889 -0.177749
C125  C     C_R   0.470326 0.158115 0.979878 -0.177748
C126  C     C_R   0.158115 0.529675 0.979888 -0.177748
C127  C     C_R   1.000000 0.432872 0.500000 0.858510
C128  C     C_R   0.529674 0.841885 0.979879 -0.177747
C129  C     C_R   0.622500 0.970265 0.519701 -0.188856
C130  C     C_R   0.029732 0.622500 0.519719 -0.188856
C131  C     C_R   0.377500 0.029733 0.519709 -0.188856
C132  C     C_R   0.970267 0.377500 0.519717 -0.188856
C133  C     C_R   0.377500 0.970267 0.480291 -0.188855
C134  C     C_R   0.970268 0.622500 0.480281 -0.188856
C135  C     C_R   0.622500 0.029735 0.480299 -0.188857
C136  C     C_R   0.029732 0.377500 0.480283 -0.188856
C137  C     C_R   0.122500 0.470265 0.019700 -0.188856
C138  C     C_R   0.067128 0.500000 0.000000 0.858513
C139  C     C_R   0.529733 0.122500 0.019710 -0.188857
C140  C     C_R   0.877500 0.529735 0.019699 -0.188856
C141  C     C_R   0.470266 0.877500 0.019709 -0.188857
C142  C     C_R   0.877500 0.470265 0.980301 -0.188856
C143  C     C_R   0.470266 0.122500 0.980290 -0.188856
C144  C     C_R   0.122500 0.529735 0.980300 -0.188857
C145  C     C_R   0.529734 0.877500 0.980291 -0.188857
C146  C     C_R   0.604519 0.000000 0.500000 -0.027849
C147  C     C_R   0.000000 0.604519 0.500000 -0.027843
C148  C     C_R   0.395480 0.000000 0.500000 -0.027848
C149  C     C_R   0.500000 0.067128 0.000000 0.858511
C150  C     C_R   0.000000 0.395481 0.500000 -0.027844
C151  C     C_R   0.104519 0.500000 1.000000 -0.027849
C152  C     C_R   0.500000 0.104519 1.000000 -0.027846
C153  C     C_R   0.895480 0.500000 1.000000 -0.027849
C154  C     C_R   0.500000 0.895481 0.000000 -0.027846
C155  C     C_R   0.676152 0.000000 0.500000 0.117583
C156  C     C_R   1.000000 0.676153 0.500000 0.117582
C157  C     C_R   0.323847 0.000000 0.500000 0.117581
C158  C     C_R   1.000000 0.323847 0.500000 0.117582
C159  C     C_R   0.176152 0.500000 1.000000 0.117584
C160  C     C_R   0.932872 0.500000 1.000000 0.858514
C161  C     C_R   0.500000 0.176152 1.000000 0.117583
C162  C     C_R   0.823847 0.500000 1.000000 0.117583
C163  C     C_R   0.500000 0.823847 0.000001 0.117583
C164  C     C_R   1.000000 0.932568 0.500000 0.880429
C165  C     C_R   0.067432 0.000000 0.500000 0.880421
C166  C     C_R   1.000000 0.067432 0.500000 0.880429
C167  C     C_R   0.932568 0.000000 0.500000 0.880421
C168  C     C_R   0.500000 0.432568 0.000000 0.880431
C169  C     C_R   0.567432 0.500000 0.000000 0.880420
C170  C     C_R   0.500000 0.567432 0.000000 0.880432
C171  C     C_R   0.500000 0.932872 0.000000 0.858512
C172  C     C_R   0.432568 0.500000 1.000000 0.880420
C173  C     C_R   0.500000 0.000000 0.640987 0.935789
C174  C     C_R   1.000000 0.500000 0.640987 0.935787
C175  C     C_R   0.500000 0.000000 0.359013 0.935790
C176  C     C_R   0.000000 0.500000 0.359013 0.935788
C177  C     C_R   1.000000 0.500000 0.140987 0.935790
C178  C     C_R   0.500000 0.000000 0.140987 0.935788
C179  C     C_R   0.000000 0.500000 0.859013 0.935790
C180  C     C_R   0.500000 0.000000 0.859013 0.935789
C181  C     C_1   0.500000 0.000000 0.717557 -0.193102
C182  C     C_R   0.713740 0.000000 0.500000 0.108711
C183  C     C_1   1.000000 0.500000 0.717557 -0.193102
C184  C     C_1   0.500000 0.000000 0.282443 -0.193102
C185  C     C_1   1.000000 0.500000 0.282443 -0.193102
C186  C     C_1   1.000000 0.500000 0.217557 -0.193102
C187  C     C_1   0.500000 0.000000 0.217557 -0.193102
C188  C     C_1   1.000000 0.500000 0.782443 -0.193102
C189  C     C_1   0.500000 0.000000 0.782443 -0.193102
C190  C     C_R   0.876654 0.986408 0.439366 0.177683
C191  C     C_R   0.013597 0.876654 0.439371 0.177681
C192  C     C_R   0.123346 0.013593 0.439367 0.177683
H1    H     H_    0.827101 0.977409 0.392377 0.136597
H2    H     H_    0.522600 0.327101 0.892386 0.136596
H3    H     H_    0.081580 0.927363 0.660606 0.236069
H4    H     H_    0.975288 0.881325 0.671161 0.217536
H5    H     H_    0.919844 0.881099 0.604024 0.222467
H6    H     H_    0.933808 0.921141 0.563173 0.232319
H7    H     H_    0.927351 0.918423 0.660578 0.236072
H8    H     H_    0.881325 0.024695 0.671171 0.217534
H9    H     H_    0.881095 0.080146 0.604060 0.222467
H10   H     H_    0.921138 0.066188 0.563201 0.232326
H11   H     H_    0.918420 0.072636 0.660609 0.236070
H12   H     H_    0.024710 0.118675 0.671161 0.217536
H13   H     H_    0.672899 0.522589 0.892375 0.136597
H14   H     H_    0.080155 0.118901 0.604025 0.222468
H15   H     H_    0.066191 0.078858 0.563176 0.232321
H16   H     H_    0.072648 0.081578 0.660581 0.236072
H17   H     H_    0.381325 0.475306 0.828828 0.217534
H18   H     H_    0.381095 0.419854 0.895938 0.222466
H19   H     H_    0.421138 0.433812 0.936797 0.232326
H20   H     H_    0.418419 0.427365 0.839389 0.236069
H21   H     H_    0.524711 0.381325 0.828839 0.217536
H22   H     H_    0.580156 0.381099 0.895976 0.222467
H23   H     H_    0.566192 0.421141 0.936827 0.232319
H24   H     H_    0.477400 0.672899 0.892386 0.136596
H25   H     H_    0.572649 0.418422 0.839422 0.236072
H26   H     H_    0.618675 0.524693 0.828828 0.217535
H27   H     H_    0.618905 0.580145 0.895934 0.222466
H28   H     H_    0.578863 0.566188 0.936797 0.232326
H29   H     H_    0.581580 0.572634 0.839388 0.236069
H30   H     H_    0.475289 0.618675 0.828839 0.217536
H31   H     H_    0.419844 0.618901 0.895975 0.222467
H32   H     H_    0.433808 0.578859 0.936826 0.232320
H33   H     H_    0.427351 0.581578 0.839421 0.236072
H34   H     H_    0.618675 0.475307 0.171172 0.217534
H35   H     H_    0.672899 0.477411 0.107624 0.136597
H36   H     H_    0.618905 0.419855 0.104064 0.222467
H37   H     H_    0.578862 0.433812 0.063204 0.232327
H38   H     H_    0.581581 0.427365 0.160612 0.236069
H39   H     H_    0.475289 0.381325 0.171161 0.217536
H40   H     H_    0.419844 0.381099 0.104024 0.222468
H41   H     H_    0.433808 0.421141 0.063173 0.232319
H42   H     H_    0.427351 0.418422 0.160578 0.236072
H43   H     H_    0.381325 0.524694 0.171172 0.217534
H44   H     H_    0.381095 0.580146 0.104062 0.222466
H45   H     H_    0.421138 0.566188 0.063202 0.232327
H46   H     H_    0.477400 0.327101 0.107614 0.136596
H47   H     H_    0.418419 0.572635 0.160610 0.236069
H48   H     H_    0.524711 0.618674 0.171161 0.217536
H49   H     H_    0.580156 0.618901 0.104026 0.222467
H50   H     H_    0.566192 0.578859 0.063173 0.232319
H51   H     H_    0.572649 0.581577 0.160578 0.236073
H52   H     H_    0.327101 0.522590 0.107624 0.136596
H53   H     H_    0.522600 0.672899 0.107615 0.136596
H54   H     H_    0.780821 0.051122 0.545868 0.131202
H55   H     H_    0.948872 0.780822 0.545840 0.131203
H56   H     H_    0.219178 0.948876 0.545858 0.131204
H57   H     H_    0.022601 0.827101 0.392387 0.136598
H58   H     H_    0.051127 0.219178 0.545842 0.131203
H59   H     H_    0.219178 0.051124 0.454142 0.131203
H60   H     H_    0.051127 0.780822 0.454161 0.131203
H61   H     H_    0.780821 0.948878 0.454132 0.131202
H62   H     H_    0.948873 0.219178 0.454157 0.131202
H63   H     H_    0.280821 0.551121 0.045871 0.131202
H64   H     H_    0.448875 0.280822 0.045850 0.131202
H65   H     H_    0.719179 0.448879 0.045872 0.131202
H66   H     H_    0.551125 0.719178 0.045851 0.131202
H67   H     H_    0.719179 0.551121 0.954127 0.131202
H68   H     H_    0.172899 0.022593 0.392379 0.136598
H69   H     H_    0.551125 0.280822 0.954150 0.131202
H70   H     H_    0.280821 0.448879 0.954129 0.131202
H71   H     H_    0.448875 0.719178 0.954150 0.131202
H72   H     H_    0.718358 0.050681 0.548106 0.131489
H73   H     H_    0.949313 0.718359 0.548077 0.131489
H74   H     H_    0.281641 0.949317 0.548094 0.131490
H75   H     H_    0.050686 0.281641 0.548079 0.131489
H76   H     H_    0.281642 0.050683 0.451906 0.131489
H77   H     H_    0.050687 0.718359 0.451924 0.131489
H78   H     H_    0.718358 0.949319 0.451894 0.131489
H79   H     H_    0.977400 0.172899 0.392386 0.136598
H80   H     H_    0.949314 0.281641 0.451920 0.131489
H81   H     H_    0.218358 0.550681 0.048108 0.131488
H82   H     H_    0.449315 0.218359 0.048087 0.131488
H83   H     H_    0.781642 0.449320 0.048109 0.131488
H84   H     H_    0.550684 0.781641 0.048089 0.131488
H85   H     H_    0.781641 0.550680 0.951890 0.131489
H86   H     H_    0.550685 0.218359 0.951912 0.131488
H87   H     H_    0.218358 0.449319 0.951892 0.131489
H88   H     H_    0.449315 0.781641 0.951912 0.131488
H89   H     H_    0.671533 0.947316 0.536975 0.129417
H90   H     H_    0.172900 0.977407 0.607621 0.136598
H91   H     H_    0.052679 0.671533 0.537007 0.129417
H92   H     H_    0.328466 0.052682 0.536989 0.129418
H93   H     H_    0.947320 0.328466 0.537003 0.129417
H94   H     H_    0.328466 0.947318 0.463011 0.129418
H95   H     H_    0.947321 0.671533 0.462994 0.129418
H96   H     H_    0.671533 0.052684 0.463025 0.129418
H97   H     H_    0.052680 0.328466 0.462997 0.129417
H98   H     H_    0.171533 0.447316 0.036973 0.129418
H99   H     H_    0.552681 0.171533 0.036990 0.129417
H100  H     H_    0.828466 0.552685 0.036970 0.129418
H101  H     H_    0.977399 0.827101 0.607614 0.136598
H102  H     H_    0.447318 0.828467 0.036990 0.129417
H103  H     H_    0.828466 0.447315 0.963029 0.129417
H104  H     H_    0.447318 0.171533 0.963010 0.129417
H105  H     H_    0.171533 0.552684 0.963027 0.129417
H106  H     H_    0.552682 0.828466 0.963011 0.129417
H107  H     H_    0.609066 0.947121 0.535674 0.154551
H108  H     H_    0.052874 0.609065 0.535706 0.154546
H109  H     H_    0.390934 0.052876 0.535688 0.154549
H110  H     H_    0.947125 0.390934 0.535702 0.154547
H111  H     H_    0.390934 0.947124 0.464312 0.154549
H112  H     H_    0.827101 0.022591 0.607623 0.136597
H113  H     H_    0.947126 0.609066 0.464294 0.154546
H114  H     H_    0.609066 0.052879 0.464326 0.154551
H115  H     H_    0.052875 0.390934 0.464297 0.154547
H116  H     H_    0.109066 0.447121 0.035672 0.154551
H117  H     H_    0.552876 0.109066 0.035689 0.154549
H118  H     H_    0.890934 0.552879 0.035669 0.154552
H119  H     H_    0.447124 0.890934 0.035688 0.154549
H120  H     H_    0.890934 0.447121 0.964330 0.154552
H121  H     H_    0.447124 0.109066 0.964311 0.154549
H122  H     H_    0.109066 0.552879 0.964328 0.154551
H123  H     H_    0.022600 0.172899 0.607614 0.136598
H124  H     H_    0.552876 0.890934 0.964312 0.154549
H125  H     H_    0.881325 0.975305 0.328829 0.217534
H126  H     H_    0.881095 0.919853 0.395939 0.222466
H127  H     H_    0.921138 0.933812 0.436798 0.232326
H128  H     H_    0.918420 0.927364 0.339390 0.236069
H129  H     H_    0.024711 0.881325 0.328839 0.217536
H130  H     H_    0.080156 0.881099 0.395977 0.222468
H131  H     H_    0.066191 0.921142 0.436825 0.232321
H132  H     H_    0.072649 0.918421 0.339420 0.236071
H133  H     H_    0.118675 0.024697 0.328830 0.217535
H134  H     H_    0.327101 0.477410 0.892376 0.136597
H135  H     H_    0.118904 0.080148 0.395945 0.222466
H136  H     H_    0.078862 0.066189 0.436802 0.232326
H137  H     H_    0.081580 0.072638 0.339395 0.236070
H138  H     H_    0.975289 0.118675 0.328838 0.217536
H139  H     H_    0.919844 0.118901 0.395973 0.222467
H140  H     H_    0.933808 0.078859 0.436825 0.232320
H141  H     H_    0.927351 0.081578 0.339420 0.236072
H142  H     H_    0.118675 0.975303 0.671170 0.217535
H143  H     H_    0.118904 0.919852 0.604057 0.222466
H144  H     H_    0.078862 0.933811 0.563199 0.232325
N1    N     N_2   0.893904 0.971708 0.378046 -0.282541
N2    N     N_2   0.528302 0.393905 0.878058 -0.282543
N3    N     N_2   0.606096 0.528290 0.878045 -0.282542
N4    N     N_2   0.471698 0.606096 0.878057 -0.282544
N5    N     N_2   0.606096 0.471710 0.121955 -0.282541
N6    N     N_2   0.471698 0.393904 0.121942 -0.282544
N7    N     N_2   0.393904 0.528291 0.121954 -0.282541
N8    N     N_2   0.528302 0.606095 0.121943 -0.282544
N9    N     N_2   0.028302 0.893904 0.378057 -0.282543
N10   N     N_2   0.106096 0.028293 0.378048 -0.282542
N11   N     N_2   0.971698 0.106095 0.378057 -0.282544
N12   N     N_2   0.106096 0.971707 0.621953 -0.282542
N13   N     N_2   0.971697 0.893905 0.621942 -0.282544
N14   N     N_2   0.893904 0.028292 0.621954 -0.282541
N15   N     N_2   0.028301 0.106096 0.621943 -0.282544
N16   N     N_2   0.393904 0.471709 0.878045 -0.282541
O1    O     O_R   0.550910 0.028770 0.500030 -0.626517
O2    O     O_R   0.471230 0.050910 0.000030 -0.626515
O3    O     O_R   0.949090 0.471230 0.000030 -0.626516
O4    O     O_R   0.528770 0.949090 0.000030 -0.626515
O5    O     O_R   0.949090 0.528770 0.999970 -0.626517
O6    O     O_R   0.528770 0.050910 0.999970 -0.626515
O7    O     O_R   0.050910 0.471230 0.999970 -0.626516
O8    O     O_R   0.471230 0.949090 0.999970 -0.626514
O9    O     O_R   0.499990 0.028770 0.607330 -0.618611
O10   O     O_R   0.971230 0.499990 0.607330 -0.618609
O11   O     O_R   0.500010 0.971230 0.607330 -0.618609
O12   O     O_R   0.971230 0.550910 0.500030 -0.626513
O13   O     O_R   0.028770 0.500010 0.607330 -0.618610
O14   O     O_R   0.500010 0.028770 0.392670 -0.618610
O15   O     O_R   0.028770 0.499990 0.392670 -0.618610
O16   O     O_R   0.499990 0.971230 0.392670 -0.618610
O17   O     O_R   0.971230 0.500010 0.392670 -0.618609
O18   O     O_R   0.999990 0.528770 0.107330 -0.618610
O19   O     O_R   0.471230 0.999990 0.107330 -0.618609
O20   O     O_R   0.000010 0.471230 0.107330 -0.618610
O21   O     O_R   0.528770 0.000010 0.107330 -0.618610
O22   O     O_R   0.000010 0.528770 0.892670 -0.618610
O23   O     O_R   0.449090 0.971230 0.500030 -0.626515
O24   O     O_R   0.528770 0.999990 0.892670 -0.618610
O25   O     O_R   0.999990 0.471230 0.892670 -0.618609
O26   O     O_R   0.471230 0.000010 0.892670 -0.618609
O27   O     O_R   1.000000 0.949040 0.560460 -0.595941
O28   O     O_R   0.050960 0.000000 0.560460 -0.595937
O29   O     O_R   1.000000 0.050960 0.560460 -0.595941
O30   O     O_R   0.949040 0.000000 0.560460 -0.595937
O31   O     O_R   0.000000 0.949040 0.439540 -0.595942
O32   O     O_R   0.949040 0.000000 0.439540 -0.595937
O33   O     O_R   1.000000 0.050960 0.439540 -0.595941
O34   O     O_R   0.028770 0.449090 0.500030 -0.626514
O35   O     O_R   0.050960 0.000000 0.439540 -0.595937
O36   O     O_R   0.500000 0.449040 0.060460 -0.595943
O37   O     O_R   0.550960 0.500000 0.060460 -0.595937
O38   O     O_R   0.500000 0.550960 0.060460 -0.595942
O39   O     O_R   0.449040 0.500000 0.060460 -0.595937
O40   O     O_R   0.500000 0.449040 0.939540 -0.595942
O41   O     O_R   0.449040 0.500000 0.939540 -0.595937
O42   O     O_R   0.500000 0.550960 0.939540 -0.595942
O43   O     O_R   0.550960 0.500000 0.939540 -0.595936
O44   O     O_R   0.449090 0.028770 0.499970 -0.626515
O45   O     O_R   0.028770 0.550910 0.499970 -0.626514
O46   O     O_R   0.550910 0.971230 0.499970 -0.626516
O47   O     O_R   0.971230 0.449090 0.499970 -0.626513
O48   O     O_R   0.050910 0.528770 0.000030 -0.626517
Zn1   Zn    Zn3+2 0.500000 0.038410 0.500000 0.953558
Zn2   Zn    Zn3+2 1.000000 0.000000 0.419090 0.986063
Zn3   Zn    Zn3+2 0.500000 0.500000 0.080910 0.986062
Zn4   Zn    Zn3+2 0.500000 0.500000 0.919090 0.986062
Zn5   Zn    Zn3+2 0.961590 0.500000 0.500000 0.953560
Zn6   Zn    Zn3+2 0.500000 0.961590 0.500000 0.953559
Zn7   Zn    Zn3+2 0.038410 0.500000 0.500000 0.953559
Zn8   Zn    Zn3+2 1.000000 0.538410 0.000000 0.953557
Zn9   Zn    Zn3+2 0.461590 0.000000 0.000000 0.953559
Zn10  Zn    Zn3+2 0.000000 0.461590 0.000000 0.953558
Zn11  Zn    Zn3+2 0.538410 0.000000 0.000000 0.953558
Zn12  Zn    Zn3+2 1.000000 0.000000 0.580910 0.986062

loop_
_geom_bond_atom_site_label_1
_geom_bond_atom_site_label_2
_ccdc_geom_bond_type
C103  H44   S    
C98   H28   S    
C29   C42   A    
C175  O14   A    
C8    C26   A    
H4    N13   S    
C160  O3    A    
C155  C182  S    
C15   C32   A    
C92   H143  S    
H39   N6    S    
C91   H141  S    
C56   C101  A    
C144  C151  A    
C134  H113  S    
C26   H134  S    
C128  C145  A    
C62   C108  A    
C98   H29   S    
C139  C152  A    
C176  O15   A    
C132  C150  A    
C19   C37   A    
C87   H128  S    
C57   C83   A    
C124  H103  S    
O29   Zn12  S    
C4    C45   A    
O23   Zn6   S    
O2    Zn9   S    
O10   Zn5   S    
C102  H40   S    
C99   H31   S    
O43   Zn4   S    
C67   C85   A    
C121  H99   S    
O17   Zn5   S    
C179  O22   A    
H43   N7    S    
C16   N8    S    
C14   N6    S    
C179  C188  S    
C177  C186  S    
C130  H108  S    
O44   Zn1   S    
C53   H55   S    
C149  O2    A    
C123  C163  A    
C8    N16   S    
C135  C146  A    
C121  C161  A    
C123  C141  A    
C60   H62   S    
C77   H80   S    
C94   H9    S    
C137  H116  S    
C46   C84   A    
C173  O9    A    
C102  H42   S    
C97   H22   S    
O28   Zn12  S    
H26   N3    S    
C100  N5    S    
C17   C34   A    
C2    C71   A    
C53   C71   A    
C95   H16   S    
C2    C156  S    
O5    Zn8   S    
C93   H7    S    
C91   H139  S    
C83   H85   S    
C13   C72   A    
C138  C151  S    
C22   C36   A    
C35   C78   A    
C119  C136  A    
C119  H97   S    
C127  C150  S    
C144  H122  S    
C183  C188  T    
C168  O40   A    
C191  N9    S    
C87   H126  S    
C149  O6    A    
C50   C169  S    
C179  O25   A    
O31   Zn2   S    
O12   Zn5   S    
C24   C77   A    
C1    O1    A    
O34   Zn7   S    
C145  H124  S    
C113  C157  A    
C22   H101  S    
C111  C155  A    
C2    C75   A    
C59   H61   S    
C54   C101  A    
C16   C51   A    
O18   Zn8   S    
C14   C31   A    
C69   H71   S    
C126  C159  A    
C70   H72   S    
C33   C42   A    
C174  O10   A    
C62   C80   A    
C100  H37   S    
C65   H67   S    
C99   N4    S    
C25   C38   A    
C174  O13   A    
C104  H49   S    
C56   H59   S    
O11   Zn6   S    
C173  O11   A    
C84   H86   S    
C85   H87   S    
C30   C41   A    
C86   H88   S    
C66   H69   S    
O20   Zn10  S    
C95   H14   S    
C127  O34   A    
H8    N14   S    
C61   H63   S    
C41   C109  S    
O19   Zn9   S    
C15   C48   A    
C61   C107  A    
C13   C157  S    
C138  O7    A    
C111  C129  A    
O27   Zn12  S    
C95   N15   S    
C96   H18   S    
O25   Zn10  S    
C131  C148  A    
C9    C49   A    
C49   C168  S    
C92   N12   S    
C171  O8    A    
C89   N10   S    
C129  H107  S    
C4    N12   S    
C63   C109  A    
C93   H5    S    
C34   C79   S    
C69   C110  A    
C5    N13   S    
C20   H79   S    
C27   C40   A    
C23   C34   A    
H21   N2    S    
C27   H2    S    
C87   N1    S    
C88   H131  S    
C12   N5    S    
C145  C154  A    
C31   H46   S    
C105  O45   A    
C89   H135  S    
C169  O43   A    
H133  N10   S    
C178  O21   A    
C164  O27   A    
C60   C106  A    
O45   Zn7   S    
C36   C90   S    
H17   N16   S    
C130  C147  A    
O1    Zn1   S    
C131  H109  S    
O15   Zn7   S    
C12   C50   A    
C172  O41   A    
C92   H144  S    
C43   C167  S    
C17   C190  A    
C104  H51   S    
C122  C162  A    
C184  C187  T    
C68   C82   A    
C121  C139  A    
C153  C160  S    
C42   C110  S    
C122  C140  A    
C91   N11   S    
C35   C85   A    
C45   C165  S    
C125  C143  A    
C126  C144  A    
C154  C171  S    
H48   N8    S    
C105  O12   A    
C113  H92   S    
C55   C73   A    
O47   Zn5   S    
C87   H127  S    
C112  C156  A    
C96   H19   S    
C167  O32   A    
C112  C130  A    
C59   C76   A    
C135  H114  S    
O30   Zn12  S    
C96   H20   S    
C111  H89   S    
O41   Zn4   S    
C120  H98   S    
C172  O39   A    
C168  O36   A    
C176  C185  S    
C126  H105  S    
C127  O47   A    
C134  C147  A    
O13   Zn7   S    
H34   N5    S    
C63   H65   S    
C24   C73   A    
C18   H57   S    
O3    Zn10  S    
C28   C41   A    
C31   C40   A    
O35   Zn2   S    
C15   N7    S    
C32   C39   A    
C100  H36   S    
C160  O5    A    
C114  C158  A    
C93   N13   S    
C23   H112  S    
C37   C101  S    
C181  C189  T    
C70   C182  A    
C140  H118  S    
C165  O35   A    
C43   C190  A    
C141  H119  S    
C46   C161  S    
C76   H78   S    
C89   H137  S    
C33   H53   S    
C94   H10   S    
C54   H56   S    
O8    Zn9   S    
C117  H95   S    
O14   Zn1   S    
C7    N15   S    
C118  H96   S    
C116  O23   A    
C192  N10   S    
C140  C153  A    
C40   C108  S    
C173  C181  S    
C132  H110  S    
C98   H27   S    
C28   H13   S    
C133  H111  S    
C117  C134  A    
C62   H64   S    
C124  C162  A    
C95   H15   S    
C18   C191  A    
C56   C74   A    
C55   C106  A    
C178  O19   A    
C59   C79   A    
C19   H68   S    
C116  C148  S    
C47   C166  S    
C115  C133  A    
O24   Zn11  S    
C116  O44   A    
C7    C47   A    
H129  N9    S    
C21   H90   S    
C8    C48   A    
C98   N3    S    
C45   C192  A    
C139  H117  S    
C170  O38   A    
C177  O18   A    
C55   H58   S    
C122  H100  S    
C3    C20   A    
C167  O30   A    
C58   C90   A    
C65   C109  A    
C129  C146  A    
C99   H33   S    
C178  C187  S    
O4    Zn11  S    
C143  C152  A    
C5    C44   A    
C63   C81   A    
O39   Zn3   S    
C6    C43   A    
O26   Zn9   S    
C97   H25   S    
C97   N2    S    
C11   N4    S    
C10   C50   A    
C88   H130  S    
C125  H104  S    
C171  O4    A    
C9    C27   A    
C68   C163  S    
C10   C28   A    
C94   N14   S    
C1    O46   A    
C12   C30   A    
C30   H35   S    
C51   C170  S    
C125  C161  A    
C66   C108  A    
C6    N14   S    
C174  C183  S    
C165  O28   A    
C7    C25   A    
C180  C189  S    
C100  H38   S    
O48   Zn8   S    
C185  C186  T    
C104  H50   S    
C180  O24   A    
C164  O31   A    
C166  O29   A    
C21   C37   A    
C13   C74   A    
C102  H41   S    
C103  H47   S    
C97   H23   S    
C53   C90   A    
C120  C137  A    
C44   C164  S    
C96   N16   S    
C18   C36   A    
C102  N6    S    
C118  C135  A    
C175  C184  S    
C46   C80   A    
C166  O33   A    
C68   C86   A    
C17   H1    S    
C91   H140  S    
C92   H3    S    
O32   Zn2   S    
C39   C107  S    
O38   Zn3   S    
C115  C157  A    
C44   C191  A    
C24   C158  S    
C65   C83   A    
C14   C49   A    
C115  H94   S    
C105  C147  S    
C177  O20   A    
C3    C47   A    
C73   H75   S    
C48   C172  S    
C74   H76   S    
C57   C162  S    
O42   Zn4   S    
C176  O17   A    
O21   Zn11  S    
C120  C159  A    
C142  H120  S    
O37   Zn3   S    
C88   H132  S    
C19   C192  A    
C71   H73   S    
C138  O48   A    
C124  C142  A    
C1    C146  S    
C76   C182  A    
C72   H74   S    
C64   H66   S    
C58   C75   A    
C75   H77   S    
H12   N15   S    
C60   C77   A    
C5    C22   A    
C175  O16   A    
C103  N7    S    
C11   C51   A    
C88   N9    S    
C149  C152  S    
C29   H24   S    
C25   H123  S    
H142  N12   S    
C58   H60   S    
C180  O26   A    
C128  C163  A    
C81   H83   S    
C112  H91   S    
H138  N11   S    
C38   C106  S    
C82   H84   S    
H30   N4    S    
C16   C33   A    
C20   C38   A    
O7    Zn10  S    
C64   C110  A    
C61   C78   A    
C103  H45   S    
O9    Zn1   S    
C117  C156  A    
C80   H82   S    
C118  C155  A    
C133  C148  A    
O40   Zn4   S    
O22   Zn8   S    
C143  H121  S    
C64   C82   A    
O33   Zn2   S    
C26   C39   A    
C57   C81   A    
C52   C79   A    
C10   N3    S    
C67   H70   S    
C104  N8    S    
C3    N11   S    
C99   H32   S    
C113  C131  A    
O36   Zn3   S    
C114  C132  A    
C52   H54   S    
C136  C150  A    
C114  H93   S    
C128  H106  S    
C170  O42   A    
C9    N2    S    
O46   Zn6   S    
C169  O37   A    
C93   H6    S    
H125  N1    S    
C4    C21   A    
C136  H115  S    
C67   C107  A    
C119  C158  A    
C6    C23   A    
O6    Zn11  S    
C190  N1    S    
O16   Zn6   S    
C142  C153  A    
C35   C159  S    
C52   C70   A    
C66   C84   A    
C54   C72   A    
C11   C29   A    
C89   H136  S    
C137  C151  A    
C94   H11   S    
C78   H81   S    
C141  C154  A    
C123  H102  S    
C32   H52   S    
C69   C86   A    
