data_mof_unit_26696.cif
_audit_creation_date              2012-12-11T14:58:23-0500
_audit_creation_method            fapswitch 2.2
_symmetry_space_group_name_H-M    P1
_symmetry_Int_Tables_number       1
_space_group_crystal_system       triclinic
_cell_length_a                    10.997038
_cell_length_b                    10.99772
_cell_length_c                    18.65316
_cell_angle_alpha                 90.439807
_cell_angle_beta                  90.233456
_cell_angle_gamma                 59.803455
_cell_volume                      1949.7776314

loop_
_atom_site_label
_atom_site_type_symbol
_atom_type_description
_atom_site_fract_x
_atom_site_fract_y
_atom_site_fract_z
_atom_type_partial_charge
C1    C     C_R   0.358651 0.771149 0.397531 0.534200
C2    C     C_R   0.593307 0.053278 0.196461 0.037694
C3    C     C_R   0.326247 0.266219 0.180476 -0.015555
C4    C     C_R   0.424334 0.168442 0.297465 -0.015839
C5    C     C_R   0.442399 0.157488 0.222307 0.002048
C6    C     C_R   0.075961 0.659298 0.313409 0.049756
C7    C     C_R   0.994763 0.769842 0.361608 -0.052707
C8    C     C_R   0.629949 0.968160 0.134645 -0.071063
C9    C     C_R   0.766164 0.898985 0.106459 -0.120856
C10   C     C_R   0.211547 0.378520 0.216728 -0.174222
C11   C     C_R   0.215551 0.398304 0.290358 -0.050187
C12   C     C_R   0.379046 0.345303 0.393276 0.534588
C13   C     C_R   0.945645 0.744237 0.425397 -0.114638
C14   C     C_R   0.975552 0.608422 0.441692 -0.104466
C15   C     C_R   0.049814 0.498779 0.392686 -0.086951
C16   C     C_R   0.101731 0.522522 0.328305 0.046312
C17   C     C_R   0.333003 0.300880 0.328659 0.007498
C18   C     C_R   0.708864 0.323711 0.274147 -0.192492
C19   C     C_R   0.748079 0.301737 0.201771 -0.194019
C20   C     C_R   0.805664 0.376324 0.171120 0.021591
C21   C     C_R   0.786477 0.498379 0.207172 0.140389
C22   C     C_R   0.752384 0.517113 0.279694 0.088000
C23   C     C_R   0.709441 0.419830 0.394833 0.569809
C24   C     C_R   0.730243 0.416374 0.316201 -0.011553
C25   C     C_R   0.418036 0.733511 0.270725 -0.152863
C26   C     C_R   0.404001 0.781945 0.201307 -0.132077
C27   C     C_R   0.307792 0.922608 0.186817 0.037946
C28   C     C_R   0.227511 0.014443 0.243451 -0.036953
C29   C     C_R   0.248121 0.965397 0.313360 -0.131433
C30   C     C_R   0.345579 0.826450 0.326864 0.003035
C31   C     C_R   0.457869 0.292612 0.716877 -0.151789
C32   C     C_R   0.440177 0.289024 0.789186 -0.153332
C33   C     C_R   0.307001 0.331506 0.815651 0.005563
C34   C     C_R   0.368917 0.712316 0.611301 0.554568
C35   C     C_R   0.188998 0.385909 0.770361 -0.122781
C36   C     C_R   0.205458 0.391061 0.696691 -0.036842
C37   C     C_R   0.342324 0.340080 0.670152 0.032748
C38   C     C_R   0.723793 0.476868 0.733851 -0.142294
C39   C     C_R   0.739423 0.461094 0.807195 -0.137968
C40   C     C_R   0.814640 0.326343 0.836204 0.022849
C41   C     C_R   0.860898 0.207198 0.791691 -0.140066
C42   C     C_R   0.843847 0.223228 0.717817 -0.154413
C43   C     C_R   0.781125 0.358094 0.688655 0.016372
C44   C     C_R   0.315839 0.684576 0.733831 -0.157705
C45   C     C_R   0.371040 0.351047 0.596264 0.530984
C46   C     C_R   0.295174 0.724149 0.805373 -0.145158
C47   C     C_R   0.306294 0.839548 0.826900 0.013817
C48   C     C_R   0.332353 0.918688 0.777314 -0.113461
C49   C     C_R   0.350318 0.882209 0.705466 -0.015410
C50   C     C_R   0.345465 0.761289 0.684291 0.043943
C51   C     C_R   0.893918 0.325461 0.105858 0.535966
C52   C     C_R   0.305341 0.256413 0.102344 0.540532
C53   C     C_R   0.271911 0.962671 0.112280 0.539391
C54   C     C_R   0.878856 0.310293 0.906159 0.542118
C55   C     C_R   0.295914 0.290539 0.886657 0.552855
C56   C     C_R   0.756076 0.380843 0.612342 0.541161
C57   C     C_R   0.277411 0.891494 0.899106 0.551043
C58   C     C_R   0.873272 0.905028 0.142624 -0.102306
C59   C     C_R   0.845770 0.968261 0.209852 -0.126515
C60   C     C_R   0.709651 0.034079 0.237845 -0.112398
Cr1   Cr    Cr6+3 0.601770 0.606860 0.505860 0.971005
Cr2   Cr    Cr6+3 0.291380 0.601660 0.495070 1.004289
Cr3   Cr    Cr6+3 0.606880 0.291510 0.499120 0.986455
Cr4   Cr    Cr6+3 0.062440 0.063090 0.008210 1.000039
Cr5   Cr    Cr6+3 0.062880 0.375170 0.998920 1.012428
Cr6   Cr    Cr6+3 0.374700 0.061720 0.992470 0.990404
H1    H     H_    0.886590 0.829477 0.462911 0.094452
H2    H     H_    0.939206 0.588344 0.491633 0.121881
H3    H     H_    0.073716 0.393535 0.406615 0.107370
H4    H     H_    0.658412 0.273319 0.298491 0.144770
H5    H     H_    0.737610 0.225838 0.169653 0.161574
H6    H     H_    0.479393 0.622185 0.280459 0.119460
H7    H     H_    0.459328 0.707719 0.158293 0.139220
H8    H     H_    0.788266 0.840213 0.056722 0.114090
H9    H     H_    0.184963 0.033832 0.356900 0.111993
H10   H     H_    0.562899 0.259026 0.697509 0.154128
H11   H     H_    0.531258 0.247255 0.824147 0.138819
H12   H     H_    0.086081 0.416163 0.791906 0.143700
H13   H     H_    0.667952 0.582550 0.712463 0.141097
H14   H     H_    0.701902 0.553998 0.840781 0.134293
H15   H     H_    0.920117 0.101822 0.813177 0.146692
H16   H     H_    0.883462 0.131095 0.683541 0.129545
H17   H     H_    0.308559 0.594349 0.716873 0.130916
H18   H     H_    0.976154 0.874753 0.352231 0.104282
H19   H     H_    0.271308 0.665334 0.843560 0.130518
H20   H     H_    0.334173 0.012219 0.794561 0.142148
H21   H     H_    0.977742 0.856720 0.119835 0.139723
H22   H     H_    0.927552 0.973115 0.239381 0.108095
H23   H     H_    0.697502 0.072746 0.291570 0.115340
H24   H     H_    0.557306 0.950379 0.107874 0.181237
H25   H     H_    0.118803 0.452864 0.187518 0.150990
O1    O     O_R   0.748800 0.497470 0.428000 -0.531614
O2    O     O_R   0.300070 0.471040 0.567100 -0.516724
O3    O     O_R   0.491670 0.258900 0.574910 -0.529009
O4    O     O_R   0.718780 0.304180 0.577850 -0.500529
O5    O     O_3   0.500010 0.500010 0.500020 -0.282935
O6    O     O_R   0.186690 0.923650 0.086970 -0.511440
O7    O     O_R   0.957250 0.194250 0.084630 -0.525988
O8    O     O_R   0.934970 0.407490 0.085330 -0.490113
O9    O     O_R   0.203780 0.365190 0.067090 -0.495983
O10   O     O_R   0.417600 0.174890 0.067840 -0.529288
O11   O     O_R   0.375320 0.946260 0.070860 -0.549013
O12   O     O_R   0.476420 0.724060 0.429470 -0.533758
O13   O     O_R   0.160600 0.919630 0.926660 -0.512056
O14   O     O_R   0.933060 0.190520 0.936020 -0.504331
O15   O     O_R   0.908880 0.403460 0.925020 -0.521702
O16   O     O_R   0.179600 0.361450 0.918490 -0.499657
O17   O     O_R   0.391510 0.170860 0.907530 -0.516369
O18   O     O_R   0.351130 0.942530 0.922260 -0.501208
O19   O     O_3   0.166667 0.166667 0.999870 -0.284367
O20   O     O_R   0.264580 0.744340 0.416750 -0.501020
O21   O     O_R   0.309380 0.472470 0.418200 -0.483311
O22   O     O_R   0.501710 0.260430 0.414300 -0.543325
O23   O     O_R   0.728090 0.305600 0.428960 -0.496766
O24   O     O_R   0.738760 0.495930 0.588610 -0.534304
O25   O     O_R   0.467110 0.722640 0.578360 -0.511291
O26   O     O_R   0.254530 0.742800 0.577360 -0.511380
C61   C     C_3   0.494089 0.037998 0.344094 -0.369775
H26   H     H_    0.417605 0.042742 0.384219 0.129029
H27   H     H_    0.528800 0.941982 0.310975 0.153740
H28   H     H_    0.586815 0.025793 0.373791 0.150630
N1    N     N_3   0.797933 0.606084 0.169949 -0.584634
H29   H     H_    0.872587 0.623100 0.195890 0.248156
H30   H     H_    0.700564 0.698776 0.172780 0.244868
N2    N     N_3   0.728734 0.646330 0.311405 -0.654603
H31   H     H_    0.808317 0.626221 0.346633 0.269624
H32   H     H_    0.634940 0.695408 0.339252 0.263015
C62   C     C_3   0.105823 0.156800 0.231091 -0.383302
H33   H     H_    0.012752 0.144253 0.227421 0.150983
H34   H     H_    0.090575 0.229261 0.276356 0.135508
H35   H     H_    0.120185 0.201574 0.181488 0.130864
C63   C     C_3   0.079571 0.444165 0.647887 -0.383973
H36   H     H_    0.060355 0.541863 0.620953 0.151449
H37   H     H_    0.097973 0.362881 0.606901 0.128970
H38   H     H_    0.982915 0.469072 0.678094 0.140166
C64   C     C_3   0.367978 0.976516 0.653216 -0.368893
H39   H     H_    0.477422 0.923620 0.632599 0.157287
H40   H     H_    0.292750 0.003903 0.608025 0.150266
H41   H     H_    0.346962 0.076513 0.678996 0.125753
C65   C     C_3   0.148790 0.683485 0.251733 -0.376860
H42   H     H_    0.137363 0.789131 0.253885 0.140661
H43   H     H_    0.263024 0.605955 0.253374 0.149938
H44   H     H_    0.105785 0.670751 0.200345 0.121198

loop_
_geom_bond_atom_site_label_1
_geom_bond_atom_site_label_2
_ccdc_geom_bond_type
C33   C55   S    
C56   O4    A    
C40   C41   A    
Cr2   O5    S    
C41   C42   A    
Cr6   O11   S    
C19   H5    S    
C35   C36   A    
C42   H16   S    
C65   H44   S    
C44   H17   S    
C45   O2    A    
C62   H33   S    
Cr1   O5    S    
Cr4   O14   S    
C60   H23   S    
Cr3   O3    S    
C26   C27   A    
C18   C24   A    
C28   C29   A    
Cr1   O12   S    
C65   H43   S    
C18   C19   A    
C20   C51   S    
C36   C63   S    
C38   C39   A    
C2    C60   A    
C38   H13   S    
C34   O25   A    
C15   C16   A    
Cr3   O4    S    
C26   H7    S    
C9    C58   A    
C21   N1    S    
C59   H22   S    
Cr2   O26   S    
C32   H11   S    
C61   H26   S    
Cr3   O23   S    
C57   O18   A    
Cr2   O20   S    
C31   C32   A    
C63   H36   S    
C12   C17   S    
Cr1   O24   S    
C23   C24   S    
C1    O12   A    
Cr1   O1    S    
C46   H19   S    
C51   O7    A    
Cr4   O7    S    
C7    H18   S    
C59   C60   A    
C21   C22   A    
C58   H21   S    
Cr6   O10   S    
C4    C61   S    
C64   H41   S    
C45   O3    A    
C44   C46   A    
C51   O8    A    
C15   H3    S    
C52   O10   A    
C34   C50   S    
C54   O15   A    
C65   H42   S    
Cr5   O8    S    
C64   H40   S    
C39   C40   A    
C8    C9    A    
C22   N2    S    
C53   O6    A    
C58   C59   A    
Cr3   O5    S    
C52   O9    A    
C31   C37   A    
C55   O16   A    
C61   H28   S    
C29   C30   A    
C47   C57   S    
C11   C16   S    
Cr4   O19   S    
C47   C48   A    
C7    C13   A    
C53   O11   A    
C41   H15   S    
Cr1   O25   S    
C25   H6    S    
Cr6   O19   S    
C4    C17   A    
Cr4   O6    S    
C49   C64   S    
C10   H25   S    
C40   C54   S    
N2    H31   S    
C22   C24   A    
C2    C5    S    
C8    H24   S    
C9    H8    S    
N1    H30   S    
C62   H35   S    
Cr5   O15   S    
C12   O21   A    
C12   O22   A    
C13   H1    S    
C44   C50   A    
C25   C30   A    
Cr4   O13   S    
C57   O13   A    
C46   C47   A    
C36   C37   A    
C54   O14   A    
C14   C15   A    
C2    C8    A    
Cr5   O9    S    
Cr6   O17   S    
C64   H39   S    
C3    C5    A    
C11   C17   A    
C3    C52   S    
C27   C53   S    
C6    C7    A    
C29   H9    S    
C62   H34   S    
C35   H12   S    
C18   H4    S    
C55   O17   A    
C32   C33   A    
C19   C20   A    
C25   C26   A    
C38   C43   A    
C3    C10   A    
C39   H14   S    
C23   O23   A    
C31   H10   S    
C34   O26   A    
C63   H38   S    
C48   C49   A    
C1    C30   S    
C33   C35   A    
C56   O24   A    
C48   H20   S    
Cr6   O18   S    
C6    C65   S    
C61   H27   S    
Cr5   O19   S    
C10   C11   A    
C6    C16   A    
Cr3   O22   S    
C43   C56   S    
C4    C5    A    
Cr2   O21   S    
C20   C21   A    
C63   H37   S    
C49   C50   A    
C42   C43   A    
Cr2   O2    S    
C27   C28   A    
N2    H32   S    
C14   H2    S    
C23   O1    A    
N1    H29   S    
C13   C14   A    
C37   C45   S    
Cr5   O16   S    
C1    O20   A    
C28   C62   S    
