data_mof_unit_22546.cif
_audit_creation_date              2012-10-26T20:51:13-0400
_audit_creation_method            fapswitch 2.2
_symmetry_space_group_name_H-M    P1
_symmetry_Int_Tables_number       1
_space_group_crystal_system       triclinic
_cell_length_a                    13.081442
_cell_length_b                    10.844436
_cell_length_c                    9.663655
_cell_angle_alpha                 89.323744
_cell_angle_beta                  94.791639
_cell_angle_gamma                 94.127129
_cell_volume                      1362.53753916

loop_
_atom_site_label
_atom_site_type_symbol
_atom_type_description
_atom_site_fract_x
_atom_site_fract_y
_atom_site_fract_z
_atom_type_partial_charge
C1    C     C_R   0.501318 0.262904 0.500908 0.560463
C2    C     C_R   0.580615 0.943444 0.424143 0.265455
C3    C     C_R   0.508210 0.870262 0.497431 -0.070719
C4    C     C_R   0.301379 0.504803 0.475035 0.603687
C5    C     C_R   0.433840 0.927938 0.561740 -0.001982
C6    C     C_3   0.395216 0.911335 0.702986 0.473541
C7    C     C_3   0.393970 0.051904 0.706923 0.180363
C8    C     C_R   0.533861 0.603173 0.076066 0.128002
C9    C     C_R   0.447779 0.408068 0.069774 0.159698
C10   C     C_R   0.437674 0.415615 0.921134 0.163375
C11   C     C_R   0.542019 0.598320 0.932336 0.164057
C12   C     C_R   0.024728 0.491810 0.561286 -0.009833
C13   C     C_3   0.647118 0.664164 0.945822 -0.085906
C14   C     C_3   0.632650 0.679580 0.100042 -0.245514
C15   C     C_R   0.504047 0.736987 0.499680 0.537782
C16   C     C_R   0.698151 0.490932 0.523633 0.555466
C17   C     C_R   0.809512 0.474320 0.531287 -0.001415
C18   C     C_R   0.189103 0.509802 0.460153 -0.010140
C19   C     C_R   0.031107 0.505278 0.308289 0.283153
C20   C     C_R   0.138134 0.506641 0.327161 -0.153576
C21   C     C_R   0.132239 0.514145 0.576611 0.252525
C22   C     C_2   0.402083 0.296253 0.136265 0.664535
C23   C     C_R   0.973264 0.494766 0.426044 0.030400
C24   C     C_2   0.344912 0.345114 0.851637 0.589310
C25   C     C_2   0.733952 0.583892 0.929452 0.656646
C26   C     C_R   0.865258 0.487627 0.412093 0.199746
C27   C     C_R   0.860484 0.439092 0.656450 0.222729
C28   C     C_R   0.968183 0.460886 0.676941 0.259676
C29   C     C_R   0.432932 0.054618 0.564016 -0.100275
C30   C     C_R   0.507313 0.129864 0.501533 -0.063357
C31   C     C_R   0.579829 0.073129 0.425561 0.286387
Cu1   Cu    Cu3+1 0.499990 0.499980 0.640670 1.117871
Cu2   Cu    Cu3+1 0.500010 0.500020 0.359330 1.031156
H1    H     H_    0.314932 0.082861 0.707454 0.187725
H2    H     H_    0.199479 0.271813 0.867935 0.351706
H3    H     H_    0.803320 0.431759 0.998320 0.377794
H4    H     H_    0.849449 0.317825 0.804228 0.333901
H5    H     H_    0.035002 0.522295 0.107341 0.339195
H6    H     H_    0.970336 0.456267 0.878285 0.358644
H7    H     H_    0.194862 0.475120 0.752819 0.381210
H8    H     H_    0.666344 0.224352 0.398335 0.315151
H9    H     H_    0.666582 0.808072 0.392604 0.320110
H10   H     H_    0.272478 0.856303 0.790317 0.360552
H11   H     H_    0.652264 0.753234 0.888088 0.118984
H12   H     H_    0.688995 0.636622 0.174343 0.221412
H13   H     H_    0.619148 0.776253 0.125836 0.181641
H14   H     H_    0.181691 0.507163 0.236575 0.173838
H15   H     H_    0.772710 0.409213 0.271868 0.358217
H16   H     H_    0.534761 0.890705 0.788253 0.303009
H17   H     H_    0.534616 0.102884 0.786409 0.335744
H18   H     H_    0.403643 0.111772 0.164075 0.346584
N1    N     N_R   0.500660 0.500930 0.148010 -0.273906
N2    N     N_R   0.500660 0.500890 0.852110 -0.255278
O1    O     O_R   0.500000 0.319640 0.618810 -0.438181
O2    O     O_3   0.463528 0.860019 0.804877 -0.636944
O3    O     O_3   0.463055 0.107425 0.811944 -0.617265
O4    O     O_2   0.327459 0.302195 0.203335 -0.469854
O5    O     O_R   0.441549 0.182189 0.115220 -0.624431
O6    O     O_2   0.343305 0.305839 0.734716 -0.485863
O7    O     O_R   0.256333 0.323310 0.922980 -0.696610
O8    O     O_2   0.807453 0.624108 0.868295 -0.478593
O9    O     O_R   0.733835 0.467721 0.993929 -0.633924
O10   O     O_3   0.804247 0.374672 0.751664 -0.664462
O11   O     O_3   0.982698 0.510644 0.175786 -0.618741
O12   O     O_R   0.500010 0.319680 0.381230 -0.492544
O13   O     O_3   0.018961 0.446591 0.806654 -0.677805
O14   O     O_3   0.180600 0.551918 0.701930 -0.590152
O15   O     O_3   0.655711 0.140057 0.359386 -0.599241
O16   O     O_3   0.658626 0.893837 0.359765 -0.632403
O17   O     O_3   0.296888 0.850058 0.696318 -0.626131
O18   O     O_R   0.348990 0.499960 0.599490 -0.438570
O19   O     O_R   0.349000 0.500000 0.361910 -0.487273
O20   O     O_R   0.499990 0.680320 0.618770 -0.474484
O21   O     O_R   0.500000 0.680360 0.381190 -0.513166
O22   O     O_R   0.651000 0.500000 0.638090 -0.445825
O23   O     O_R   0.651010 0.500040 0.400510 -0.526886
O24   O     O_3   0.815139 0.488739 0.281495 -0.610189

loop_
_geom_bond_atom_site_label_1
_geom_bond_atom_site_label_2
_ccdc_geom_bond_type
C7    C29   S    
C18   C21   A    
C28   O13   S    
C19   C20   A    
C6    O2    S    
Cu1   O22   S    
Cu2   O12   S    
C14   H13   S    
Cu2   N1    S    
C12   C23   A    
C12   C28   A    
C17   C26   A    
C24   O6    D    
C30   C31   A    
C9    C22   S    
C16   O22   A    
C23   C26   A    
C10   N2    A    
Cu2   O19   S    
C16   C17   S    
H7    O14   S    
C1    O12   A    
Cu1   O18   S    
H8    O15   S    
C2    O16   S    
C9    C10   A    
C8    N1    A    
H5    O11   S    
C11   N2    A    
C4    C18   S    
C13   C14   S    
C21   O14   S    
C13   C25   S    
C9    N1    A    
C7    O3    S    
C22   O4    D    
H3    O9    S    
Cu1   O1    S    
H4    O10   S    
C14   H12   S    
C5    C29   A    
C31   O15   S    
C26   O24   S    
C17   C27   A    
Cu1   O20   S    
C10   C24   S    
H16   O2    S    
C12   C21   A    
H9    O16   S    
H17   O3    S    
C2    C31   A    
H15   O24   S    
C19   C23   A    
C1    O1    A    
C29   C30   A    
Cu2   O23   S    
C19   O11   S    
C24   O7    S    
H18   O5    S    
C25   O8    D    
C27   O10   S    
C15   O20   A    
H10   O17   S    
C7    H1    S    
Cu1   N2    S    
C4    O19   A    
C3    C15   S    
C6    O17   S    
C8    C14   S    
C16   O23   A    
C3    C5    A    
C22   O5    S    
C6    C7    S    
Cu1   Cu2   S    
C2    C3    A    
C11   C13   S    
C5    C6    S    
C8    C11   A    
C1    C30   S    
H6    O13   S    
C18   C20   A    
C25   O9    S    
C13   H11   S    
C20   H14   S    
Cu2   O21   S    
C15   O21   A    
C27   C28   A    
H2    O7    S    
C4    O18   A    
