data_mof_unit_59003.cif
_audit_creation_date              2013-03-05T15:47:19-0500
_audit_creation_method            fapswitch 2.2
_symmetry_space_group_name_H-M    P1
_symmetry_Int_Tables_number       1
_space_group_crystal_system       triclinic
_cell_length_a                    19.61002
_cell_length_b                    11.353113
_cell_length_c                    18.696458
_cell_angle_alpha                 89.972326
_cell_angle_beta                  89.266878
_cell_angle_gamma                 89.962634
_cell_volume                      4162.13958812

loop_
_atom_site_label
_atom_site_type_symbol
_atom_site_description
_atom_site_fract_x
_atom_site_fract_y
_atom_site_fract_z
_atom_type_partial_charge
O1    O     O_R   0.214130 0.708570 0.829890 -0.494756
O2    O     O_R   0.785870 0.708570 0.170110 -0.495171
O3    O     O_R   0.714130 0.208570 0.829890 -0.496574
O4    O     O_R   0.285870 0.208570 0.170110 -0.494683
O5    O     O_R   0.236050 0.959150 0.825270 -0.506877
O6    O     O_R   0.763950 0.959150 0.174730 -0.506997
O7    O     O_R   0.736050 0.459150 0.825270 -0.506375
O8    O     O_R   0.263950 0.459150 0.174730 -0.506341
C1    C     C_R   0.271772 0.044868 0.853174 0.534031
C2    C     C_R   0.727690 0.042819 0.145723 0.530460
C3    C     C_R   0.771220 0.545507 0.852806 0.531220
C4    C     C_R   0.227488 0.542905 0.146018 0.533415
O9    O     O_R   0.332100 0.076650 0.832310 -0.522230
O10   O     O_R   0.667900 0.076650 0.167690 -0.523877
O11   O     O_R   0.832100 0.576650 0.832310 -0.524779
O12   O     O_R   0.167900 0.576650 0.167690 -0.522070
O13   O     O_R   0.446500 0.918620 0.826240 -0.414907
O14   O     O_R   0.553500 0.918620 0.173760 -0.420224
O15   O     O_R   0.946500 0.418620 0.826240 -0.413025
O16   O     O_R   0.053500 0.418620 0.173760 -0.427793
C5    C     C_R   0.443890 0.817270 0.862598 0.552581
C6    C     C_R   0.556074 0.817595 0.137387 0.549196
C7    C     C_R   0.943483 0.317108 0.862675 0.559511
C8    C     C_R   0.055950 0.317993 0.137456 0.545067
O17   O     O_R   0.457310 0.715830 0.831280 -0.510446
O18   O     O_R   0.542690 0.715830 0.168720 -0.511202
O19   O     O_R   0.957310 0.215830 0.831280 -0.506108
O20   O     O_R   0.042690 0.215830 0.168720 -0.511889
O21   O     O_R   0.321000 0.623520 0.824130 -0.535040
O22   O     O_R   0.679000 0.623520 0.175870 -0.536444
O23   O     O_R   0.821000 0.123520 0.824130 -0.538646
O24   O     O_R   0.179000 0.123520 0.175870 -0.534832
C9    C     C_R   0.264080 0.648755 0.856756 0.542792
C10   C     C_R   0.736468 0.646302 0.143777 0.536787
C11   C     C_R   0.762247 0.141255 0.854518 0.541487
C12   C     C_R   0.236776 0.145634 0.143979 0.538771
O25   O     O_R   0.213990 0.710040 0.667000 -0.509513
O26   O     O_R   0.786010 0.710040 0.333000 -0.512364
O27   O     O_R   0.713990 0.210040 0.667000 -0.510719
O28   O     O_R   0.286010 0.210040 0.333000 -0.511492
O29   O     O_R   0.235920 0.960520 0.674260 -0.448485
O30   O     O_R   0.764080 0.960520 0.325740 -0.447846
O31   O     O_R   0.735920 0.460520 0.674260 -0.448511
O32   O     O_R   0.264080 0.460520 0.325740 -0.448192
C13   C     C_R   0.273600 0.046241 0.647758 0.574403
C14   C     C_R   0.726397 0.046226 0.352256 0.575106
C15   C     C_R   0.773600 0.546241 0.647757 0.573880
C16   C     C_R   0.226398 0.546227 0.352256 0.574945
O33   O     O_R   0.331960 0.078120 0.669410 -0.548544
O34   O     O_R   0.668040 0.078120 0.330590 -0.547671
O35   O     O_R   0.831960 0.578120 0.669410 -0.548806
O36   O     O_R   0.168040 0.578120 0.330590 -0.547744
O37   O     O_R   0.446360 0.919990 0.675230 -0.499899
O38   O     O_R   0.553640 0.919990 0.324770 -0.500525
O39   O     O_R   0.946360 0.419990 0.675230 -0.499144
O40   O     O_R   0.053640 0.419990 0.324770 -0.502279
C17   C     C_R   0.469937 0.823654 0.646104 0.595697
C18   C     C_R   0.530057 0.823663 0.353884 0.593674
C19   C     C_R   0.969939 0.323655 0.646106 0.598501
C20   C     C_R   0.030059 0.323663 0.353886 0.590991
O41   O     O_R   0.457170 0.717300 0.668380 -0.515308
O42   O     O_R   0.542830 0.717300 0.331620 -0.515232
O43   O     O_R   0.957170 0.217300 0.668380 -0.514803
O44   O     O_R   0.042830 0.217300 0.331620 -0.515416
O45   O     O_R   0.320870 0.624890 0.673130 -0.519795
O46   O     O_R   0.679130 0.624890 0.326870 -0.519971
O47   O     O_R   0.820870 0.124890 0.673130 -0.520919
O48   O     O_R   0.179130 0.124890 0.326870 -0.519912
C21   C     C_R   0.263135 0.648649 0.640727 0.552408
C22   C     C_R   0.736877 0.648601 0.359254 0.549024
C23   C     C_R   0.763134 0.148648 0.640727 0.550278
C24   C     C_R   0.236876 0.148603 0.359255 0.549793
Cr1   Cr    Cr6+3 0.229620 0.836040 0.749110 1.075773
Cr2   Cr    Cr6+3 0.770380 0.836040 0.250890 1.072602
Cr3   Cr    Cr6+3 0.729620 0.336040 0.749110 1.073904
Cr4   Cr    Cr6+3 0.270380 0.336040 0.250890 1.074497
Cr5   Cr    Cr6+3 0.387630 0.990680 0.750730 1.072742
Cr6   Cr    Cr6+3 0.612370 0.990680 0.249270 1.069507
Cr7   Cr    Cr6+3 0.887630 0.490680 0.750730 1.073121
Cr8   Cr    Cr6+3 0.112370 0.490680 0.249270 1.067059
Cr9   Cr    Cr6+3 0.386020 0.676590 0.749210 0.993267
Cr10  Cr    Cr6+3 0.613980 0.676590 0.250790 0.991708
Cr11  Cr    Cr6+3 0.886020 0.176590 0.749210 0.993394
Cr12  Cr    Cr6+3 0.113980 0.176590 0.250790 0.991922
O49   O     O_3   0.334430 0.834430 0.749680 -0.329088
O50   O     O_3   0.665570 0.834430 0.250320 -0.326183
O51   O     O_3   0.834430 0.334430 0.749680 -0.327240
O52   O     O_3   0.165570 0.334430 0.250320 -0.325251
C25   C     C_3   0.483399 0.920656 0.034393 0.223152
C26   C     C_3   0.521134 0.914304 0.962112 0.230313
C27   C     C_3   0.989254 0.427614 0.030803 0.215844
C28   C     C_3   0.025546 0.406532 0.958887 0.231001
C29   C     C_3   0.431718 0.827618 0.009327 -0.203432
C30   C     C_3   0.568544 0.817059 0.990500 -0.202628
C31   C     C_3   0.932265 0.342150 0.009818 -0.210038
C32   C     C_3   0.067330 0.305060 0.991188 -0.196233
H1    H     H_    0.377647 0.821459 0.023977 0.103981
H2    H     H_    0.623151 0.806002 0.977991 0.100886
H3    H     H_    0.880902 0.349799 0.032234 0.110018
H4    H     H_    0.121874 0.290186 0.981374 0.103832
C33   C     C_3   0.470698 0.821610 0.936645 0.013111
C34   C     C_3   0.529449 0.823402 0.063288 0.005915
C35   C     C_3   0.969745 0.321005 0.937236 0.016884
C36   C     C_3   0.029387 0.325719 0.063562 0.000811
C37   C     C_3   0.517083 0.723372 0.965254 -0.145175
C38   C     C_3   0.478738 0.729493 0.037686 -0.145892
C39   C     C_3   0.010695 0.218268 0.969375 -0.139975
C40   C     C_3   0.973406 0.238892 0.041488 -0.145567
H5    H     H_    0.529343 0.639553 0.937501 0.151026
H6    H     H_    0.462122 0.650881 0.068439 0.152518
H7    H     H_    0.018899 0.130137 0.945053 0.148349
H8    H     H_    0.951985 0.167960 0.075709 0.153829
C41   C     C_3   0.312401 0.528981 0.043746 -0.227668
C42   C     C_3   0.682241 0.543126 0.953731 -0.230632
C43   C     C_3   0.809805 0.016148 0.040582 -0.225212
C44   C     C_3   0.185950 0.034469 0.955394 -0.229569
H9    H     H_    0.317551 0.434695 0.053482 0.138381
H10   H     H_    0.670670 0.449766 0.942726 0.140753
H11   H     H_    0.816409 0.925759 0.058376 0.141441
H12   H     H_    0.178912 0.940706 0.944244 0.139891
H13   H     H_    0.353875 0.570789 0.074622 0.126615
H14   H     H_    0.644350 0.595058 0.923379 0.129469
H15   H     H_    0.854027 0.062646 0.063858 0.122162
H16   H     H_    0.144940 0.080323 0.925662 0.133790
C45   C     C_3   0.322547 0.555621 0.963492 -0.233060
C46   C     C_3   0.673594 0.567629 0.034863 -0.231167
C47   C     C_3   0.814159 0.025392 0.958149 -0.238771
C48   C     C_3   0.176786 0.057961 0.036257 -0.232639
H17   H     H_    0.367647 0.613683 0.955872 0.139984
H18   H     H_    0.631977 0.631571 0.044421 0.137605
H19   H     H_    0.865480 0.059543 0.942735 0.147147
H20   H     H_    0.132290 0.116162 0.045940 0.141661
H21   H     H_    0.332892 0.472262 0.934014 0.129523
H22   H     H_    0.658185 0.484853 0.062598 0.132174
H23   H     H_    0.808831 0.937794 0.933233 0.116601
H24   H     H_    0.165587 0.973559 0.064327 0.129411
H25   H     H_    0.665658 0.943373 0.041094 0.086184
H26   H     H_    0.334647 0.943431 0.951286 0.088273
H27   H     H_    0.164238 0.441100 0.042927 0.085082
H28   H     H_    0.815433 0.425835 0.953257 0.087009
H29   H     H_    0.685078 0.965687 0.918709 0.150173
H30   H     H_    0.286950 0.939508 0.072788 0.115040
H31   H     H_    0.206488 0.447939 0.922189 0.137729
H32   H     H_    0.776482 0.435371 0.073935 0.108505
C49   C     C_3   0.181553 0.528131 0.026129 -0.215999
C50   C     C_3   0.810421 0.514972 0.972738 -0.217795
C51   C     C_3   0.678995 0.033802 0.027362 -0.217259
C52   C     C_3   0.317122 0.027299 0.972548 -0.210183
C53   C     C_3   0.243426 0.708987 0.059401 -0.254755
C54   C     C_3   0.763483 0.709603 0.942355 -0.255566
C55   C     C_3   0.749747 0.205318 0.056799 -0.253843
C56   C     C_3   0.258313 0.211175 0.941535 -0.258886
C57   C     C_3   0.242249 0.575731 0.071047 0.053769
C58   C     C_3   0.755309 0.577951 0.928026 0.058625
C59   C     C_3   0.742652 0.073385 0.069896 0.051021
C60   C     C_3   0.256972 0.078270 0.928303 0.055282
H33   H     H_    0.198108 0.752511 0.084271 0.141135
H34   H     H_    0.812505 0.742057 0.919243 0.146616
H35   H     H_    0.702825 0.253248 0.074137 0.137603
H36   H     H_    0.304247 0.252802 0.916762 0.140371
H37   H     H_    0.289183 0.746303 0.085085 0.119164
H38   H     H_    0.721914 0.760486 0.917009 0.116669
H39   H     H_    0.792993 0.240058 0.088273 0.115910
H40   H     H_    0.213432 0.252794 0.916690 0.126867
C61   C     C_3   0.258005 0.616617 0.933925 0.024016
C62   C     C_3   0.741465 0.615048 0.066192 0.040077
C63   C     C_3   0.756875 0.108572 0.931656 0.029674
C64   C     C_3   0.242464 0.114506 0.066364 0.032518
C65   C     C_3   0.197471 0.535756 0.946027 -0.230791
C66   C     C_3   0.795059 0.520806 0.053321 -0.255067
C67   C     C_3   0.688488 0.051258 0.947143 -0.220070
C68   C     C_3   0.300395 0.027990 0.052809 -0.249090
C69   C     C_3   0.243720 0.730649 0.977750 -0.239537
C70   C     C_3   0.763572 0.727144 0.024095 -0.233894
C71   C     C_3   0.762439 0.223423 0.975637 -0.236622
C72   C     C_3   0.259418 0.229215 0.023641 -0.236975
H41   H     H_    0.281178 0.795874 0.962969 0.102125
H42   H     H_    0.730297 0.800402 0.039133 0.102303
H43   H     H_    0.815530 0.249894 0.966953 0.104199
H44   H     H_    0.224905 0.298788 0.040179 0.103439
H45   H     H_    0.192405 0.762794 0.963504 0.147771
H46   H     H_    0.817030 0.746348 0.039154 0.162663
H47   H     H_    0.727143 0.290924 0.955585 0.138283
H48   H     H_    0.312200 0.254577 0.037546 0.154732
H49   H     H_    0.633356 0.086009 0.044070 0.195237
H50   H     H_    0.363277 0.083332 0.964283 0.194786
H51   H     H_    0.135656 0.583566 0.036919 0.197044
H52   H     H_    0.861283 0.556174 0.962853 0.186208
H53   H     H_    0.154541 0.579150 0.919835 0.225685
H54   H     H_    0.841783 0.542840 0.082271 0.205790
H55   H     H_    0.648384 0.112413 0.928514 0.220814
H56   H     H_    0.344585 0.059753 0.081779 0.220328
C73   C     C_3   0.506802 0.705765 0.460980 -0.243669
C74   C     C_3   0.493184 0.705770 0.539035 -0.243812
C75   C     C_3   0.006804 0.205766 0.460981 -0.243389
C76   C     C_3   0.993186 0.205771 0.539036 -0.244124
H57   H     H_    0.553329 0.657074 0.449575 0.132403
H58   H     H_    0.446630 0.657229 0.550442 0.132207
H59   H     H_    0.053328 0.157073 0.449575 0.132492
H60   H     H_    0.946632 0.157230 0.550443 0.132120
H61   H     H_    0.467523 0.654429 0.434644 0.213830
H62   H     H_    0.532434 0.654303 0.565394 0.213953
H63   H     H_    0.967522 0.154433 0.434646 0.213879
H64   H     H_    0.032436 0.154304 0.565395 0.213835
H65   H     H_    0.613632 0.898402 0.447949 0.106396
H66   H     H_    0.386345 0.898360 0.551979 0.106210
H67   H     H_    0.113633 0.398409 0.447952 0.106632
H68   H     H_    0.886347 0.398359 0.551982 0.106066
H69   H     H_    0.601768 0.832683 0.569699 0.168478
H70   H     H_    0.398234 0.832741 0.430258 0.168232
H71   H     H_    0.101769 0.332686 0.569702 0.168615
H72   H     H_    0.898236 0.332741 0.430261 0.168086
C77   C     C_3   0.562858 0.908007 0.470676 -0.242939
C78   C     C_3   0.437107 0.908033 0.529257 -0.243036
C79   C     C_3   0.062859 0.408010 0.470679 -0.242888
C80   C     C_3   0.937109 0.408033 0.529259 -0.243063
C81   C     C_3   0.440374 0.889308 0.447099 -0.257892
C82   C     C_3   0.559597 0.889255 0.552838 -0.257437
C83   C     C_3   0.940376 0.389309 0.447101 -0.258320
C84   C     C_3   0.059598 0.389257 0.552841 -0.256965
C85   C     C_3   0.509603 0.831798 0.430518 0.060987
C86   C     C_3   0.490389 0.831794 0.569455 0.060541
C87   C     C_3   0.009605 0.331799 0.430520 0.061636
C88   C     C_3   0.990391 0.331795 0.569457 0.059938
H73   H     H_    0.435335 0.974971 0.418754 0.119040
H74   H     H_    0.564599 0.974909 0.581141 0.119719
H75   H     H_    0.935337 0.474972 0.418757 0.118036
H76   H     H_    0.064600 0.474910 0.581144 0.120466
H77   H     H_    0.452495 0.000354 0.539442 0.126956
H78   H     H_    0.547450 0.000361 0.460443 0.127000
H79   H     H_    0.952495 0.500355 0.539445 0.126941
H80   H     H_    0.047452 0.500364 0.460446 0.127004
C89   C     C_3   0.174875 0.654750 0.457796 -0.141754
C90   C     C_3   0.825080 0.654749 0.542191 -0.141788
C91   C     C_3   0.674872 0.154743 0.457800 -0.141820
C92   C     C_3   0.325080 0.154745 0.542190 -0.141874
H81   H     H_    0.134874 0.590339 0.458256 0.137689
H82   H     H_    0.865094 0.590322 0.541814 0.137941
H83   H     H_    0.634874 0.090326 0.458262 0.137682
H84   H     H_    0.365092 0.090315 0.541813 0.137928
C93   C     C_3   0.187313 0.679935 0.536206 -0.235094
C94   C     C_3   0.812665 0.679830 0.463757 -0.234824
C95   C     C_3   0.687312 0.179930 0.536209 -0.234896
C96   C     C_3   0.312665 0.179827 0.463756 -0.234843
H85   H     H_    0.189261 0.772725 0.545713 0.145821
H86   H     H_    0.810699 0.772612 0.454133 0.146324
H87   H     H_    0.689260 0.272721 0.545715 0.145975
H88   H     H_    0.310701 0.272610 0.454132 0.146230
H89   H     H_    0.142182 0.649083 0.568013 0.134527
H90   H     H_    0.857814 0.648870 0.432003 0.133454
H91   H     H_    0.642182 0.149078 0.568017 0.134274
H92   H     H_    0.357812 0.148862 0.432001 0.133857
H93   H     H_    0.717671 0.895850 0.453024 0.093769
H94   H     H_    0.282336 0.895787 0.547163 0.093627
H95   H     H_    0.217672 0.395851 0.453022 0.093708
H96   H     H_    0.782338 0.395785 0.547164 0.093766
H97   H     H_    0.692528 0.960784 0.572792 0.126169
H98   H     H_    0.307498 0.960653 0.427312 0.125597
H99   H     H_    0.192525 0.460789 0.572789 0.126949
H100  H     H_    0.807506 0.460658 0.427315 0.125014
C97   C     C_3   0.248299 0.470242 0.470300 -0.255575
C98   C     C_3   0.751743 0.470243 0.529794 -0.254830
C99   C     C_3   0.748299 0.970240 0.470301 -0.255390
C100  C     C_3   0.251740 0.970245 0.529795 -0.255049
C101  C     C_3   0.300175 0.664708 0.435826 0.064782
C102  C     C_3   0.699786 0.664757 0.564134 0.064266
C103  C     C_3   0.800173 0.164708 0.435828 0.064892
C104  C     C_3   0.199787 0.164764 0.564137 0.063931
C105  C     C_3   0.237881 0.585707 0.425856 0.057848
C106  C     C_3   0.762115 0.585731 0.574153 0.057968
C107  C     C_3   0.737879 0.085705 0.425857 0.057724
C108  C     C_3   0.262115 0.085733 0.574153 0.057792
H101  H     H_    0.286076 0.756981 0.423995 0.098918
H102  H     H_    0.713842 0.757021 0.575917 0.098969
H103  H     H_    0.786073 0.256981 0.423997 0.098806
H104  H     H_    0.213846 0.257027 0.575918 0.099098
C109  C     C_3   0.253783 0.620089 0.563346 0.013752
C110  C     C_3   0.746218 0.620030 0.436647 0.014648
C111  C     C_3   0.753783 0.120086 0.563347 0.014339
C112  C     C_3   0.246216 0.120032 0.436648 0.014505
C113  C     C_3   0.242232 0.490641 0.550777 -0.293529
C114  C     C_3   0.757792 0.490559 0.449300 -0.294328
C115  C     C_3   0.742233 0.990638 0.550778 -0.293888
C116  C     C_3   0.257786 0.990561 0.449300 -0.294067
C117  C     C_3   0.317770 0.657638 0.516808 -0.236266
C118  C     C_3   0.682213 0.657669 0.483147 -0.235825
C119  C     C_3   0.817769 0.157638 0.516809 -0.235935
C120  C     C_3   0.182212 0.157676 0.483150 -0.236025
H105  H     H_    0.339756 0.738857 0.535940 0.083984
H106  H     H_    0.660210 0.738883 0.463926 0.084342
H107  H     H_    0.839755 0.238856 0.535942 0.084044
H108  H     H_    0.160210 0.238890 0.463929 0.084340
H109  H     H_    0.356111 0.587226 0.523301 0.153775
H110  H     H_    0.643916 0.587279 0.476704 0.153757
H111  H     H_    0.856111 0.087228 0.523302 0.153768
H112  H     H_    0.143915 0.087288 0.476709 0.153778
H113  H     H_    0.301289 0.444629 0.460749 0.189780
H114  H     H_    0.698766 0.444717 0.539371 0.189814
H115  H     H_    0.801289 0.944629 0.460749 0.189752
H116  H     H_    0.198762 0.944722 0.539375 0.189829
H117  H     H_    0.282249 0.443050 0.577039 0.143756
H118  H     H_    0.717790 0.442936 0.423069 0.143389
H119  H     H_    0.782252 0.943050 0.577039 0.143707
H120  H     H_    0.217779 0.942946 0.423072 0.143451
N1    N     N_R   0.468185 0.025924 0.076722 0.059751
O53   O     O_R   0.490773 0.128512 0.056789 -0.323650
O54   O     O_R   0.441496 0.014718 0.140481 -0.333331
N2    N     N_R   0.540686 0.010083 0.914105 0.060474
O55   O     O_R   0.509560 0.110989 0.918373 -0.310856
O56   O     O_R   0.573887 0.984613 0.855361 -0.341009
N3    N     N_R   0.978843 0.541134 0.066440 0.066382
O57   O     O_R   0.001710 0.638036 0.037961 -0.325731
O58   O     O_R   0.951341 0.545094 0.130050 -0.334250
N4    N     N_R   0.050105 0.490379 0.905716 0.056401
O59   O     O_R   0.022696 0.594471 0.901786 -0.300112
O60   O     O_R   0.083734 0.450185 0.850356 -0.338513
C121  C     C_R   0.141689 0.759440 0.418125 0.021743
C122  C     C_R   0.080324 0.804780 0.446646 -0.125176
C123  C     C_R   0.042407 0.888472 0.409390 -0.128221
C124  C     C_R   0.063804 0.925964 0.341826 -0.066499
C125  C     C_R   0.124606 0.883346 0.312458 -0.086938
C126  C     C_R   0.164055 0.803035 0.350570 -0.067299
H121  H     H_    0.061127 0.772700 0.497459 0.102517
H122  H     H_    0.995619 0.922666 0.432281 0.149503
H123  H     H_    0.033339 0.988232 0.312276 0.171735
H124  H     H_    0.141761 0.913690 0.260369 0.131301
H125  H     H_    0.212275 0.776507 0.326997 0.135541
C127  C     C_R   0.858246 0.759404 0.581805 0.021477
C128  C     C_R   0.919568 0.804744 0.553225 -0.125018
C129  C     C_R   0.957482 0.888349 0.590446 -0.127894
C130  C     C_R   0.936128 0.925752 0.658031 -0.066950
C131  C     C_R   0.875378 0.883130 0.687463 -0.087524
C132  C     C_R   0.835932 0.802909 0.649392 -0.067069
H126  H     H_    0.938737 0.772736 0.502391 0.102495
H127  H     H_    0.004238 0.922556 0.567519 0.149138
H128  H     H_    0.966582 0.987973 0.687542 0.171641
H129  H     H_    0.858249 0.913423 0.739564 0.130330
H130  H     H_    0.787726 0.776443 0.672994 0.136002
C133  C     C_R   0.641678 0.259430 0.418134 0.021797
C134  C     C_R   0.580312 0.304757 0.446660 -0.125097
C135  C     C_R   0.542392 0.388457 0.409414 -0.128068
C136  C     C_R   0.563787 0.425969 0.341854 -0.066582
C137  C     C_R   0.624588 0.383362 0.312481 -0.087150
C138  C     C_R   0.664040 0.303039 0.350582 -0.067325
H131  H     H_    0.561118 0.272663 0.497471 0.102474
H132  H     H_    0.495604 0.422645 0.432308 0.149501
H133  H     H_    0.533321 0.488246 0.312312 0.171732
H134  H     H_    0.641743 0.413726 0.260397 0.131265
H135  H     H_    0.712259 0.276518 0.327007 0.135050
C139  C     C_R   0.358250 0.259398 0.581800 0.021075
C140  C     C_R   0.419573 0.304728 0.553218 -0.125054
C141  C     C_R   0.457489 0.388335 0.590436 -0.128025
C142  C     C_R   0.436137 0.425748 0.658018 -0.067314
C143  C     C_R   0.375387 0.383132 0.687453 -0.086736
C144  C     C_R   0.335938 0.302910 0.649386 -0.066705
H136  H     H_    0.438740 0.272711 0.502387 0.102592
H137  H     H_    0.504246 0.422537 0.567508 0.149169
H138  H     H_    0.466593 0.487969 0.687527 0.171547
H139  H     H_    0.358260 0.413431 0.739552 0.132422
H140  H     H_    0.287732 0.276449 0.672990 0.137543
N5    N     N_R   0.356218 0.631529 0.386705 0.030911
O61   O     O_R   0.369141 0.697694 0.331293 -0.359542
O62   O     O_R   0.384520 0.527909 0.389446 -0.405401
N6    N     N_R   0.643765 0.631592 0.613284 0.030540
O63   O     O_R   0.630868 0.697689 0.668706 -0.355953
O64   O     O_R   0.615512 0.527990 0.610595 -0.405365
N7    N     N_R   0.856217 0.131530 0.386708 0.031152
O65   O     O_R   0.869140 0.197697 0.331297 -0.362984
O66   O     O_R   0.884519 0.027911 0.389448 -0.405268
N8    N     N_R   0.143767 0.131605 0.613289 0.030246
O67   O     O_R   0.130874 0.197704 0.668712 -0.349904
O68   O     O_R   0.115512 0.028007 0.610601 -0.405490

loop_
_geom_bond_atom_site_label_1
_geom_bond_atom_site_label_2
_geom_bond_distance
_ccdc_geom_bond_type
O4    C12   1.299760 A    
H96   C98   1.088144 S    
C80   C83   1.551306 S    
Cr7   O51   2.058772 S    
H71   C84   1.096145 S    
C103  H103  1.106246 S    
C103  C119  1.559198 S    
C122  H121  1.080565 S    
C93   H85   1.069222 S    
O39   C19   1.303829 A    
C136  H133  1.081396 S    
C31   H3    1.089405 S    
C75   H63   1.089042 S    
C91   C107  1.574138 S    
O21   C9    1.297077 A    
C12   C64   1.496457 S    
C73   H61   1.089040 S    
C1    O9    1.292497 A    
O44   Cr12  2.095246 S    
C78   C86   1.556926 S    
C3    C58   1.483227 S    
C3    O11   1.298399 A    
C7    C35   1.492966 S    
C56   C60   1.529446 S    
C1    C60   1.480213 S    
C31   C35   1.553670 S    
C128  H126  1.080569 S    
C55   C59   1.523784 S    
C76   H64   1.088830 S    
C51   C59   1.555348 S    
C111  C115  1.506147 S    
C73   C74   1.480228 S    
C74   C86   1.540598 S    
O2    C10   1.301585 A    
C104  C120  1.559307 S    
O17   Cr9   2.136277 S    
C90   C106  1.574031 S    
C28   N4    1.453873 S    
C4    C57   1.475368 S    
C61   C65   1.515725 S    
C62   C70   1.555011 S    
C43   H15   1.109304 S    
C129  C130  1.392509 A    
O16   Cr8   2.009772 S    
C103  N7    1.472110 S    
C89   C121  1.548169 S    
H99   C113  1.106530 S    
C93   H89   1.116377 S    
C134  C135  1.397341 A    
C29   C33   1.552076 S    
C136  C137  1.392820 A    
C63   C67   1.515493 S    
N4    O59   1.300363 A    
C54   C58   1.527511 S    
O13   C5    1.336826 A    
O28   Cr4   2.122815 S    
O12   Cr8   2.102920 S    
O22   Cr10  1.976089 S    
O15   C7    1.339425 A    
C80   C88   1.556925 S    
C127  C132  1.420701 A    
C93   C109  1.559996 S    
O46   Cr10  2.011164 S    
C50   C58   1.549061 S    
O48   C24   1.318904 A    
C141  C142  1.392498 A    
C91   C95   1.516570 S    
C76   C88   1.540599 S    
C32   C36   1.553675 S    
C94   C110  1.560148 S    
O31   Cr3   1.991180 S    
C71   H47   1.101167 S    
C72   H48   1.108690 S    
C97   H113  1.091398 S    
C138  H135  1.080808 S    
O36   Cr8   2.129371 S    
Cr12  O52   2.058366 S    
C71   H43   1.093920 S    
C17   O41   1.300508 A    
C19   O43   1.300508 A    
C22   C110  1.496245 S    
C20   O44   1.300622 A    
O1    Cr1   2.110527 S    
Cr8   O52   2.057583 S    
C79   C84   1.551236 S    
C15   C106  1.467215 S    
O46   C22   1.318908 A    
C119  H111  1.104776 S    
C120  H112  1.104687 S    
C42   C58   1.556709 S    
C139  C140  1.407348 A    
C47   H19   1.113200 S    
C44   C60   1.557615 S    
C19   C88   1.486031 S    
C114  H118  1.076488 S    
C75   C76   1.480226 S    
C45   H17   1.111046 S    
C16   O36   1.271224 A    
C46   H22   1.113213 S    
C125  C126  1.396465 A    
C99   C115  1.525598 S    
C46   H18   1.104793 S    
C35   C39   1.541698 S    
C78   H77   1.108140 S    
O31   C15   1.315193 A    
C82   H74   1.112297 S    
O32   C16   1.314829 A    
C111  C119  1.576607 S    
O47   Cr11  2.012051 S    
C140  C141  1.397432 A    
C65   H53   1.095918 S    
C70   H46   1.110709 S    
N8    O67   1.301771 A    
C68   H56   1.089467 S    
O24   C12   1.298129 A    
O40   C20   1.303759 A    
C90   H82   1.072327 S    
C42   C46   1.549480 S    
C117  H105  1.081137 S    
H29   C67   1.110133 S    
N6    O63   1.301769 A    
C118  H110  1.104694 S    
O32   Cr4   1.992023 S    
C53   C57   1.528503 S    
C121  C126  1.420602 A    
O11   Cr7   2.102948 S    
H95   C97   1.088230 S    
H26   C52   1.085909 S    
N1    O54   1.301967 A    
C39   C40   1.543437 S    
O27   Cr3   2.124083 S    
O3    Cr3   2.110527 S    
C130  H128  1.081403 S    
C97   C105  1.566390 S    
C101  C117  1.559203 S    
H93   C99   1.088232 S    
C99   C107  1.566388 S    
C133  C138  1.420581 A    
H94   C100  1.088150 S    
C77   C85   1.557182 S    
C18   C85   1.485816 S    
N2    O56   1.302132 A    
C75   H59   1.085331 S    
C95   H91   1.116379 S    
O22   C10   1.296093 A    
C79   H80   1.108212 S    
C4    O12   1.289895 A    
C131  C132  1.396470 A    
C2    O10   1.295437 A    
C27   C28   1.532090 S    
C109  C117  1.576611 S    
C23   C111  1.496376 S    
C44   H12   1.093994 S    
C24   C112  1.496243 S    
C55   H35   1.113427 S    
C45   C61   1.550309 S    
O5    C1    1.311743 A    
C29   C38   1.543696 S    
O25   C21   1.281868 A    
O3    C11   1.302399 A    
O8    C4    1.308447 A    
C104  H104  1.106292 S    
C42   H10   1.104075 S    
Cr1   O49   2.055561 S    
C90   C94   1.516397 S    
C97   C113  1.525594 S    
C101  H101  1.106247 S    
C62   C66   1.516418 S    
C43   H11   1.086806 S    
C129  H127  1.079585 S    
N3    O58   1.300339 A    
C41   H9    1.090559 S    
C91   C133  1.548159 S    
C134  H131  1.080562 S    
C20   C87   1.485824 S    
C29   H1    1.094027 S    
C90   C127  1.548366 S    
O26   Cr2   2.122815 S    
Cr3   O51   2.055561 S    
C64   C72   1.561194 S    
C5    O17   1.317092 A    
O27   C23   1.281868 A    
O28   C24   1.282296 A    
O14   C6    1.334278 A    
C39   H7    1.110029 S    
C9    C61   1.491335 S    
C100  H116  1.091290 S    
C127  C128  1.407356 A    
C2    C59   1.485051 S    
C77   C82   1.551232 S    
O40   Cr8   1.980297 S    
O41   Cr9   2.095323 S    
H66   C78   1.082927 S    
C74   H58   1.085438 S    
C53   H33   1.113205 S    
C139  C144  1.420686 A    
C32   H4    1.095916 S    
O33   Cr5   2.128022 S    
C63   C71   1.546531 S    
C25   C29   1.541568 S    
O35   Cr7   2.128022 S    
O29   Cr1   1.991180 S    
C72   H44   1.082461 S    
C41   H13   1.110312 S    
C100  C108  1.566536 S    
C143  C144  1.396465 A    
C98   H114  1.091289 S    
H97   C115  1.106532 S    
H98   C116  1.106387 S    
Cr9   O49   2.057224 S    
C81   H73   1.112276 S    
C18   O42   1.300619 A    
C13   C108  1.467216 S    
Cr11  O51   2.057224 S    
O26   C22   1.282292 A    
C30   C37   1.544857 S    
O20   Cr12  2.135586 S    
C137  C138  1.396468 A    
C142  C143  1.392804 A    
N5    O62   1.301692 A    
C94   H86   1.069296 S    
H70   C81   1.096358 S    
C49   H51   1.114273 S    
C120  H108  1.081004 S    
C50   H52   1.115160 S    
C47   H23   1.103998 S    
C48   H24   1.112959 S    
O38   C18   1.303761 A    
C30   H2    1.100267 S    
N4    O60   1.302717 A    
C125  H124  1.082468 S    
C74   H62   1.088831 S    
H32   C66   1.103884 S    
C80   H79   1.108141 S    
C84   H76   1.112297 S    
O30   C14   1.314835 A    
C101  C105  1.529356 S    
C37   H5    1.108865 S    
C103  C107  1.529360 S    
H27   C49   1.089778 S    
C66   H54   1.099187 S    
O6    Cr2   1.999852 S    
C99   H115  1.091395 S    
C70   H42   1.091523 S    
C73   C85   1.540546 S    
O42   Cr10  2.095246 S    
C69   H45   1.105905 S    
O18   Cr10  2.135586 S    
C81   C85   1.534188 S    
O24   Cr12  1.976089 S    
O34   Cr6   2.129371 S    
C26   C30   1.541322 S    
C104  N8    1.472218 S    
C17   C86   1.486037 S    
C54   H38   1.109865 S    
C49   C65   1.528324 S    
O30   Cr2   1.992023 S    
C55   C71   1.548198 S    
C118  H106  1.081010 S    
O48   Cr12  2.011164 S    
C8    O20   1.323040 A    
H28   C50   1.079689 S    
O37   C17   1.303830 A    
C15   O35   1.271669 A    
Cr10  O50   2.058366 S    
C92   C108  1.574025 S    
C40   H8    1.107876 S    
O43   Cr11  2.095323 S    
C94   H90   1.116362 S    
C131  H129  1.082489 S    
O37   Cr5   1.980238 S    
C130  C131  1.392807 A    
C112  C120  1.576588 S    
O21   Cr9   1.976186 S    
C25   N1    1.462209 S    
C98   C106  1.566535 S    
O39   Cr7   1.980238 S    
C102  C118  1.559304 S    
O45   Cr9   2.012051 S    
C133  C134  1.407281 A    
C13   O33   1.271668 A    
O13   Cr5   2.008603 S    
O23   Cr11  1.976186 S    
C67   H55   1.108116 S    
N7    O66   1.301691 A    
C124  H123  1.081395 S    
O15   Cr7   2.008603 S    
C32   C39   1.544063 S    
C95   H87   1.069229 S    
C100  C116  1.525558 S    
O23   C11   1.293773 A    
C53   H37   1.107675 S    
C95   C111  1.559989 S    
C36   C40   1.536421 S    
C109  C113  1.506151 S    
C123  H122  1.079524 S    
C44   H16   1.112373 S    
C140  H136  1.080563 S    
C91   H83   1.072712 S    
H25   C51   1.089360 S    
C46   C62   1.557414 S    
O6    C2    1.307880 A    
N8    O68   1.301730 A    
C135  H132  1.079518 S    
H72   C83   1.096361 S    
C37   C38   1.542125 S    
C54   H34   1.111891 S    
C89   H81   1.072724 S    
O19   Cr11  2.136277 S    
O29   C13   1.315193 A    
C98   C114  1.525553 S    
C132  H130  1.080835 S    
C102  H102  1.106297 S    
O45   C21   1.318574 A    
N6    O64   1.301746 A    
O47   C23   1.318571 A    
C83   C87   1.534190 S    
C123  C124  1.392510 A    
C96   H88   1.069308 S    
C64   C68   1.520192 S    
N1    O53   1.299083 A    
C6    O18   1.320116 A    
C52   C60   1.560156 S    
C83   H75   1.112275 S    
C25   C26   1.534114 S    
C10   C62   1.495472 S    
C61   C69   1.555817 S    
C77   H78   1.108212 S    
O38   Cr6   1.980297 S    
N3    O57   1.299564 A    
C56   H36   1.113078 S    
C14   C107  1.467595 S    
C25   C34   1.528750 S    
C92   C139  1.548349 S    
C128  C129  1.397431 A    
C102  N6    1.472217 S    
N7    O65   1.301754 A    
C28   C32   1.540786 S    
C27   C36   1.530751 S    
C76   H60   1.085443 S    
O1    C9    1.297818 A    
C135  C136  1.392497 A    
C51   H49   1.114536 S    
O7    C3    1.308586 A    
H69   C82   1.096150 S    
C89   C105  1.574133 S    
C26   N2    1.458022 S    
C41   C45   1.540938 S    
C101  N5    1.472110 S    
C143  H139  1.082473 S    
C96   C112  1.560138 S    
C43   C47   1.545981 S    
C28   C35   1.522238 S    
O16   C8    1.329661 A    
C11   C63   1.491440 S    
H65   C77   1.083007 S    
C7    O19   1.317699 A    
C45   H21   1.112626 S    
Cr4   O52   2.055581 S    
C142  H138  1.081404 S    
O2    Cr2   2.111258 S    
O14   Cr6   2.009772 S    
C49   C57   1.562337 S    
Cr6   O50   2.057583 S    
C144  H140  1.080836 S    
H68   C80   1.082927 S    
C141  H137  1.079580 S    
O5    Cr1   2.000928 S    
C48   H20   1.107283 S    
H67   C79   1.083003 S    
C51   C67   1.521827 S    
C82   C86   1.534330 S    
C52   H50   1.115724 S    
C33   C37   1.538813 S    
O9    Cr5   2.102948 S    
C104  C108  1.529139 S    
H31   C65   1.105478 S    
C102  C106  1.529139 S    
O7    Cr3   2.000928 S    
C27   C31   1.535350 S    
C92   H84   1.072320 S    
C8    C36   1.485254 S    
C56   C72   1.549226 S    
C26   C33   1.525225 S    
C122  C123  1.397337 A    
C126  H125  1.080811 S    
C69   H41   1.076861 S    
C21   C109  1.496389 S    
Cr2   O50   2.055581 S    
C56   H40   1.106040 S    
C31   C40   1.544698 S    
C89   C93   1.516580 S    
C54   C70   1.541272 S    
C16   C105  1.467587 S    
C55   H39   1.111075 S    
C50   C66   1.534117 S    
O8    Cr4   1.999852 S    
C44   C48   1.543542 S    
C119  H107  1.081138 S    
C113  H117  1.076060 S    
C84   C88   1.534327 S    
N2    O55   1.299706 A    
H30   C68   1.102544 S    
C38   H6    1.108331 S    
C115  H119  1.076055 S    
O25   Cr1   2.124083 S    
C116  H120  1.076489 S    
C96   H92   1.116364 S    
C43   C59   1.561264 S    
C110  C118  1.576581 S    
C112  C116  1.506202 S    
C41   C57   1.554368 S    
C78   C81   1.551309 S    
C79   C87   1.557190 S    
H100  C114  1.106380 S    
C27   N3    1.464114 S    
N5    O61   1.301758 A    
C14   O34   1.271221 A    
C6    C34   1.488159 S    
C124  C125  1.392826 A    
C92   C96   1.516392 S    
C5    C33   1.488000 S    
C75   C87   1.540541 S    
C73   H57   1.085335 S    
C52   C68   1.531955 S    
C34   C38   1.539087 S    
C53   C69   1.546079 S    
O10   Cr6   2.102920 S    
C121  C122  1.407281 A    
O4    Cr4   2.111258 S    
Cr5   O49   2.058772 S    
C42   H14   1.109799 S    
C47   C63   1.552884 S    
C110  C114  1.506206 S    
C117  H109  1.104774 S    
C48   C64   1.551697 S    
C137  H134  1.082458 S    
C30   C34   1.555071 S    
