data_mof_unit_44414.cif
_audit_creation_date              2012-12-11T17:00:15-0500
_audit_creation_method            fapswitch 2.2
_symmetry_space_group_name_H-M    P1
_symmetry_Int_Tables_number       1
_space_group_crystal_system       triclinic
_cell_length_a                    6.964544
_cell_length_b                    13.568689
_cell_length_c                    20.263111
_cell_angle_alpha                 103.046637
_cell_angle_beta                  90.333011
_cell_angle_gamma                 90.190691
_cell_volume                      1865.37694499

loop_
_atom_site_label
_atom_site_type_symbol
_atom_type_description
_atom_site_fract_x
_atom_site_fract_y
_atom_site_fract_z
_atom_type_partial_charge
O1    O     O_R   0.506770 0.599700 0.449550 -0.538740
O2    O     O_R   0.179980 0.595740 0.587960 -0.545701
O3    O     O_R   0.004580 0.400300 0.550450 -0.538485
C1    C     C_R   0.348253 0.616577 0.615445 0.693711
O4    O     O_R   0.177380 0.611700 0.452380 -0.540521
O5    O     O_R   0.001970 0.416370 0.413900 -0.541886
C2    C     C_R   0.345565 0.638296 0.435658 0.695161
O6    O     O_R   0.509390 0.583630 0.586100 -0.537953
O7    O     O_3   0.337530 0.435890 0.487530 -0.370536
V1    V     V_3+5 0.064660 0.511890 0.502310 1.409435
O8    O     O_R   0.671950 0.404260 0.412040 -0.541263
C3    C     C_R   0.840341 0.383089 0.384677 0.693697
O9    O     O_R   0.674540 0.388300 0.547620 -0.540717
C4    C     C_R   0.843719 0.361734 0.564289 0.694484
V2    V     V_3+5 0.564030 0.488110 0.497690 1.412840
O10   O     O_3   0.841030 0.564110 0.512470 -0.370571
C5    C     C_R   0.918002 0.112612 0.611313 -0.159451
H1    H     H_    0.911100 0.162338 0.518077 0.103077
H2    H     H_    0.960515 0.989398 0.694838 0.124118
H3    H     H_    0.949406 0.035203 0.585881 0.111814
C6    C     C_R   0.855136 0.284672 0.604119 -0.030986
C7    C     C_R   0.818275 0.315391 0.930416 -0.168987
C8    C     C_R   0.796246 0.390873 0.894753 -0.119314
C9    C     C_R   0.810853 0.368368 0.824385 -0.158859
C10   C     C_R   0.849364 0.268589 0.787572 0.077460
C11   C     C_R   0.875285 0.191898 0.824696 0.069379
C12   C     C_R   0.862377 0.242249 0.715319 0.072798
C13   C     C_R   0.902670 0.140394 0.682151 0.142638
C14   C     C_R   0.929065 0.067045 0.719780 -0.207314
C15   C     C_R   0.916081 0.092297 0.789858 -0.199269
C16   C     C_R   0.837780 0.313394 0.674576 -0.215976
C17   C     C_R   0.895585 0.184540 0.572592 -0.174007
C18   C     C_R   0.857955 0.216244 0.896174 -0.075239
H4    H     H_    0.803387 0.334223 0.985033 0.100003
H5    H     H_    0.765918 0.467524 0.921835 0.116318
H6    H     H_    0.939271 0.032855 0.816677 0.117574
C19   C     C_R   0.710906 0.181161 0.227370 0.119522
C20   C     C_R   0.867073 0.183250 0.184458 -0.114472
C21   C     C_R   0.022194 0.247272 0.210732 -0.186852
H7    H     H_    0.144822 0.252269 0.179288 0.136971
C22   C     C_R   0.014713 0.310855 0.276103 -0.177689
H8    H     H_    0.132278 0.362735 0.293130 0.130242
C23   C     C_R   0.851511 0.312631 0.317157 -0.112991
C24   C     C_R   0.703290 0.244245 0.292102 0.104771
C25   C     C_3   0.495673 0.265445 0.284843 -0.414299
C26   C     C_3   0.504103 0.197414 0.214426 -0.407297
H9    H     H_    0.469211 0.346136 0.284618 0.164267
H10   H     H_    0.405560 0.234057 0.320387 0.174843
H11   H     H_    0.482990 0.238495 0.173271 0.166747
H12   H     H_    0.417877 0.127316 0.209287 0.169218
C27   C     C_R   0.504308 0.753181 0.704868 0.099118
C28   C     C_R   0.351629 0.686440 0.683251 -0.112336
C29   C     C_R   0.193568 0.691681 0.727170 -0.171818
H13   H     H_    0.072692 0.641212 0.712631 0.130310
C30   C     C_R   0.195558 0.756815 0.792103 -0.189307
H14   H     H_    0.076816 0.754749 0.825822 0.131801
C31   C     C_R   0.356133 0.818206 0.815182 -0.112575
C32   C     C_R   0.506917 0.817050 0.769381 0.119612
C33   C     C_3   0.715198 0.798888 0.778459 -0.409303
C34   C     C_3   0.712170 0.729944 0.708183 -0.409919
H15   H     H_    0.741564 0.757983 0.819377 0.168320
H16   H     H_    0.802964 0.868179 0.781578 0.169990
H17   H     H_    0.737147 0.649067 0.708239 0.164195
H18   H     H_    0.797225 0.759854 0.670681 0.174872
C35   C     C_R   0.300669 0.888729 0.388338 -0.160135
H19   H     H_    0.298330 0.839211 0.481613 0.103270
H20   H     H_    0.267559 0.012018 0.304512 0.123994
H21   H     H_    0.273783 0.966726 0.413610 0.111911
C36   C     C_R   0.350261 0.715660 0.395925 -0.032070
C37   C     C_R   0.394803 0.683026 0.069526 -0.167649
C38   C     C_R   0.407792 0.607124 0.105240 -0.119894
C39   C     C_R   0.392349 0.630080 0.175584 -0.158660
C40   C     C_R   0.361274 0.730702 0.212272 0.077737
C41   C     C_R   0.342125 0.807673 0.174996 0.069703
C42   C     C_R   0.349565 0.757662 0.284558 0.072732
C43   C     C_R   0.315777 0.860317 0.317537 0.142930
C44   C     C_R   0.294608 0.933800 0.279732 -0.206915
C45   C     C_R   0.306988 0.907935 0.209667 -0.200132
C46   C     C_R   0.368633 0.686379 0.325504 -0.216246
C47   C     C_R   0.315784 0.816594 0.427190 -0.172785
C48   C     C_R   0.361700 0.783033 0.103588 -0.076849
H22   H     H_    0.392434 0.607125 0.304423 0.090155
H23   H     H_    0.412180 0.663869 0.015008 0.100452
H24   H     H_    0.287253 0.967333 0.182665 0.118643
O11   O     O_R   0.203450 0.916320 0.913910 -0.541995
O12   O     O_R   0.535520 0.888300 0.047620 -0.538451
O13   O     O_R   0.710860 0.083650 0.086100 -0.537551
C49   C     C_R   0.367233 0.861475 0.064225 0.688248
O14   O     O_R   0.532860 0.904250 0.912040 -0.542208
O15   O     O_R   0.708190 0.099710 0.949550 -0.536597
C50   C     C_R   0.364246 0.883041 0.884679 0.695944
O16   O     O_R   0.206120 0.900260 0.050460 -0.539153
O17   O     O_3   0.375280 0.064080 0.012470 -0.371488
V3    V     V_3+5 0.648180 0.988110 0.997690 1.415765
O18   O     O_R   0.038220 0.111740 0.952370 -0.540796
C51   C     C_R   0.869070 0.138383 0.935780 0.687675
O19   O     O_R   0.040880 0.095790 0.087940 -0.546450
C52   C     C_R   0.872747 0.117598 0.115112 0.694343
V4    V     V_3+5 0.148800 0.011950 0.002300 1.406078
O20   O     O_3   0.871820 0.935920 0.987530 -0.371345
H25   H     H_    0.405971 0.567205 0.199518 0.103522
H26   H     H_    0.432782 0.529834 0.078252 0.116267
H27   H     H_    0.808220 0.392031 0.695775 0.089453
H28   H     H_    0.790794 0.430937 0.800548 0.103876

loop_
_geom_bond_atom_site_label_1
_geom_bond_atom_site_label_2
_ccdc_geom_bond_type
C30   H14   S    
O17   V3    S    
C40   C42   A    
C22   H8    S    
O18   C51   A    
H20   C44   S    
C20   C52   S    
O19   C52   A    
O11   C50   A    
C21   C22   A    
C44   C45   A    
C28   C29   A    
C6    C16   A    
C26   H11   S    
C19   C20   A    
C35   C43   A    
C1    C28   S    
C34   H17   S    
C4    C6    S    
C13   C14   A    
C3    C23   S    
O5    C3    A    
C20   C21   A    
O12   C49   A    
C39   H25   S    
V2    O10   S    
O13   V3    S    
C5    H3    S    
C40   C41   A    
O14   V3    S    
C37   C48   A    
O12   V3    S    
O8    V2    S    
C49   O16   A    
C8    C9    A    
C37   C38   A    
O1    V2    S    
O14   C50   A    
O7    V1    S    
O17   V4    S    
C1    O6    A    
O13   C52   A    
C29   C30   A    
C33   C34   S    
C35   C47   A    
O9    C4    A    
C22   C23   A    
O19   V4    S    
O15   V3    S    
C25   H9    S    
C7    H4    S    
C6    C17   A    
C33   H15   S    
C12   C16   A    
C27   C28   A    
C9    C10   A    
C21   H7    S    
O4    C2    A    
C10   C11   A    
C25   C26   S    
C9    H28   S    
C16   H27   S    
O2    C1    A    
C42   C43   A    
O5    V1    S    
C14   C15   A    
O11   V4    S    
C11   C18   A    
V4    O20   S    
V3    O20   S    
C35   H21   S    
C27   C32   A    
C43   C44   A    
O15   C51   A    
C37   H23   S    
O3    C4    A    
C38   H26   S    
C11   C15   A    
O6    V2    S    
C8    H5    S    
O9    V2    S    
C23   C24   A    
C36   C46   A    
H1    C17   S    
C41   C48   A    
O2    V1    S    
C18   C51   S    
C24   C25   S    
C25   H10   S    
C7    C18   A    
C33   H16   S    
C31   C50   S    
O1    C2    A    
C5    C13   A    
C39   C40   A    
C2    C36   S    
C46   H22   S    
O8    C3    A    
C29   H13   S    
C10   C12   A    
H19   C47   S    
C26   H12   S    
C15   H6    S    
C34   H18   S    
C19   C24   A    
C30   C31   A    
O7    V2    S    
O4    V1    S    
O3    V1    S    
V1    O10   S    
C31   C32   A    
O18   V4    S    
C32   C33   S    
C48   C49   S    
C45   H24   S    
C38   C39   A    
C41   C45   A    
C12   C13   A    
C5    C17   A    
C7    C8    A    
C36   C47   A    
C27   C34   S    
C19   C26   S    
C42   C46   A    
O16   V4    S    
H2    C14   S    
