data_mof_unit_54302.cif
_audit_creation_date              2012-12-10T21:10:01-0500
_audit_creation_method            fapswitch 2.2
_symmetry_space_group_name_H-M    P1
_symmetry_Int_Tables_number       1
_space_group_crystal_system       triclinic
_cell_length_a                    12.790785
_cell_length_b                    17.457159
_cell_length_c                    16.81164
_cell_angle_alpha                 91.138322
_cell_angle_beta                  98.629032
_cell_angle_gamma                 90.44888
_cell_volume                      3710.43729985

loop_
_atom_site_label
_atom_site_type_symbol
_atom_type_description
_atom_site_fract_x
_atom_site_fract_y
_atom_site_fract_z
_atom_type_partial_charge
C1    C     C_R   0.499229 0.353557 0.499309 0.899172
C2    C     C_R   0.459929 0.114390 0.485414 -0.079518
C3    C     C_1   0.442722 0.965672 0.481236 0.105089
C4    C     C_1   0.447313 0.033675 0.481963 0.111698
C5    C     C_R   0.446490 0.438585 0.823564 0.307675
C6    C     C_R   0.539841 0.567152 0.175153 0.387921
C7    C     C_R   0.449647 0.441570 0.739606 -0.075545
C8    C     C_R   0.539672 0.562698 0.259408 -0.109773
C9    C     C_R   0.548510 0.557447 0.757488 0.110105
C10   C     C_R   0.459717 0.439508 0.242990 0.103140
C11   C     C_R   0.545952 0.556741 0.840935 -0.328030
C12   C     C_R   0.499090 0.646850 0.500290 0.912823
C13   C     C_R   0.460382 0.441531 0.159322 -0.335423
C14   C     C_R   0.495405 0.497634 0.875309 -0.022508
C15   C     C_R   0.499928 0.504951 0.124087 -0.014939
C16   C     C_R   0.297765 0.503038 0.483169 0.908665
C17   C     C_R   0.702418 0.497529 0.516734 0.906665
C18   C     C_1   0.496026 0.499988 0.963092 0.124413
C19   C     C_1   0.498199 0.503330 0.036178 0.153262
C20   C     C_R   0.815449 0.490333 0.527952 -0.197743
C21   C     C_R   0.184592 0.506118 0.469885 -0.191955
C22   C     C_R   0.018727 0.562377 0.412391 0.430485
C23   C     C_R   0.487578 0.729262 0.498013 -0.101724
C24   C     C_R   0.976161 0.420611 0.572820 0.434939
C25   C     C_R   0.129067 0.558129 0.416501 -0.164282
C26   C     C_R   0.869333 0.435376 0.578541 -0.174138
C27   C     C_R   0.133691 0.458648 0.517037 -0.180181
C28   C     C_R   0.865908 0.533180 0.476696 -0.168763
C29   C     C_R   0.026535 0.465217 0.519057 -0.014901
C30   C     C_R   0.969872 0.520119 0.468539 -0.020803
C31   C     C_R   0.418184 0.845675 0.548752 0.381291
C32   C     C_R   0.547856 0.148088 0.457339 0.477780
C33   C     C_R   0.436276 0.767376 0.554564 -0.293605
C34   C     C_R   0.488596 0.271669 0.496878 -0.107716
C35   C     C_R   0.559068 0.227348 0.460844 -0.313345
C36   C     C_R   0.604398 0.622338 0.727270 0.153196
C37   C     C_R   0.563602 0.696611 0.730631 -0.154271
C38   C     C_R   0.619909 0.759306 0.707431 -0.114428
C39   C     C_R   0.717229 0.748309 0.680929 -0.104143
C40   C     C_R   0.759890 0.674927 0.680030 -0.150387
C41   C     C_R   0.704631 0.612509 0.704771 -0.095162
C42   C     C_R   0.415109 0.369608 0.273436 0.157083
C43   C     C_R   0.315984 0.370557 0.299626 -0.091423
C44   C     C_R   0.270268 0.302758 0.321902 -0.136376
C45   C     C_R   0.516152 0.768303 0.432638 -0.232955
C46   C     C_R   0.321177 0.232986 0.315013 -0.106567
C47   C     C_R   0.418032 0.231050 0.286191 -0.118260
C48   C     C_R   0.465379 0.299033 0.266098 -0.140452
C49   C     C_R   0.813362 0.394274 0.636149 0.187613
C50   C     C_R   0.745869 0.332188 0.609945 -0.058678
C51   C     C_R   0.691101 0.294793 0.664215 -0.084881
C52   C     C_R   0.702788 0.319649 0.744632 -0.105918
C53   C     C_R   0.771083 0.380822 0.771318 -0.124795
C54   C     C_R   0.827185 0.417540 0.717484 -0.079311
C55   C     C_R   0.187358 0.614740 0.374538 0.161581
C56   C     C_R   0.405195 0.238228 0.528742 -0.236850
C57   C     C_R   0.223208 0.595282 0.301828 -0.018831
C58   C     C_R   0.276948 0.649429 0.262506 -0.106351
C59   C     C_R   0.292682 0.723865 0.294320 -0.095706
C60   C     C_R   0.254999 0.744142 0.365634 -0.111062
C61   C     C_R   0.203684 0.689607 0.406240 -0.103767
C62   C     C_R   0.513732 0.882154 0.347412 0.141424
C63   C     C_R   0.611580 0.873186 0.319918 -0.086280
C64   C     C_R   0.627401 0.902448 0.245780 -0.010304
C65   C     C_R   0.545716 0.940515 0.198288 -0.043974
C66   C     C_R   0.448249 0.949819 0.225096 -0.087699
C67   C     C_R   0.493629 0.845572 0.422849 -0.020006
C68   C     C_R   0.432128 0.920769 0.299250 -0.159121
C69   C     C_R   0.294566 0.126539 0.550927 0.128953
C70   C     C_R   0.282764 0.134951 0.632354 -0.091808
C71   C     C_R   0.191565 0.107428 0.659283 -0.025997
C72   C     C_R   0.111416 0.071871 0.605090 -0.013192
C73   C     C_R   0.122641 0.063331 0.523959 -0.037838
C74   C     C_R   0.214017 0.090341 0.496879 -0.127680
C75   C     C_R   0.388324 0.159487 0.521549 -0.018471
C76   C     C_R   0.447239 0.884682 0.482668 -0.069927
H1    H     H_    0.821246 0.577497 0.443361 0.220835
H2    H     H_    0.571274 0.609887 0.298475 0.178623
H3    H     H_    0.488268 0.705866 0.751132 0.168138
H4    H     H_    0.587747 0.816335 0.709520 0.161189
H5    H     H_    0.760235 0.796751 0.662263 0.152260
H6    H     H_    0.836453 0.666532 0.661358 0.150324
H7    H     H_    0.740647 0.556897 0.707654 0.133174
H8    H     H_    0.272829 0.423070 0.301047 0.131353
H9    H     H_    0.194421 0.304163 0.343044 0.159709
H10   H     H_    0.285305 0.180399 0.331437 0.133154
H11   H     H_    0.456673 0.176882 0.279774 0.183061
H12   H     H_    0.181656 0.420092 0.556137 0.217489
H13   H     H_    0.540389 0.296618 0.243657 0.156989
H14   H     H_    0.736329 0.312985 0.547735 0.118903
H15   H     H_    0.639165 0.246827 0.643920 0.148419
H16   H     H_    0.659411 0.291250 0.786341 0.136857
H17   H     H_    0.780639 0.399723 0.833714 0.149910
H18   H     H_    0.880563 0.464497 0.738841 0.135567
H19   H     H_    0.207435 0.539014 0.274778 0.118913
H20   H     H_    0.305048 0.633983 0.206788 0.153954
H21   H     H_    0.333379 0.765919 0.263399 0.155656
H22   H     H_    0.265834 0.802075 0.389639 0.145650
H23   H     H_    0.584412 0.602624 0.879303 0.197073
H24   H     H_    0.175564 0.705847 0.461772 0.152060
H25   H     H_    0.783671 0.610600 0.271907 0.411238
H26   H     H_    0.171465 0.272970 0.599258 0.370711
H27   H     H_    0.499007 0.953486 0.675594 0.344305
H28   H     H_    0.725834 0.987045 0.444901 0.380064
H29   H     H_    0.675409 0.843262 0.355697 0.145353
H30   H     H_    0.702862 0.895259 0.224967 0.154370
H31   H     H_    0.558001 0.962919 0.140804 0.136841
H32   H     H_    0.384951 0.979175 0.188201 0.140208
H33   H     H_    0.355294 0.926840 0.318212 0.119241
H34   H     H_    0.428838 0.393201 0.121361 0.210663
H35   H     H_    0.343821 0.163198 0.674713 0.167209
H36   H     H_    0.182710 0.114158 0.722049 0.168584
H37   H     H_    0.040651 0.050912 0.625949 0.146075
H38   H     H_    0.060496 0.035827 0.482048 0.147935
H39   H     H_    0.221337 0.084091 0.433737 0.114184
H40   H     H_    0.527087 0.305843 0.910347 0.339295
H41   H     H_    0.531419 0.727614 0.039996 0.387530
H42   H     H_    0.408909 0.735764 0.602307 0.198258
H43   H     H_    0.622856 0.254780 0.436032 0.187110
H44   H     H_    0.551641 0.737593 0.386934 0.178063
H45   H     H_    0.350657 0.274000 0.555911 0.154621
H46   H     H_    0.411379 0.396938 0.699828 0.182290
N1    N     N_R   0.500030 0.500030 0.707230 -0.126539
N2    N     N_R   0.499970 0.499970 0.292770 -0.125390
O1    O     O_R   0.500000 0.389130 0.566570 -0.629071
O2    O     O_2   0.000620 0.639936 0.270318 -0.253344
O3    O     O_3   0.831375 0.571396 0.298730 -0.547187
O4    O     O_2   0.128050 0.381331 0.692616 -0.282713
O5    O     O_2   0.975990 0.293907 0.669155 -0.256385
O6    O     O_3   0.106020 0.290848 0.566166 -0.579303
O7    O     O_2   0.247734 0.916148 0.586015 -0.278830
O8    O     O_2   0.347368 0.840705 0.692190 -0.301592
O9    O     O_3   0.426083 0.971664 0.658538 -0.534190
O10   O     O_2   0.599749 0.067553 0.333146 -0.339294
O11   O     O_2   0.742197 0.141175 0.414560 -0.285744
O12   O     O_R   0.500000 0.610870 0.433430 -0.630539
O13   O     O_3   0.676775 0.016465 0.473840 -0.567797
O14   O     O_2   0.287831 0.390968 0.896976 -0.213219
O15   O     O_2   0.344135 0.302505 0.797093 -0.294128
O16   O     O_3   0.464446 0.319754 0.935553 -0.540406
O17   O     O_2   0.616587 0.711202 0.199939 -0.338670
O18   O     O_2   0.686416 0.630451 0.099296 -0.276838
O19   O     O_3   0.496795 0.684009 0.062887 -0.563327
O20   O     O_R   0.499990 0.389100 0.433480 -0.603907
O21   O     O_R   0.500010 0.610900 0.566520 -0.611245
O22   O     O_R   0.346360 0.500000 0.555540 -0.607344
O23   O     O_R   0.653640 0.500000 0.444460 -0.591080
O24   O     O_R   0.346350 0.499970 0.422460 -0.635259
O25   O     O_R   0.653650 0.500030 0.577540 -0.629217
O26   O     O_2   0.912209 0.692466 0.378360 -0.330853
S1    S     S_3+6 0.941990 0.619820 0.338182 0.022244
S2    S     S_3+6 0.045963 0.345428 0.629100 0.019189
S3    S     S_3+6 0.356531 0.892792 0.623369 0.009389
S4    S     S_3+6 0.644435 0.093451 0.417093 -0.003848
S5    S     S_3+6 0.381453 0.361114 0.862111 0.045174
S6    S     S_3+6 0.589208 0.650534 0.135281 -0.006694
Zn1   Zn    Zn3+2 0.500000 0.500020 0.588860 0.957080
Zn2   Zn    Zn3+2 0.500000 0.499980 0.411140 0.960257

loop_
_geom_bond_atom_site_label_1
_geom_bond_atom_site_label_2
_ccdc_geom_bond_type
O14   S5    D    
C66   C68   A    
C34   C56   A    
C16   C21   S    
C23   C45   A    
C27   C29   A    
C73   C74   A    
C14   C18   S    
C35   H43   S    
C31   C76   A    
O19   S6    S    
O22   Zn1   S    
C53   C54   A    
C15   C19   S    
C37   H3    S    
C12   C23   S    
C37   C38   A    
O11   S4    D    
C20   C26   A    
C62   C67   S    
O9    S3    S    
C2    C32   A    
C16   O22   A    
C36   C37   A    
C17   O23   A    
C1    O1    A    
C18   C19   T    
C10   N2    A    
C38   C39   A    
C11   C14   A    
O1    Zn1   S    
C10   C42   S    
C49   C54   A    
C41   H7    S    
C17   C20   S    
H28   O13   S    
C11   H23   S    
C34   C35   A    
C58   H20   S    
C24   C29   A    
H40   O16   S    
C24   S2    S    
C51   H15   S    
C6    C15   A    
C46   C47   A    
O4    S2    D    
C23   C33   A    
C22   C25   A    
C50   H14   S    
C45   C67   A    
C9    C36   S    
C31   C33   A    
C70   C71   A    
C63   H29   S    
C29   C30   A    
O12   Zn2   S    
C21   C27   A    
C59   C60   A    
C56   C75   A    
C8    H2    S    
C43   H8    S    
C36   C41   A    
C27   H12   S    
C31   S3    S    
C44   C46   A    
C1    C34   S    
C50   C51   A    
C53   H17   S    
C51   C52   A    
C32   C35   A    
C40   H6    S    
O7    S3    D    
C39   H5    S    
O5    S2    D    
C26   C49   S    
C7    N1    A    
C39   C40   A    
C5    C7    A    
C8    N2    A    
C42   C48   A    
N1    Zn1   S    
C58   C59   A    
C5    S5    S    
C72   H37   S    
C73   H38   S    
N2    Zn2   S    
C60   C61   A    
C47   H11   S    
C12   O21   A    
C2    C4    S    
C43   C44   A    
C62   C63   A    
C3    C76   S    
O21   Zn1   S    
O2    S1    D    
C47   C48   A    
O15   S5    D    
O3    S1    S    
C71   H36   S    
O8    S3    D    
C69   C74   A    
O24   Zn2   S    
C28   H1    S    
C9    C11   A    
C13   H34   S    
C5    C14   A    
C32   S4    S    
C9    N1    A    
C45   H44   S    
C40   C41   A    
C65   C66   A    
C48   H13   S    
C55   C57   A    
O6    S2    S    
C59   H21   S    
C52   H16   S    
C61   H24   S    
C42   C43   A    
C7    H46   S    
O20   Zn2   S    
C44   H9    S    
C52   C53   A    
C57   H19   S    
C21   C25   A    
C22   S1    S    
C22   C30   A    
H41   O19   S    
C17   O25   A    
H26   O6    S    
C66   H32   S    
C72   C73   A    
C10   C13   A    
C6    C8    A    
O17   S6    D    
C64   H30   S    
C20   C28   A    
C60   H22   S    
C62   C68   A    
C16   O24   A    
C64   C65   A    
C13   C15   A    
H27   O9    S    
C71   C72   A    
C1    O20   A    
C56   H45   S    
C24   C26   A    
C57   C58   A    
O10   S4    D    
C38   H4    S    
C74   H39   S    
C55   C61   A    
C28   C30   A    
H25   O3    S    
C25   C55   S    
O13   S4    S    
C69   C75   S    
C68   H33   S    
C69   C70   A    
C54   H18   S    
C70   H35   S    
O16   S5    S    
C63   C64   A    
C33   H42   S    
C49   C50   A    
C12   O12   A    
O26   S1    D    
C67   C76   A    
O18   S6    D    
O23   Zn2   S    
O25   Zn1   S    
C65   H31   S    
C6    S6    S    
C2    C75   A    
C3    C4    T    
C46   H10   S    
