data_mof_unit_23299.cif
_audit_creation_date              2012-12-10T20:50:57-0500
_audit_creation_method            fapswitch 2.2
_symmetry_space_group_name_H-M    P1
_symmetry_Int_Tables_number       1
_space_group_crystal_system       triclinic
_cell_length_a                    27.724206
_cell_length_b                    8.924976
_cell_length_c                    8.098814
_cell_angle_alpha                 90.056829
_cell_angle_beta                  90.004108
_cell_angle_gamma                 90.000529
_cell_volume                      2003.9523204

loop_
_atom_site_label
_atom_site_type_symbol
_atom_type_description
_atom_site_fract_x
_atom_site_fract_y
_atom_site_fract_z
_atom_type_partial_charge
C1    C     C_R   0.499998 0.217977 0.499943 0.916152
C2    C     C_R   0.050804 0.486271 0.502560 0.075177
C3    C     C_R   0.947269 0.401996 0.216066 -0.230102
C4    C     C_R   0.052714 0.569532 0.789452 -0.230381
C5    C     C_R   0.947304 0.568966 0.789686 -0.230317
C6    C     C_R   0.052689 0.402716 0.215770 -0.230077
C7    C     C_1   0.499999 0.065201 0.499924 -0.184835
C8    C     C_1   0.500000 0.934799 0.500072 -0.184681
C9    C     C_R   0.406029 0.499853 0.499999 0.876470
C10   C     C_R   0.593969 0.499848 0.500011 0.876538
C11   C     C_R   0.178070 0.450268 0.360568 0.516767
C12   C     C_R   0.500000 0.782023 0.500053 0.918014
C13   C     C_R   0.821927 0.529408 0.642133 0.517084
C14   C     C_R   0.178079 0.529810 0.641894 0.517062
C15   C     C_R   0.821913 0.449744 0.360855 0.516781
C16   C     C_R   0.277457 0.617052 0.436522 -0.103948
C17   C     C_R   0.721362 0.371151 0.563541 -0.104204
C18   C     C_R   0.278605 0.371518 0.563655 -0.104204
C19   C     C_R   0.722566 0.616928 0.436987 -0.104015
C20   C     C_R   0.327706 0.621820 0.436851 0.112158
C21   C     C_R   0.671103 0.370915 0.562890 0.112617
C22   C     C_R   0.328863 0.371179 0.563062 0.112534
C23   C     C_R   0.353676 0.497675 0.500015 -0.031943
C24   C     C_R   0.672318 0.621780 0.437212 0.112253
C25   C     C_R   0.253243 0.493195 0.500212 0.230819
C26   C     C_R   0.746751 0.492907 0.500433 0.230929
C27   C     C_R   0.101968 0.487475 0.502128 -0.048192
C28   C     C_R   0.898023 0.487073 0.502333 -0.048210
C29   C     C_R   0.127632 0.447248 0.358663 -0.027470
C30   C     C_R   0.872363 0.528720 0.645309 -0.027364
C31   C     C_R   0.127640 0.529177 0.645070 -0.027305
C32   C     C_R   0.872347 0.446714 0.358929 -0.027425
C33   C     C_R   0.102641 0.404852 0.216915 -0.145753
C34   C     C_R   0.646321 0.497570 0.500069 -0.031871
C35   C     C_R   0.897359 0.569114 0.787753 -0.145186
C36   C     C_R   0.102659 0.569751 0.787463 -0.145299
C37   C     C_R   0.897322 0.404081 0.217251 -0.145857
C38   C     C_3   0.353942 0.232658 0.627040 -0.863805
C39   C     C_3   0.648523 0.762421 0.373127 -0.865359
C40   C     C_3   0.351532 0.762313 0.372533 -0.865115
C41   C     C_3   0.645990 0.232339 0.626578 -0.863883
C42   C     C_R   0.974405 0.443325 0.357166 0.045434
C43   C     C_R   0.025584 0.528143 0.648363 0.045521
C44   C     C_R   0.974422 0.527973 0.648439 0.045501
C45   C     C_R   0.025571 0.443530 0.357075 0.045449
C46   C     C_R   0.949188 0.486030 0.502677 0.075183
H1    H     H_    0.258905 0.276121 0.611708 0.155209
H2    H     H_    0.036798 0.603173 0.904669 0.146606
H3    H     H_    0.963231 0.602258 0.905017 0.146561
H4    H     H_    0.036760 0.368309 0.100835 0.146429
H5    H     H_    0.393558 0.234805 0.610210 0.237107
H6    H     H_    0.346134 0.219346 0.760683 0.258273
H7    H     H_    0.340208 0.132644 0.560279 0.232629
H8    H     H_    0.608863 0.763384 0.389096 0.236518
H9    H     H_    0.662988 0.861127 0.440434 0.233161
H10   H     H_    0.656671 0.775384 0.239684 0.258713
H11   H     H_    0.391184 0.763353 0.388869 0.236496
H12   H     H_    0.743174 0.710634 0.389358 0.155266
H13   H     H_    0.343474 0.774912 0.238974 0.258737
H14   H     H_    0.337015 0.861187 0.439404 0.233137
H15   H     H_    0.606371 0.234662 0.609875 0.237101
H16   H     H_    0.659670 0.132422 0.559519 0.232625
H17   H     H_    0.653827 0.218701 0.760161 0.258217
H18   H     H_    0.256872 0.710703 0.388648 0.155321
H19   H     H_    0.741037 0.275622 0.611400 0.155155
H20   H     H_    0.121635 0.372732 0.105427 0.195229
H21   H     H_    0.878366 0.601803 0.899052 0.195637
H22   H     H_    0.121661 0.602680 0.898669 0.195608
H23   H     H_    0.878315 0.371670 0.105880 0.195216
H24   H     H_    0.963187 0.367084 0.101305 0.146522
N1    N     N_R   0.201945 0.491070 0.500876 -0.351593
N2    N     N_R   0.798050 0.490669 0.501127 -0.351592
N3    N     N_1   0.500000 0.500000 0.073640 -0.024410
N4    N     N_1   0.500000 0.500000 0.926360 -0.024350
O1    O     O_R   0.500000 0.285350 0.636850 -0.621293
O2    O     O_2   0.796835 0.568900 0.778264 -0.532033
O3    O     O_2   0.203182 0.569241 0.778036 -0.532042
O4    O     O_2   0.796802 0.411890 0.224188 -0.532274
O5    O     O_R   0.500000 0.714650 0.363150 -0.620805
O6    O     O_R   0.500000 0.714650 0.636850 -0.610314
O7    O     O_R   0.500000 0.285350 0.363150 -0.609904
O8    O     O_R   0.428760 0.500000 0.636860 -0.611187
O9    O     O_R   0.571240 0.500000 0.363140 -0.611143
O10   O     O_R   0.571240 0.500000 0.636860 -0.611179
O11   O     O_R   0.428760 0.500000 0.363140 -0.611151
O12   O     O_2   0.203167 0.412508 0.223855 -0.532261
Zn1   Zn    Zn3+2 0.500000 0.500000 0.682780 1.002040
Zn2   Zn    Zn3+2 0.500000 0.500000 0.317220 1.002379

loop_
_geom_bond_atom_site_label_1
_geom_bond_atom_site_label_2
_ccdc_geom_bond_type
C4    C36   A    
C3    C42   A    
C40   H14   S    
C6    C45   A    
C37   H23   S    
C27   C29   A    
C26   N2    S    
C14   N1    A    
O10   Zn1   S    
C41   H15   S    
C14   C31   A    
C18   H1    S    
C7    C8    T    
C15   N2    A    
C28   C46   A    
C30   C35   A    
C17   C26   A    
O6    Zn1   S    
C31   C36   A    
C42   C46   A    
C20   C40   S    
C11   N1    A    
C39   H8    S    
C38   H6    S    
C11   O12   S    
C1    O7    A    
O8    Zn1   S    
C22   C38   S    
C12   O5    A    
C29   C33   A    
C10   O9    A    
C24   C39   S    
N3    N4    T    
C14   O3    S    
C19   C26   A    
C9    O11   A    
C39   H9    S    
C20   C23   A    
C2    C27   A    
C25   N1    S    
N4    Zn1   S    
C16   C20   A    
C9    O8    A    
O9    Zn2   S    
C2    C45   A    
C40   H13   S    
C18   C22   A    
C5    H3    S    
C18   C25   A    
C41   H16   S    
C28   C32   A    
O5    Zn2   S    
C44   C46   A    
C33   H20   S    
C19   H12   S    
C27   C31   A    
C1    O1    A    
C13   C30   A    
C15   C32   A    
C3    H24   S    
C9    C23   S    
C38   H5    S    
C24   C34   A    
C42   C45   A    
C43   C44   A    
N3    Zn2   S    
C39   H10   S    
C13   O2    S    
C35   H21   S    
C2    C43   A    
C8    C12   S    
C10   C34   S    
C32   C37   A    
C6    H4    S    
C11   C29   A    
C21   C41   S    
O1    Zn1   S    
C13   N2    A    
C5    C44   A    
C41   H17   S    
C4    H2    S    
O11   Zn2   S    
C16   C25   A    
C40   H11   S    
C1    C7    S    
C36   H22   S    
C21   C34   A    
C4    C43   A    
C5    C35   A    
C17   H19   S    
C6    C33   A    
C28   C30   A    
C19   C24   A    
C38   H7    S    
C12   O6    A    
C10   O10   A    
C17   C21   A    
O7    Zn2   S    
C15   O4    S    
C3    C37   A    
C22   C23   A    
C16   H18   S    
