data_mof_unit_37959.cif
_audit_creation_date              2012-12-10T19:10:25-0500
_audit_creation_method            fapswitch 2.2
_symmetry_space_group_name_H-M    P1
_symmetry_Int_Tables_number       1
_space_group_crystal_system       triclinic
_cell_length_a                    10.627244
_cell_length_b                    9.781456
_cell_length_c                    15.694725
_cell_angle_alpha                 90.125938
_cell_angle_beta                  90.263903
_cell_angle_gamma                 89.937015
_cell_volume                      1631.44318718

loop_
_atom_site_label
_atom_site_type_symbol
_atom_type_description
_atom_site_fract_x
_atom_site_fract_y
_atom_site_fract_z
_atom_type_partial_charge
C1    C     C_R   0.257830 0.499757 0.499978 0.819172
C2    C     C_3   0.633108 0.508382 0.951256 -0.402261
C3    C     C_3   0.633107 0.508456 0.049517 -0.401047
C4    C     C_1   0.496925 0.500296 0.825876 -0.141994
C5    C     C_1   0.496931 0.500178 0.174040 -0.141882
C6    C     C_1   0.498287 0.499966 0.249442 -0.200500
C7    C     C_3   0.072836 0.567856 0.582542 -0.402678
C8    C     C_3   0.071572 0.349368 0.496409 -0.401958
C9    C     C_3   0.928307 0.568876 0.582126 -0.409697
C10   C     C_3   0.928717 0.349168 0.497010 -0.400985
C11   C     C_3   0.071283 0.577818 0.421522 -0.418529
C12   C     C_3   0.121299 0.498706 0.500093 0.198565
C13   C     C_3   0.878711 0.498480 0.500034 0.205913
C14   C     C_R   0.499913 0.499920 0.338360 0.909536
C15   C     C_3   0.926995 0.576083 0.420783 -0.402772
C16   C     C_3   0.412392 0.082110 0.431424 0.132587
C17   C     C_3   0.403127 0.919916 0.437678 0.121169
C18   C     C_3   0.627219 0.080517 0.481558 -0.365169
C19   C     C_3   0.624567 0.919461 0.474097 -0.371775
C20   C     C_3   0.459810 0.082458 0.582916 0.072120
C21   C     C_3   0.472391 0.919255 0.585121 0.076606
C22   C     C_R   0.742327 0.499636 0.500050 0.816014
C23   C     C_R   0.499958 0.500094 0.661592 0.917839
C24   C     C_3   0.421259 0.625014 0.049083 -0.399814
C25   C     C_3   0.434524 0.367470 0.048715 -0.406344
C26   C     C_3   0.434363 0.367597 0.950368 -0.398264
C27   C     C_3   0.421359 0.625134 0.950706 -0.401882
C28   C     C_1   0.498308 0.500185 0.750491 -0.223366
C29   C     C_3   0.496331 0.500294 0.082580 0.382102
C30   C     C_3   0.496320 0.500367 0.917315 0.383442
H1    H     H_    0.322737 0.621560 0.926559 0.162085
H2    H     H_    0.335883 0.359812 0.926339 0.161940
H3    H     H_    0.894199 0.676416 0.585564 0.167049
H4    H     H_    0.893487 0.295820 0.438828 0.166485
H5    H     H_    0.103801 0.685834 0.423882 0.176258
H6    H     H_    0.107392 0.530820 0.361752 0.147342
H7    H     H_    0.891245 0.683149 0.420473 0.168785
H8    H     H_    0.892494 0.525567 0.361490 0.151258
H9    H     H_    0.316958 0.124111 0.443262 0.109558
H10   H     H_    0.308440 0.896510 0.463341 0.086805
H11   H     H_    0.668332 0.126074 0.423268 0.177741
H12   H     H_    0.650713 0.887574 0.408669 0.159520
H13   H     H_    0.526834 0.122715 0.631576 0.133494
H14   H     H_    0.555852 0.896207 0.626136 0.120169
H15   H     H_    0.692737 0.110403 0.533886 0.151670
H16   H     H_    0.699353 0.876479 0.515981 0.168020
H17   H     H_    0.322592 0.621199 0.072503 0.161245
H18   H     H_    0.336146 0.359347 0.072252 0.161491
H19   H     H_    0.487024 0.276491 0.072390 0.160772
H20   H     H_    0.463914 0.721651 0.073181 0.161906
H21   H     H_    0.486548 0.276540 0.926561 0.159903
H22   H     H_    0.464210 0.721745 0.927254 0.162376
H23   H     H_    0.679368 0.603197 0.073493 0.160446
H24   H     H_    0.688860 0.419861 0.073321 0.160848
H25   H     H_    0.679491 0.603019 0.927776 0.160146
H26   H     H_    0.688747 0.419668 0.927611 0.160490
H27   H     H_    0.107997 0.674778 0.587231 0.169878
H28   H     H_    0.105370 0.297132 0.437641 0.162439
H29   H     H_    0.107958 0.511660 0.639521 0.149487
H30   H     H_    0.106449 0.290198 0.552242 0.180583
H31   H     H_    0.892862 0.514589 0.639475 0.150160
H32   H     H_    0.895382 0.290841 0.553462 0.166745
N1    N     N_3   0.499750 0.138610 0.498180 -0.083248
N2    N     N_3   0.499750 0.861390 0.498180 -0.081569
O1    O     O_R   0.314910 0.616040 0.499980 -0.612920
O2    O     O_R   0.314910 0.383960 0.499980 -0.617016
O3    O     O_R   0.500120 0.616090 0.377110 -0.598752
O4    O     O_R   0.500120 0.383910 0.377110 -0.580071
O5    O     O_R   0.685320 0.616040 0.499960 -0.638174
O6    O     O_R   0.685320 0.383960 0.499960 -0.637696
O7    O     O_R   0.500110 0.615990 0.622830 -0.588372
O8    O     O_R   0.500110 0.384010 0.622830 -0.607978
Zn1   Zn    Zn3+2 0.500150 0.654960 0.499960 0.930132
Zn2   Zn    Zn3+2 0.500150 0.345040 0.499960 0.929210
N3    N     N_2   0.449307 0.128175 0.346542 -0.242349
H33   H     H_    0.526903 0.083681 0.318804 0.205100
C31   C     C_3   0.350607 0.169099 0.287784 -0.790085
H34   H     H_    0.393356 0.213505 0.229715 0.231882
H35   H     H_    0.289482 0.248155 0.317282 0.235884
H36   H     H_    0.292602 0.080392 0.268636 0.233222
N4    N     N_2   0.410049 0.855967 0.353871 -0.243083
H37   H     H_    0.491357 0.859008 0.318487 0.222525
C32   C     C_3   0.295584 0.812785 0.311172 -0.794155
H38   H     H_    0.306773 0.823186 0.241166 0.219556
H39   H     H_    0.213646 0.875409 0.331353 0.208338
H40   H     H_    0.277252 0.703867 0.325560 0.250323
N5    N     N_2   0.333191 0.130503 0.604445 -0.266206
H41   H     H_    0.256345 0.090669 0.572917 0.178939
C33   C     C_3   0.307685 0.191237 0.686964 -0.749542
H42   H     H_    0.229611 0.135527 0.718241 0.202974
H43   H     H_    0.277006 0.298721 0.678065 0.240032
H44   H     H_    0.391145 0.189273 0.729780 0.227561
N6    N     N_2   0.364693 0.851085 0.624133 -0.236667
H45   H     H_    0.277018 0.866842 0.597922 0.201518
C34   C     C_3   0.364683 0.838373 0.716217 -0.792542
H46   H     H_    0.347185 0.938261 0.746882 0.231518
H47   H     H_    0.456019 0.798093 0.739865 0.244089
H48   H     H_    0.289587 0.766145 0.735597 0.226378

loop_
_geom_bond_atom_site_label_1
_geom_bond_atom_site_label_2
_ccdc_geom_bond_type
N5    H41   S    
C26   H2    S    
N6    H45   S    
C16   N3    S    
C34   H46   S    
C24   C27   S    
N4    H37   S    
C19   H16   S    
C31   H34   S    
C9    H31   S    
C11   H6    S    
C2    H25   S    
C17   N2    S    
C5    C6    T    
C3    H24   S    
C18   N1    S    
C14   O3    A    
O4    Zn2   S    
O2    Zn2   S    
C20   N5    S    
O1    Zn1   S    
C25   C29   S    
C18   C19   S    
C3    C29   S    
C9    C13   S    
C24   C29   S    
C15   H7    S    
C21   N2    S    
N4    C32   S    
C11   C15   S    
C16   C17   S    
O6    Zn2   S    
C1    O1    A    
N2    Zn1   S    
O5    Zn1   S    
O3    Zn1   S    
C16   N1    S    
C33   H43   S    
C22   O5    A    
C19   H12   S    
C8    H28   S    
N6    C34   S    
C27   C30   S    
C9    H3    S    
C10   H32   S    
C1    C12   S    
C7    H29   S    
C4    C28   T    
C5    C29   S    
C31   H35   S    
C24   H20   S    
C7    C12   S    
C34   H48   S    
C27   H1    S    
C23   O7    A    
O8    Zn2   S    
C18   H11   S    
O7    Zn1   S    
C25   C26   S    
C17   H10   S    
N3    H33   S    
C15   H8    S    
C6    C14   S    
C21   H14   S    
C32   H38   S    
C19   N2    S    
C8    C12   S    
C1    O2    A    
C10   H4    S    
C23   C28   S    
C33   H44   S    
N3    C31   S    
C25   H18   S    
C32   H39   S    
C26   C30   S    
C13   C15   S    
C18   H15   S    
C20   H13   S    
C27   H22   S    
C31   H36   S    
C7    C9    S    
C24   H17   S    
C23   O8    A    
C10   C13   S    
C11   C12   S    
C34   H47   S    
N1    Zn2   S    
C2    C30   S    
C20   N1    S    
C11   H5    S    
C2    C3    S    
C2    H26   S    
C26   H21   S    
C8    H30   S    
C3    H23   S    
C21   N6    S    
C22   O6    A    
C13   C22   S    
C17   N4    S    
C25   H19   S    
C16   H9    S    
C32   H40   S    
C20   C21   S    
C8    C10   S    
N5    C33   S    
C14   O4    A    
C33   H42   S    
C7    H27   S    
C4    C30   S    
