data_mof_unit_52024.cif
_audit_creation_date              2013-03-05T15:49:02-0500
_audit_creation_method            fapswitch 2.2
_symmetry_space_group_name_H-M    P1
_symmetry_Int_Tables_number       1
_space_group_crystal_system       triclinic
_cell_length_a                    17.793128
_cell_length_b                    18.64429
_cell_length_c                    12.161092
_cell_angle_alpha                 91.639404
_cell_angle_beta                  83.33685
_cell_angle_gamma                 89.521746
_cell_volume                      4005.15691125

loop_
_atom_site_label
_atom_site_type_symbol
_atom_site_description
_atom_site_fract_x
_atom_site_fract_y
_atom_site_fract_z
_atom_type_partial_charge
O1    O     O_R   0.418020 0.076820 0.422210 -0.619247
O2    O     O_R   0.581980 0.923180 0.577790 -0.619356
O3    O     O_R   0.581980 0.076820 0.577790 -0.622789
O4    O     O_R   0.418020 0.923180 0.422210 -0.622958
O5    O     O_R   0.918020 0.576820 0.422210 -0.619297
O6    O     O_R   0.081980 0.423180 0.577790 -0.619344
O7    O     O_R   0.081980 0.576820 0.577790 -0.622803
O8    O     O_R   0.918020 0.423180 0.422210 -0.622936
O9    O     O_R   0.430370 0.076830 0.608590 -0.594221
O10   O     O_R   0.569630 0.923170 0.391410 -0.594261
O11   O     O_R   0.569630 0.076830 0.391410 -0.597730
O12   O     O_R   0.430370 0.923170 0.608590 -0.597713
O13   O     O_R   0.930370 0.576830 0.608590 -0.594188
O14   O     O_R   0.069630 0.423170 0.391410 -0.594252
O15   O     O_R   0.069630 0.576830 0.391410 -0.597777
O16   O     O_R   0.930370 0.423170 0.608590 -0.597703
C1    C     C_R   0.403078 0.102775 0.522515 0.881463
C2    C     C_R   0.596895 0.897213 0.477492 0.881705
C3    C     C_R   0.597094 0.102050 0.480115 0.876506
C4    C     C_R   0.402909 0.897947 0.519880 0.876455
C5    C     C_R   0.903080 0.602777 0.522514 0.881467
C6    C     C_R   0.096898 0.397215 0.477491 0.881696
C7    C     C_R   0.097097 0.602048 0.480114 0.876509
C8    C     C_R   0.902906 0.397950 0.519880 0.876454
C9    C     C_R   0.589605 0.988489 0.824525 0.096729
C10   C     C_R   0.410379 0.011413 0.175456 0.097131
C11   C     C_R   0.089608 0.488505 0.824527 0.096792
C12   C     C_R   0.910381 0.511413 0.175457 0.097114
Zn1   Zn    Zn3+2 0.491750 1.000000 0.375560 0.973672
Zn2   Zn    Zn3+2 0.508250 1.000000 0.624440 0.973696
Zn3   Zn    Zn3+2 0.991750 0.500000 0.375560 0.973637
Zn4   Zn    Zn3+2 0.008250 0.500000 0.624440 0.973706
C13   C     C_R   0.598071 0.986669 0.937053 -0.338938
C14   C     C_R   0.401911 0.013118 0.062923 -0.338990
C15   C     C_R   0.098075 0.486706 0.937057 -0.338955
C16   C     C_R   0.901911 0.513121 0.062925 -0.338975
C17   C     C_R   0.456694 0.006491 0.867528 0.230757
C18   C     C_R   0.543300 0.993426 0.132467 0.230724
C19   C     C_R   0.956694 0.506496 0.867528 0.230760
C20   C     C_R   0.043302 0.493438 0.132468 0.230708
C21   C     C_R   0.653008 0.157009 0.470679 -0.073953
C22   C     C_R   0.346961 0.843019 0.529301 -0.073928
C23   C     C_R   0.345583 0.157540 0.538618 -0.084123
C24   C     C_R   0.654360 0.842438 0.461399 -0.084112
C25   C     C_R   0.153015 0.657005 0.470674 -0.073997
C26   C     C_R   0.846945 0.343034 0.529297 -0.073906
C27   C     C_R   0.845582 0.657540 0.538614 -0.084100
C28   C     C_R   0.154366 0.342441 0.461397 -0.084104
C29   C     C_R   0.227793 0.809818 0.624591 -0.252970
C30   C     C_R   0.772124 0.190284 0.375322 -0.252898
C31   C     C_R   0.785154 0.818149 0.398253 -0.229494
C32   C     C_R   0.214768 0.181816 0.601752 -0.229463
C33   C     C_R   0.727741 0.309879 0.624530 -0.252993
C34   C     C_R   0.272118 0.690294 0.375293 -0.252878
C35   C     C_R   0.285164 0.318154 0.398261 -0.229486
C36   C     C_R   0.714766 0.681813 0.601750 -0.229429
C37   C     C_R   0.291464 0.850645 0.619242 -0.222716
C38   C     C_R   0.708492 0.149407 0.380719 -0.222428
C39   C     C_R   0.721161 0.859772 0.396942 -0.200082
C40   C     C_R   0.278771 0.140191 0.603052 -0.200001
C41   C     C_R   0.791419 0.350696 0.619198 -0.222707
C42   C     C_R   0.208483 0.649417 0.380695 -0.222518
C43   C     C_R   0.221170 0.359776 0.396945 -0.200082
C44   C     C_R   0.778770 0.640188 0.603046 -0.199969
C45   C     C_R   0.340193 0.792357 0.441410 -0.078935
C46   C     C_R   0.659718 0.207727 0.558524 -0.078838
C47   C     C_R   0.649187 0.780627 0.525896 -0.071706
C48   C     C_R   0.350743 0.219370 0.474160 -0.071430
C49   C     C_R   0.840186 0.292361 0.441416 -0.078926
C50   C     C_R   0.159740 0.707706 0.558533 -0.078841
C51   C     C_R   0.149192 0.280628 0.525890 -0.071673
C52   C     C_R   0.850738 0.719371 0.474157 -0.071401
C53   C     C_R   0.278344 0.745666 0.453686 0.121387
C54   C     C_R   0.721556 0.254436 0.546228 0.121496
C55   C     C_R   0.715525 0.740296 0.531831 0.112390
C56   C     C_R   0.284399 0.259684 0.468208 0.112399
C57   C     C_R   0.778334 0.245675 0.453691 0.121367
C58   C     C_R   0.221585 0.754407 0.546249 0.121512
C59   C     C_R   0.215530 0.240298 0.531830 0.112424
C60   C     C_R   0.784392 0.759681 0.468204 0.112335
N1    N     N_R   0.480750 1.000000 0.209750 -0.126500
N2    N     N_R   0.519250 1.000000 0.790250 -0.126525
N3    N     N_R   0.980750 0.500000 0.209750 -0.126509
N4    N     N_R   0.019250 0.500000 0.790250 -0.126521
H1    H     H_    0.705572 0.107705 0.317899 0.195266
H2    H     H_    0.294396 0.892343 0.682065 0.195260
H3    H     H_    0.274526 0.091576 0.649439 0.185318
H4    H     H_    0.725408 0.908376 0.350525 0.185388
H5    H     H_    0.205550 0.607730 0.317857 0.195279
H6    H     H_    0.794335 0.392414 0.681995 0.195239
H7    H     H_    0.774527 0.591571 0.649431 0.185301
H8    H     H_    0.225416 0.408380 0.350530 0.185384
H9    H     H_    0.683388 0.323185 0.690554 0.170416
H10   H     H_    0.316411 0.677090 0.309143 0.170413
H11   H     H_    0.335672 0.333819 0.346657 0.170970
H12   H     H_    0.664250 0.666135 0.653326 0.170891
H13   H     H_    0.183464 0.823096 0.690658 0.170416
H14   H     H_    0.816430 0.177067 0.309194 0.170412
H15   H     H_    0.835659 0.833811 0.346639 0.170986
H16   H     H_    0.164252 0.166140 0.653327 0.170895
H17   H     H_    0.654226 0.977282 0.959396 0.190811
H18   H     H_    0.345750 0.022464 0.040570 0.190805
H19   H     H_    0.154232 0.477329 0.959401 0.190817
H20   H     H_    0.845749 0.522464 0.040575 0.190805
C61   C     C_R   0.464157 0.004769 0.982401 0.020840
C62   C     C_R   0.535831 0.995060 0.017586 0.020880
C63   C     C_R   0.964158 0.504780 0.982402 0.020829
C64   C     C_R   0.035833 0.495082 0.017587 0.020867
C65   C     C_R   0.340792 0.027306 0.252175 0.175682
C66   C     C_R   0.306472 0.095755 0.254094 -0.172813
C67   C     C_R   0.236809 0.109455 0.317487 -0.109428
C68   C     C_R   0.200289 0.054848 0.378475 -0.109168
C69   C     C_R   0.231997 0.986049 0.372891 -0.176896
C70   C     C_R   0.300700 0.972224 0.307651 -0.098122
H21   H     H_    0.332731 0.138053 0.204564 0.117257
H22   H     H_    0.210825 0.162181 0.318408 0.135416
H23   H     H_    0.146701 0.065139 0.428093 0.123510
H24   H     H_    0.202572 0.942997 0.416999 0.136109
H25   H     H_    0.321506 0.918295 0.298509 0.151959
C71   C     C_R   0.659236 0.972893 0.747727 0.175855
C72   C     C_R   0.699253 0.028265 0.692857 -0.098374
C73   C     C_R   0.768077 0.014811 0.627691 -0.176484
C74   C     C_R   0.799931 0.946040 0.621471 -0.109546
C75   C     C_R   0.763450 0.891108 0.681818 -0.109440
C76   C     C_R   0.693704 0.904471 0.745231 -0.172034
H26   H     H_    0.678255 0.082130 0.702424 0.151859
H27   H     H_    0.797472 0.058125 0.584148 0.136008
H28   H     H_    0.853611 0.936009 0.571904 0.123444
H29   H     H_    0.789557 0.838404 0.680447 0.135260
H30   H     H_    0.667516 0.861932 0.794337 0.117069
C77   C     C_R   0.840798 0.527304 0.252181 0.175704
C78   C     C_R   0.806502 0.595764 0.254143 -0.172700
C79   C     C_R   0.736829 0.609461 0.317511 -0.109461
C80   C     C_R   0.700286 0.554844 0.378450 -0.109191
C81   C     C_R   0.731982 0.486040 0.372843 -0.176867
C82   C     C_R   0.800692 0.472216 0.307619 -0.098168
H31   H     H_    0.832789 0.638074 0.204670 0.117260
H32   H     H_    0.710856 0.662192 0.318455 0.135440
H33   H     H_    0.646691 0.565133 0.428051 0.123511
H34   H     H_    0.702543 0.442983 0.416920 0.136105
H35   H     H_    0.821494 0.418284 0.298463 0.151944
C83   C     C_R   0.159231 0.472849 0.747743 0.175847
C84   C     C_R   0.199269 0.528167 0.692763 -0.098347
C85   C     C_R   0.268081 0.514642 0.627609 -0.176550
C86   C     C_R   0.299905 0.445865 0.621528 -0.109459
C87   C     C_R   0.263400 0.390993 0.681973 -0.109462
C88   C     C_R   0.193663 0.404420 0.745357 -0.172171
H36   H     H_    0.178307 0.582046 0.702238 0.151860
H37   H     H_    0.297492 0.557908 0.583972 0.136011
H38   H     H_    0.353575 0.435782 0.571975 0.123471
H39   H     H_    0.289476 0.338283 0.680696 0.135291
H40   H     H_    0.167451 0.361921 0.794524 0.117092
I1    I     I_    0.652765 0.986294 0.184879 -0.463348
I2    I     I_    0.347238 0.013720 0.815102 -0.463433
I3    I     I_    0.152765 0.486293 0.184883 -0.463394
I4    I     I_    0.847238 0.513720 0.815104 -0.463415
C89   C     C_R   0.605976 0.209520 0.664681 0.111303
C90   C     C_R   0.527371 0.211966 0.662408 -0.081964
C91   C     C_R   0.477510 0.210927 0.760052 -0.106094
C92   C     C_R   0.505637 0.207003 0.862175 -0.110292
C93   C     C_R   0.583617 0.204359 0.866585 -0.129753
C94   C     C_R   0.633445 0.205766 0.768884 -0.202681
H41   H     H_    0.504929 0.210834 0.584519 0.116094
H42   H     H_    0.417022 0.211862 0.756236 0.141154
H43   H     H_    0.467057 0.205360 0.937730 0.130024
H44   H     H_    0.605523 0.200693 0.945684 0.134417
H45   H     H_    0.693704 0.202365 0.774323 0.131826
C95   C     C_R   0.393811 0.790679 0.335150 0.111456
C96   C     C_R   0.366184 0.794772 0.231124 -0.202492
C97   C     C_R   0.415882 0.796432 0.133331 -0.129794
C98   C     C_R   0.493883 0.793664 0.137471 -0.110327
C99   C     C_R   0.522164 0.789355 0.239417 -0.105956
C100  C     C_R   0.472435 0.788088 0.337164 -0.082353
H46   H     H_    0.305906 0.798276 0.225915 0.131737
H47   H     H_    0.393859 0.800407 0.054379 0.134578
H48   H     H_    0.532362 0.795516 0.061848 0.130047
H49   H     H_    0.582670 0.788318 0.243027 0.141121
H50   H     H_    0.495006 0.788951 0.414946 0.116167
C101  C     C_R   0.425405 0.245686 0.422015 0.052482
C102  C     C_R   0.457087 0.306757 0.468383 -0.201638
C103  C     C_R   0.527082 0.332418 0.422470 -0.137227
C104  C     C_R   0.565364 0.298439 0.328206 -0.102890
C105  C     C_R   0.533144 0.239435 0.278890 -0.131204
C106  C     C_R   0.463191 0.213604 0.324737 -0.109740
H51   H     H_    0.428869 0.332566 0.542844 0.129369
H52   H     H_    0.551908 0.378283 0.460531 0.129177
H53   H     H_    0.619803 0.318000 0.293149 0.127244
H54   H     H_    0.562368 0.213642 0.204988 0.134446
H55   H     H_    0.439148 0.168916 0.283666 0.151980
C107  C     C_R   0.574509 0.754359 0.578073 0.052695
C108  C     C_R   0.536737 0.786464 0.675336 -0.109648
C109  C     C_R   0.466741 0.760703 0.721144 -0.130988
C110  C     C_R   0.434472 0.701735 0.671825 -0.102919
C111  C     C_R   0.472732 0.667740 0.577575 -0.137336
C112  C     C_R   0.542747 0.693354 0.531671 -0.201840
H56   H     H_    0.560806 0.831133 0.716405 0.151779
H57   H     H_    0.437514 0.786531 0.795005 0.134448
H58   H     H_    0.380003 0.682227 0.706848 0.127247
H59   H     H_    0.447862 0.621916 0.539487 0.129193
H60   H     H_    0.570899 0.667586 0.457155 0.129306
C113  C     C_R   0.106002 0.709489 0.664688 0.111362
C114  C     C_R   0.027400 0.711988 0.662418 -0.082046
C115  C     C_R   0.977537 0.710924 0.760057 -0.106046
C116  C     C_R   0.005661 0.706920 0.862168 -0.110262
C117  C     C_R   0.083640 0.704225 0.866572 -0.129745
C118  C     C_R   0.133469 0.705659 0.768876 -0.202639
H61   H     H_    0.004960 0.710922 0.584529 0.116145
H62   H     H_    0.917051 0.711901 0.756245 0.141131
H63   H     H_    0.967080 0.705254 0.937719 0.130035
H64   H     H_    0.105543 0.700496 0.945660 0.134452
H65   H     H_    0.193727 0.702220 0.774307 0.131778
C119  C     C_R   0.893810 0.290673 0.335162 0.111446
C120  C     C_R   0.866189 0.294750 0.231130 -0.202467
C121  C     C_R   0.915891 0.296396 0.133339 -0.129796
C122  C     C_R   0.993892 0.293634 0.137489 -0.110321
C123  C     C_R   0.022167 0.289343 0.239440 -0.105964
C124  C     C_R   0.972434 0.288089 0.337185 -0.082342
H66   H     H_    0.805911 0.298247 0.225913 0.131743
H67   H     H_    0.893872 0.300357 0.054382 0.134573
H68   H     H_    0.032374 0.295475 0.061867 0.130041
H69   H     H_    0.082672 0.288311 0.243058 0.141118
H70   H     H_    0.995000 0.288968 0.414970 0.116172
C125  C     C_R   0.925401 0.745714 0.422060 0.052432
C126  C     C_R   0.957010 0.806830 0.468415 -0.201554
C127  C     C_R   0.027008 0.832519 0.422566 -0.137264
C128  C     C_R   0.065378 0.798510 0.328392 -0.102904
C129  C     C_R   0.033235 0.739458 0.279087 -0.131221
C130  C     C_R   0.963268 0.713611 0.324854 -0.109893
H71   H     H_    0.928722 0.832664 0.542809 0.129367
H72   H     H_    0.051769 0.878426 0.460611 0.129172
H73   H     H_    0.119825 0.818086 0.293394 0.127252
H74   H     H_    0.062532 0.713640 0.205255 0.134520
H75   H     H_    0.939276 0.668899 0.283771 0.152075
C131  C     C_R   0.074514 0.254358 0.578062 0.052686
C132  C     C_R   0.036744 0.286460 0.675326 -0.109650
C133  C     C_R   0.966746 0.260703 0.721128 -0.130989
C134  C     C_R   0.934473 0.201740 0.671800 -0.102946
C135  C     C_R   0.972732 0.167746 0.577550 -0.137354
C136  C     C_R   0.042750 0.193356 0.531654 -0.201839
H76   H     H_    0.060815 0.331125 0.716399 0.151794
H77   H     H_    0.937520 0.286529 0.794990 0.134457
H78   H     H_    0.880001 0.182236 0.706817 0.127241
H79   H     H_    0.947858 0.121927 0.539456 0.129188
H80   H     H_    0.070900 0.167590 0.457136 0.129307

loop_
_geom_bond_atom_site_label_1
_geom_bond_atom_site_label_2
_geom_bond_distance
_ccdc_geom_bond_type
C99   H49   1.082597 S    
C6    C28   1.432290 S    
C98   C99   1.395160 A    
C38   H1    1.080160 S    
C18   C62   1.419818 A    
C107  C108  1.406182 A    
C7    C25   1.431856 S    
O16   Zn4   2.022031 S    
O2    C2    1.296729 A    
C96   C97   1.398491 A    
O13   Zn4   2.013436 S    
C49   C57   1.405865 A    
C33   C54   1.399023 A    
O10   Zn1   2.013438 S    
C56   C59   1.426269 A    
O14   Zn3   2.013438 S    
C105  C106  1.398698 A    
C126  C127  1.398426 A    
C51   C59   1.404255 A    
C86   C87   1.397220 A    
C41   H6    1.080163 S    
C29   C37   1.366469 A    
C74   C75   1.397287 A    
C103  C104  1.396236 A    
C99   C100  1.398000 A    
C19   C63   1.419782 A    
C45   C95   1.513969 S    
O11   C3    1.311775 A    
C89   C90   1.402479 A    
C134  H78   1.082566 S    
C13   H17   1.079637 S    
C117  H64   1.082652 S    
C11   N4    1.381551 A    
C19   N4    1.373051 A    
C87   C88   1.399399 A    
C15   H19   1.079641 S    
C121  H67   1.082507 S    
C91   C92   1.395354 A    
C68   H23   1.080223 S    
O7    C7    1.290159 A    
C50   C58   1.405932 A    
C119  C124  1.402471 A    
C24   C39   1.391533 A    
C84   C85   1.395987 A    
C46   C54   1.405951 A    
C42   H5    1.080147 S    
C25   C42   1.389130 A    
C123  H69   1.082599 S    
C11   C83   1.483809 S    
Zn3   N3    2.048388 S    
C133  C134  1.396738 A    
C132  H76   1.076200 S    
C51   C131  1.497003 S    
C73   H27   1.083218 S    
C66   C67   1.399179 A    
C26   C49   1.422378 A    
C15   C64   1.395234 A    
C32   C40   1.374613 A    
C131  C136  1.406952 A    
C90   C91   1.398096 A    
C31   C60   1.400996 A    
C81   H34   1.082880 S    
C33   C41   1.366483 A    
C76   H30   1.082341 S    
C10   C14   1.395284 A    
C67   C68   1.396889 A    
C23   C48   1.410166 A    
O6    Zn4   1.960530 S    
C54   C57   1.427091 A    
C35   C43   1.374468 A    
C116  H63   1.082584 S    
C22   C45   1.422374 A    
C132  C133  1.398703 A    
C36   C44   1.374620 A    
C20   I3    2.122791 S    
O3    C3    1.290149 A    
C67   H22   1.082036 S    
C32   C59   1.400980 A    
C55   C60   1.426261 A    
C86   H38   1.080462 S    
C17   I2    2.122816 S    
C101  C106  1.406245 A    
C20   C64   1.419816 A    
C50   C113  1.514098 S    
O15   C7    1.311768 A    
C111  C112  1.398375 A    
C79   H32   1.082031 S    
O16   C8    1.311826 A    
C36   C55   1.400980 A    
C134  C135  1.396069 A    
C16   C63   1.395187 A    
O8    Zn3   1.999849 S    
C20   N3    1.373101 A    
C84   H36   1.067075 S    
C118  H65   1.083301 S    
C22   C37   1.389162 A    
C68   C69   1.393656 A    
C40   H3    1.079820 S    
C93   C94   1.398630 A    
C126  H71   1.081276 S    
C97   H47   1.082503 S    
C31   H15   1.082027 S    
C95   C100  1.402472 A    
Zn4   N4    2.048388 S    
C30   H14   1.080378 S    
C29   C58   1.399001 A    
C26   C41   1.389189 A    
C33   H9    1.080420 S    
C108  C109  1.398723 A    
C30   C38   1.366420 A    
C9    C71   1.483828 S    
C81   C82   1.395790 A    
C123  C124  1.398007 A    
C125  C126  1.407127 A    
C35   H11   1.082031 S    
C77   C82   1.399601 A    
C114  C115  1.398083 A    
C45   C53   1.405867 A    
C27   C44   1.391620 A    
C121  C122  1.395218 A    
C78   C79   1.399180 A    
C28   C43   1.391546 A    
C34   C42   1.366428 A    
C11   C15   1.395331 A    
C78   H31   1.082139 S    
C117  C118  1.398615 A    
C52   C125  1.496952 S    
C135  H79   1.082367 S    
C32   H16   1.082026 S    
C94   H45   1.083314 S    
C69   H24   1.082879 S    
O5    C5    1.296778 A    
C133  H77   1.082492 S    
Zn2   N2    2.048388 S    
O3    Zn2   1.999848 S    
C122  C123  1.395165 A    
C1    C23   1.432514 S    
C17   C61   1.419780 A    
C85   H37   1.083172 S    
C2    C24   1.432267 S    
C34   C53   1.398950 A    
C131  C132  1.406163 A    
C129  C130  1.398729 A    
C18   I1    2.122783 S    
C120  C121  1.398495 A    
C53   C58   1.427080 A    
O12   C4    1.311817 A    
O1    Zn1   1.960529 S    
C127  C128  1.396264 A    
C72   C73   1.396030 A    
O13   C5    1.307120 A    
C49   C119  1.513979 S    
C14   H18   1.079653 S    
C109  H57   1.082504 S    
C116  C117  1.395258 A    
C104  C105  1.396817 A    
C10   C65   1.483696 S    
C12   C16   1.395286 A    
C130  H75   1.076279 S    
C136  H80   1.081028 S    
C23   C40   1.391615 A    
C35   C56   1.400994 A    
C90   H41   1.069537 S    
C43   H8    1.079824 S    
O9    C1    1.307109 A    
C95   C96   1.413182 A    
Zn1   N1    2.048388 S    
C110  C111  1.396085 A    
C10   N1    1.381598 A    
C114  H61   1.069512 S    
C18   N1    1.373104 A    
C79   C80   1.396887 A    
C17   N2    1.373047 A    
C47   C55   1.404258 A    
C128  H73   1.082593 S    
C63   C64   1.403365 A    
C107  C112  1.406953 A    
C77   C78   1.408548 A    
C30   C57   1.398950 A    
C80   H33   1.080224 S    
C71   C72   1.399813 A    
C69   C70   1.395788 A    
C115  H62   1.082628 S    
C124  H70   1.069427 S    
C36   H12   1.082024 S    
C135  C136  1.398368 A    
C39   H4    1.079827 S    
C61   C62   1.403367 A    
O7    Zn4   1.999848 S    
C48   C101  1.496955 S    
O12   Zn2   2.022031 S    
C25   C50   1.422414 A    
C71   C76   1.408831 A    
C14   C61   1.395179 A    
C83   C88   1.408768 A    
C13   C62   1.395241 A    
C93   H44   1.082691 S    
C85   C86   1.393949 A    
C21   C38   1.389141 A    
O4    Zn1   1.999849 S    
C4    C22   1.431847 S    
C103  H52   1.082442 S    
O15   Zn3   2.022030 S    
C21   C46   1.422446 A    
C101  C102  1.407126 A    
C48   C56   1.404201 A    
C98   H48   1.082501 S    
C80   C81   1.393663 A    
O1    C1    1.296776 A    
C127  H72   1.082451 S    
C44   H7    1.079821 S    
C113  C114  1.402459 A    
O2    Zn2   1.960530 S    
C19   I4    2.122806 S    
C16   H20   1.079653 S    
C120  H66   1.083264 S    
C8    C26   1.431834 S    
C109  C110  1.396736 A    
C12   C77   1.483648 S    
C92   H43   1.082592 S    
C88   H40   1.082319 S    
C47   C107  1.497015 S    
O9    Zn2   2.013436 S    
C52   C60   1.404197 A    
C105  H54   1.082596 S    
C92   C93   1.395270 A    
C125  C130  1.406269 A    
C37   H2    1.080153 S    
O14   C6    1.307051 A    
C74   H28   1.080535 S    
C9    N2    1.381536 A    
C70   H25   1.066878 S    
C100  H50   1.069425 S    
O10   C2    1.307049 A    
C65   C70   1.399602 A    
C66   H21   1.082146 S    
O8    C8    1.290095 A    
C82   H35   1.066900 S    
C96   H46   1.083260 S    
C75   H29   1.082251 S    
C129  H74   1.082624 S    
C113  C118  1.413391 A    
C104  H53   1.082580 S    
C112  H60   1.081041 S    
C5    C27   1.432527 S    
C27   C52   1.410178 A    
C34   H10   1.080365 S    
C102  H51   1.081266 S    
C29   H13   1.080392 S    
C87   H39   1.082183 S    
O4    C4    1.290112 A    
C111  H59   1.082362 S    
C3    C21   1.431844 S    
C72   H26   1.067064 S    
C31   C39   1.374449 A    
C119  C120  1.413187 A    
O11   Zn1   2.022030 S    
C128  C129  1.396816 A    
C97   C98   1.395213 A    
C65   C66   1.408569 A    
C108  H56   1.076212 S    
C83   C84   1.399809 A    
C91   H42   1.082642 S    
C24   C47   1.410149 A    
C28   C51   1.410147 A    
C115  C116  1.395311 A    
O5    Zn3   1.960529 S    
C73   C74   1.394037 A    
C122  H68   1.082504 S    
C89   C94   1.413457 A    
C106  H55   1.076278 S    
C46   C89   1.514154 S    
C102  C103  1.398430 A    
C110  H58   1.082577 S    
C9    C13   1.395329 A    
C75   C76   1.399501 A    
C12   N3    1.381563 A    
O6    C6    1.296735 A    
