data_mof_unit_20095.cif
_audit_creation_date              2013-03-05T15:45:35-0500
_audit_creation_method            fapswitch 2.2
_symmetry_space_group_name_H-M    P1
_symmetry_Int_Tables_number       1
_space_group_crystal_system       triclinic
_cell_length_a                    8.449052
_cell_length_b                    14.687683
_cell_length_c                    19.268021
_cell_angle_alpha                 93.047465
_cell_angle_beta                  94.921438
_cell_angle_gamma                 91.583535
_cell_volume                      2377.67334188

loop_
_atom_site_label
_atom_site_type_symbol
_atom_site_description
_atom_site_fract_x
_atom_site_fract_y
_atom_site_fract_z
_atom_type_partial_charge
P1    P     P_3+3 0.937730 0.712710 0.546710 0.515232
O1    O     O_2   0.108370 0.727470 0.525290 -0.340337
O2    O     O_3   0.865330 0.611210 0.531230 -0.355444
O3    O     O_3   0.346360 0.671710 0.401620 -0.340309
O4    O     O_2   0.221632 0.828484 0.444028 -0.364723
O5    O     O_3   0.968562 0.744914 0.636677 -0.552708
O6    O     O_3   0.347368 0.843927 0.329175 -0.525980
C1    C     C_3   0.449990 0.892115 0.224277 -0.792281
H1    H     H_    0.346713 0.869276 0.187944 0.226092
H2    H     H_    0.431997 0.962429 0.243931 0.293515
P2    P     P_3+3 0.357970 0.428340 0.344000 0.512541
P3    P     P_3+3 0.893668 0.614257 0.276176 0.551188
O7    O     O_2   0.182890 0.456530 0.332150 -0.340721
O8    O     O_3   0.933230 0.625130 0.368420 -0.354973
O9    O     O_2   0.035165 0.568121 0.244045 -0.358717
O10   O     O_3   0.347895 0.309829 0.329443 -0.582832
O11   O     O_3   0.874726 0.721217 0.240487 -0.509688
C2    C     C_3   0.023485 0.763625 0.234549 0.349441
H3    H     H_    0.090734 0.721989 0.197211 0.142969
H4    H     H_    0.090612 0.771811 0.287179 0.185709
C3    C     C_3   0.995461 0.855931 0.202109 -0.692839
H5    H     H_    0.093060 0.873297 0.169943 0.169638
C4    C     C_3   0.728445 0.296142 0.326215 0.194615
H6    H     H_    0.634707 0.316675 0.359927 0.097753
C5    C     C_3   0.641459 0.235930 0.265725 0.336899
H7    H     H_    0.534782 0.271175 0.244905 0.075828
Ba1   Ba    Ba6+2 0.150350 0.545800 0.464500 1.659111
C6    C     C_3   0.967987 0.672036 0.680261 0.421407
H8    H     H_    0.090718 0.647511 0.687555 0.113666
H9    H     H_    0.880158 0.617977 0.660399 0.158506
C7    C     C_3   0.923528 0.705218 0.751890 -0.930105
H10   H     H_    0.999730 0.765316 0.772015 0.275058
H11   H     H_    0.940264 0.649789 0.788619 0.255214
H12   H     H_    0.797080 0.723953 0.749059 0.259864
C8    C     C_3   0.262515 0.267653 0.378220 0.361113
H13   H     H_    0.161868 0.309286 0.392586 0.109117
H14   H     H_    0.345876 0.257118 0.424580 0.075571
C9    C     C_3   0.194888 0.174449 0.346919 -0.902522
H15   H     H_    0.089203 0.153643 0.373005 0.190019
H16   H     H_    0.282237 0.120885 0.357058 0.224230
P4    P     P_3+3 0.872570 0.287280 0.453240 0.493397
O12   O     O_2   0.701930 0.272470 0.474700 -0.369632
O13   O     O_3   0.944970 0.388780 0.468720 -0.375078
O14   O     O_3   0.463940 0.328280 0.598320 -0.357270
O15   O     O_3   0.848472 0.250672 0.363545 -0.577923
P5    P     P_3+3 0.899928 0.380383 0.724208 0.466666
O16   O     O_3   0.372010 0.546630 0.581240 -0.409235
O17   O     O_3   0.877070 0.374860 0.631520 -0.362527
O18   O     O_2   0.767944 0.440620 0.750634 -0.400462
O19   O     O_3   0.866767 0.274408 0.760963 -0.562987
Ba2   Ba    Ba6+2 0.659830 0.454190 0.535450 1.587754
P6    P     P_3+3 0.369116 0.792858 0.410610 0.498150
C10   C     C_3   0.473255 0.829435 0.285698 0.254827
H17   H     H_    0.555658 0.892891 0.193374 0.247158
O20   O     O_3   0.438280 0.453360 0.418700 -0.397137
C11   C     C_3   0.511009 0.736269 0.631104 0.345453
H18   H     H_    0.618734 0.704547 0.612584 0.066419
H19   H     H_    0.415348 0.733766 0.587594 0.111811
C12   C     C_3   0.555588 0.835934 0.654160 -0.730220
H20   H     H_    0.654336 0.837857 0.696100 0.206569
H21   H     H_    0.599187 0.871475 0.609921 0.137356
P7    P     P_3+3 0.449680 0.573437 0.668630 0.459468
O21   O     O_2   0.627420 0.543410 0.667830 -0.371686
O22   O     O_3   0.459377 0.691383 0.687940 -0.542265
H22   H     H_    0.886246 0.850683 0.165280 0.230518
C13   C     C_3   0.871381 0.199812 0.711919 0.347668
H23   H     H_    0.803578 0.213416 0.661930 0.124196
C14   C     C_3   0.794794 0.115520 0.740862 -0.788050
H24   H     H_    0.674005 0.128418 0.754476 0.280192
H25   H     H_    0.788258 0.057109 0.701447 0.236193
H26   H     H_    0.863642 0.096164 0.789341 0.262791
P8    P     P_3+3 0.438650 0.209187 0.597718 0.485484
C15   C     C_3   0.458694 0.262769 0.729016 0.475458
H27   H     H_    0.369592 0.312474 0.711618 0.130255
O23   O     O_2   0.587536 0.167015 0.569539 -0.436872
O24   O     O_3   0.450805 0.181993 0.685586 -0.522818
H28   H     H_    0.577700 0.295741 0.729588 0.145915
H29   H     H_    0.299373 0.224340 0.806025 0.269614
C16   C     C_3   0.427279 0.241573 0.803226 -0.971626
H30   H     H_    0.460517 0.302562 0.838311 0.226105
H31   H     H_    0.497844 0.184021 0.822083 0.283937
C17   C     C_R   0.009967 0.940143 0.536085 -0.108487
C18   C     C_R   0.816168 0.805989 0.508261 0.233882
C19   C     C_R   0.661650 0.777517 0.484181 -0.450378
C20   C     C_R   0.548083 0.839128 0.463214 0.181662
C21   C     C_R   0.585942 0.933155 0.467199 -0.240221
C22   C     C_R   0.742595 0.965836 0.487412 0.105060
C23   C     C_R   0.858422 0.903007 0.511273 -0.032711
H32   H     H_    0.629549 0.705410 0.479811 0.162733
C24   C     C_R   0.937521 0.096935 0.503931 -0.058439
C25   C     C_R   0.050372 0.034598 0.532542 0.094399
C26   C     C_R   0.986022 0.192611 0.499419 0.208806
C27   C     C_R   0.143789 0.216569 0.520725 -0.365034
C28   C     C_R   0.250561 0.158513 0.552370 0.345654
C29   C     C_R   0.204922 0.067017 0.557246 -0.318828
C30   C     C_R   0.784337 0.059853 0.481217 -0.044484
H33   H     H_    0.497259 0.979626 0.447709 0.171886
H34   H     H_    0.289291 0.021504 0.581260 0.157325
H35   H     H_    0.188407 0.281077 0.509013 0.118335
H36   H     H_    0.099007 0.895749 0.557694 0.182348
H37   H     H_    0.696005 0.103463 0.458081 0.191448
C31   C     C_R   0.593080 0.537426 0.293379 -0.441500
C32   C     C_R   0.458908 0.482284 0.273504 0.178210
C33   C     C_R   0.414698 0.462987 0.200916 0.186421
C34   C     C_R   0.513080 0.495694 0.150337 -0.136993
C35   C     C_R   0.663198 0.534825 0.174080 -0.158068
C36   C     C_R   0.703799 0.554713 0.245524 0.393958
C37   C     C_R   0.448174 0.572685 0.035082 -0.177169
C38   C     C_R   0.393757 0.567565 0.963060 -0.156678
C39   C     C_R   0.353334 0.481761 0.928370 0.077923
C40   C     C_R   0.366257 0.402918 0.966413 -0.171706
C41   C     C_R   0.421848 0.407985 0.037199 -0.020231
C42   C     C_R   0.461067 0.492322 0.073245 0.107336
C43   C     C_R   0.149924 0.434418 0.828645 -0.199645
C44   C     C_R   0.095396 0.433107 0.757695 0.236604
C45   C     C_R   0.341036 0.511235 0.732617 0.196866
C46   C     C_R   0.395677 0.512035 0.803429 -0.209220
C47   C     C_R   0.300423 0.473923 0.852197 0.042359
C48   C     C_R   0.192256 0.470710 0.710544 -0.506466
H38   H     H_    0.510074 0.544257 0.820824 0.156630
H39   H     H_    0.334543 0.336638 0.941051 0.146509
H40   H     H_    0.433214 0.345390 0.064243 0.166786
H41   H     H_    0.074914 0.405926 0.865419 0.163113
H42   H     H_    0.745344 0.554284 0.136906 0.188458
H43   H     H_    0.619485 0.559563 0.347743 0.207622
C49   C     C_2   0.462207 0.734788 0.253325 0.959885
O25   O     O_2   0.558248 0.712453 0.212688 -0.652145
O26   O     O_R   0.334710 0.676351 0.263229 -0.766398
H44   H     H_    0.317554 0.627099 0.224420 0.329278
Br1   Br    Br    0.572933 0.124086 0.302586 -0.526097
Br2   Br    Br    0.752183 0.204871 0.183965 -0.326292
C50   C     C_2   0.147168 0.177646 0.269820 1.369336
O27   O     O_2   0.075322 0.242637 0.248614 -0.475181
O28   O     O_R   0.186658 0.109679 0.221633 -0.738761
H45   H     H_    0.239753 0.057306 0.244851 0.300373
C51   C     C_2   0.637327 0.852195 0.321738 0.941606
O29   O     O_2   0.684338 0.931630 0.331179 -0.593149
O30   O     O_R   0.734972 0.783091 0.345001 -0.802822
H46   H     H_    0.843982 0.807336 0.365211 0.341268
C52   C     C_2   0.420277 0.888272 0.680462 1.151081
O31   O     O_2   0.445331 0.966822 0.703810 -0.637070
O32   O     O_R   0.267731 0.848343 0.678571 -0.766846
H47   H     H_    0.188253 0.891460 0.697637 0.332920
C53   C     C_2   0.039473 0.179249 0.699091 0.918647
O33   O     O_2   0.118958 0.235974 0.672716 -0.668706
O34   O     O_R   0.103876 0.095689 0.716414 -0.802638
H48   H     H_    0.217299 0.089499 0.704684 0.378889
C54   C     C_2   0.371995 0.652513 0.924710 1.027497
O35   O     O_2   0.478983 0.710803 0.927883 -0.604943
O36   O     O_R   0.229400 0.665101 0.884442 -0.785668
H49   H     H_    0.229897 0.724677 0.860192 0.337468
C55   C     C_2   0.480795 0.663671 0.069887 1.118259
O37   O     O_2   0.370605 0.707902 0.089289 -0.647272
O38   O     O_R   0.634849 0.702058 0.074169 -0.742496
H50   H     H_    0.640745 0.767548 0.093957 0.350821
Br3   Br    Br    0.214908 0.401646 0.170967 -0.354099
C56   C     C_2   0.142872 0.463481 0.636463 1.155372
O39   O     O_2   0.055395 0.518017 0.609646 -0.628815
O40   O     O_R   0.200396 0.395102 0.595706 -0.754251
H51   H     H_    0.194604 0.412523 0.545727 0.333416
C57   C     C_2   0.981119 0.933800 0.254845 1.153521
O41   O     O_2   0.065352 0.939555 0.310073 -0.626997
O42   O     O_R   0.877003 0.003066 0.238153 -0.697551
H52   H     H_    0.882954 0.053810 0.276130 0.361316
C58   C     C_2   0.804624 0.379609 0.305743 0.840054
O43   O     O_2   0.868205 0.384332 0.251431 -0.524736
O44   O     O_R   0.826370 0.447811 0.357876 -0.785415
H53   H     H_    0.937640 0.471925 0.362123 0.393584

loop_
_geom_bond_atom_site_label_1
_geom_bond_atom_site_label_2
_geom_bond_distance
_ccdc_geom_bond_type
C1    H1    1.103662 S    
C13   C14   1.534126 S    
C22   C23   1.427765 A    
C58   O43   1.220913 D    
C4    O15   1.398281 S    
C38   C39   1.413911 A    
C40   H39   1.082051 S    
C2    C3    1.538595 S    
C15   H27   1.106889 S    
O42   H52   1.013449 S    
P8    O24   1.755219 S    
C31   H43   1.082784 S    
O26   H44   1.010725 S    
C39   C47   1.494616 S    
O16   P7    1.773875 S    
C57   O41   1.226043 D    
C29   H34   1.082465 S    
C20   C21   1.405550 A    
C11   H18   1.110996 S    
P7    C45   1.861431 S    
P5    O18   1.545835 D    
C49   O25   1.214740 D    
P5    C44   1.853883 S    
O3    P6    1.782071 S    
C18   C19   1.392781 A    
C34   C42   1.510298 S    
C6    H8    1.107167 S    
C8    H14   1.109380 S    
C54   O36   1.398170 S    
O6    P6    1.772476 S    
P1    O1    1.546061 D    
O10   C8    1.393180 S    
C9    H15   1.105261 S    
C1    H2    1.100029 S    
Ba1   O20   2.993977 S    
C13   C53   1.498437 S    
C35   C36   1.403082 A    
C37   C38   1.421381 A    
C2    H3    1.121147 S    
P4    O12   1.546429 D    
O32   H47   1.013927 S    
C21   H33   1.084236 S    
C15   H28   1.102843 S    
C39   C40   1.404917 A    
C33   C34   1.427651 A    
P7    O22   1.750586 S    
C4    C58   1.457455 S    
O17   Ba2   2.813832 S    
O5    C6    1.395365 S    
C40   C41   1.401329 A    
C50   O27   1.215554 D    
P3    O11   1.753965 S    
C4    H6    1.104896 S    
C7    H11   1.110890 S    
O4    P6    1.542423 D    
O14   P8    1.755631 S    
O1    Ba1   2.899816 S    
O8    Ba1   2.813335 S    
C27   H35   1.052777 S    
Ba2   O20   2.799618 S    
O12   Ba2   2.900378 S    
P8    C28   1.862831 S    
C18   C23   1.456328 A    
C12   H20   1.109273 S    
C58   O44   1.377473 S    
C37   C55   1.471140 S    
C3    H5    1.105468 S    
C56   O39   1.210815 D    
P4    O13   1.598955 S    
C28   C29   1.398032 A    
C10   C51   1.516643 S    
P8    O23   1.544472 D    
C5    Br1   1.918410 S    
C41   C42   1.404631 A    
C57   O42   1.395709 S    
Ba1   Ba2   4.659949 S    
C43   C44   1.403607 A    
C6    C7    1.520194 S    
C52   O31   1.221976 D    
P5    O17   1.777046 S    
C12   H21   1.106961 S    
C3    C57   1.503490 S    
P1    O5    1.767785 S    
C8    C9    1.540817 S    
Ba2   O21   2.842989 S    
C54   O35   1.223110 D    
C51   O30   1.393884 S    
O30   H46   1.016030 S    
C46   H38   1.082964 S    
C1    H17   1.114963 S    
O44   H53   0.990599 S    
C16   H31   1.106954 S    
O2    Ba2   2.857091 S    
H29   C16   1.109584 S    
C14   H24   1.094331 S    
O16   Ba2   2.993123 S    
C5    H7    1.107748 S    
C33   Br3   1.920342 S    
C17   C25   1.426109 A    
P1    O2    1.598954 S    
C8    H13   1.106710 S    
C9    C50   1.509092 S    
C37   C42   1.425276 A    
C41   H40   1.083153 S    
P7    O21   1.577912 D    
P2    O10   1.746885 S    
C24   C26   1.462019 A    
O40   H51   1.006992 S    
P3    O9    1.548835 D    
P2    Ba1   3.447388 S    
C48   C56   1.449852 S    
C22   C30   1.429444 A    
C11   O22   1.402529 S    
O11   C2    1.403489 S    
C15   C16   1.523105 S    
C7    H12   1.108127 S    
C31   C36   1.396264 A    
C27   C28   1.384243 A    
C19   C20   1.386782 A    
O19   C13   1.411940 S    
O38   H50   1.014000 S    
C43   C47   1.411283 A    
C50   O28   1.393898 S    
C43   H41   1.082953 S    
O14   Ba2   2.835452 S    
C53   O34   1.401097 S    
C55   O38   1.398191 S    
C44   C48   1.398618 A    
C15   O24   1.411653 S    
C38   C54   1.491295 S    
C19   H32   1.083057 S    
O6    C10   1.422955 S    
C5    Br2   1.940380 S    
O3    Ba1   2.836163 S    
P2    O20   1.558694 S    
O34   H48   1.008721 S    
Ba1   O16   2.800033 S    
P6    C20   1.839199 S    
C49   O26   1.391085 S    
C3    H22   1.113062 S    
C21   C22   1.410845 A    
C17   H36   1.080138 S    
C7    H10   1.110582 S    
C52   O32   1.397985 S    
C51   O29   1.221277 D    
C1    C10   1.540355 S    
P3    C36   1.841776 S    
C11   C12   1.534192 S    
C24   C30   1.414844 A    
O28   H45   1.007131 S    
P1    C18   1.880403 S    
C34   C35   1.407315 A    
P5    O19   1.769177 S    
C45   C48   1.398329 A    
C53   O33   1.214944 D    
C6    H9    1.101799 S    
P3    O8    1.777964 S    
C46   C47   1.415909 A    
C9    H16   1.107009 S    
P2    O7    1.548460 D    
O13   Ba2   2.984673 S    
C24   C25   1.436336 A    
C12   C52   1.503782 S    
C14   H26   1.111692 S    
C17   C23   1.412153 A    
O2    Ba1   2.983810 S    
C26   C27   1.390686 A    
C11   H19   1.111863 S    
C45   C46   1.401720 A    
C13   H23   1.108127 S    
C2    H4    1.117608 S    
C4    C5    1.545378 S    
C31   C32   1.389067 A    
C10   C49   1.490278 S    
C25   C29   1.411847 A    
C16   H30   1.107897 S    
Ba1   O13   2.856493 S    
P4    C26   1.924276 S    
C55   O37   1.223059 D    
C56   O40   1.367549 S    
C35   H42   1.082856 S    
C32   C33   1.427722 A    
P1    Ba1   3.473477 S    
C14   H25   1.112097 S    
P4    O15   1.775428 S    
O36   H49   1.013717 S    
O7    Ba1   2.842986 S    
P2    C32   1.864386 S    
C30   H37   1.079679 S    
P4    Ba2   3.474058 S    
