data_mof_unit_62329.cif
_audit_creation_date              2012-12-10T20:43:41-0500
_audit_creation_method            fapswitch 2.2
_symmetry_space_group_name_H-M    P1
_symmetry_Int_Tables_number       1
_space_group_crystal_system       triclinic
_cell_length_a                    10.820194
_cell_length_b                    19.252613
_cell_length_c                    19.222021
_cell_angle_alpha                 94.629298
_cell_angle_beta                  91.989308
_cell_angle_gamma                 96.544105
_cell_volume                      3961.30539226

loop_
_atom_site_label
_atom_site_type_symbol
_atom_type_description
_atom_site_fract_x
_atom_site_fract_y
_atom_site_fract_z
_atom_type_partial_charge
C1    C     C_R   0.512959 0.689931 0.508033 0.808433
C2    C     C_R   0.516996 0.766687 0.509674 -0.140524
C3    C     C_R   0.525891 0.807876 0.574368 0.069128
C4    C     C_R   0.488190 0.309806 0.491417 0.807419
C5    C     C_R   0.533923 0.880945 0.575676 0.098949
C6    C     C_R   0.474031 0.504434 0.765275 -0.026685
C7    C     C_R   0.512834 0.448777 0.801308 0.024858
C8    C     C_R   0.499163 0.448893 0.874100 0.064045
C9    C     C_R   0.448433 0.504907 0.910468 0.303070
C10   C     C_R   0.406005 0.557924 0.873937 -0.239185
C11   C     C_R   0.419243 0.558041 0.802196 -0.262484
C12   C     C_R   0.585442 0.201132 0.515490 0.083745
C13   C     C_R   0.409361 0.486283 0.120869 -0.224631
C14   C     C_R   0.405107 0.483732 0.193252 0.035510
C15   C     C_R   0.524349 0.496873 0.088958 0.283976
C16   C     C_R   0.512943 0.493043 0.311072 0.833546
C17   C     C_R   0.516828 0.491870 0.234616 -0.014968
C18   C     C_R   0.632482 0.501403 0.202614 0.053912
C19   C     C_R   0.634655 0.503429 0.129956 -0.230884
C20   C     C_R   0.485782 0.506007 0.689045 0.817482
C21   C     C_R   0.835197 0.515359 0.515343 0.851858
C22   C     C_R   0.163974 0.485105 0.485098 0.892251
C23   C     C_R   0.576574 0.127999 0.513838 -0.258267
C24   C     C_2   0.029071 0.479337 0.479337 -0.347248
C25   C     C_2   0.968509 0.521141 0.521101 -0.288972
C26   C     C_R   0.485209 0.232843 0.487739 -0.043687
C27   C     C_1   0.504668 0.757749 0.379684 0.217498
C28   C     C_1   0.531190 0.906966 0.383444 0.233486
C29   C     C_R   0.469732 0.085487 0.484455 0.287373
C30   C     C_R   0.371846 0.117105 0.455134 0.104189
C31   C     C_R   0.380234 0.190478 0.456880 -0.295824
C32   C     C_R   0.524444 0.873052 0.448124 -0.063494
C33   C     C_R   0.516259 0.799508 0.446464 -0.110486
C34   C     C_R   0.530910 0.913670 0.513011 0.157375
H1    H     H_    0.978702 0.440860 0.440899 0.142901
H2    H     H_    0.757557 0.211945 0.566875 0.174275
H3    H     H_    0.237921 0.427825 0.202987 0.191287
H4    H     H_    0.237083 0.515837 0.211856 0.183234
H5    H     H_    0.823503 0.517980 0.212882 0.182764
H6    H     H_    0.754732 0.459367 0.263529 0.165031
H7    H     H_    0.480596 0.345325 0.890216 0.178786
H8    H     H_    0.627354 0.387192 0.905093 0.182508
H9    H     H_    0.652270 0.388038 0.784316 0.187343
H10   H     H_    0.506194 0.344964 0.770126 0.177104
H11   H     H_    0.202307 0.104937 0.401581 0.181973
H12   H     H_    0.322596 0.479681 0.089926 0.156406
H13   H     H_    0.217162 0.049980 0.463907 0.186439
H14   H     H_    0.446572 0.745953 0.645184 0.212888
H15   H     H_    0.603030 0.744888 0.639275 0.172098
H16   H     H_    0.626447 0.956413 0.643702 0.189155
H17   H     H_    0.469242 0.951614 0.644748 0.193984
H18   H     H_    0.364638 0.600160 0.901556 0.161993
H19   H     H_    0.387357 0.600652 0.775598 0.180539
H20   H     H_    0.722855 0.510249 0.104866 0.144414
H21   H     H_    0.016507 0.560010 0.559892 0.161392
H22   H     H_    0.303493 0.214604 0.435204 0.171162
H23   H     H_    0.654353 0.104442 0.534984 0.157435
H24   H     H_    0.743050 0.264369 0.502245 0.178884
N1    N     N_2   0.458716 0.010962 0.482167 -0.158157
N2    N     N_1   0.495401 0.724449 0.326470 -0.188603
N3    N     N_1   0.536593 0.934016 0.331829 -0.188746
N4    N     N_3   0.263866 0.074004 0.423856 -0.434351
N5    N     N_3   0.530995 0.776778 0.639653 -0.424307
N6    N     N_3   0.544251 0.921882 0.641786 -0.424999
N7    N     N_2   0.541903 0.987864 0.517043 -0.205716
N8    N     N_2   0.435859 0.507866 0.983661 -0.185994
N9    N     N_2   0.533728 0.497952 0.015625 -0.155026
N10   N     N_3   0.697042 0.243051 0.543955 -0.411600
N11   N     N_3   0.286931 0.474914 0.224852 -0.434606
N12   N     N_3   0.747189 0.507915 0.243993 -0.417662
N13   N     N_3   0.532951 0.391663 0.911329 -0.444222
N14   N     N_3   0.562744 0.391555 0.763736 -0.418598
O1    O     O_3   0.500000 0.500000 0.500000 -0.492495
O2    O     O_R   0.783160 0.551820 0.473170 -0.630307
O3    O     O_R   0.222430 0.530340 0.530340 -0.638098
O4    O     O_R   0.771990 0.472690 0.551320 -0.635612
O5    O     O_R   0.222420 0.445150 0.445160 -0.642804
O6    O     O_R   0.435070 0.449940 0.339290 -0.628750
O7    O     O_R   0.419380 0.543640 0.654290 -0.658523
O8    O     O_R   0.586230 0.658380 0.469080 -0.627844
O9    O     O_R   0.559310 0.348040 0.537340 -0.615513
O10   O     O_R   0.435110 0.654980 0.544320 -0.653184
O11   O     O_R   0.419350 0.338590 0.449260 -0.652329
O12   O     O_R   0.586210 0.538520 0.349230 -0.616886
O13   O     O_R   0.559330 0.467910 0.657200 -0.612700
Zn1   Zn    Zn3+2 0.396020 0.434560 0.434560 0.972863
Zn2   Zn    Zn3+2 0.611960 0.561120 0.448760 0.991812
Zn3   Zn    Zn3+2 0.595990 0.448060 0.560420 0.980902
Zn4   Zn    Zn3+2 0.396040 0.556260 0.556260 0.957290

loop_
_geom_bond_atom_site_label_1
_geom_bond_atom_site_label_2
_ccdc_geom_bond_type
C18   N12   S    
H9    N14   S    
H15   N5    S    
H3    N11   S    
H16   N6    S    
O12   Zn2   S    
C10   H18   S    
H13   N4    S    
C7    C8    A    
C27   C33   S    
C15   C19   A    
C12   N10   S    
C12   C23   A    
O10   Zn4   S    
H6    N12   S    
C23   C29   A    
C18   C19   A    
O8    Zn2   S    
C27   N2    T    
C30   C31   A    
H11   N4    S    
C16   O12   A    
C1    C2    S    
C9    N8    S    
O1    Zn2   S    
C4    O9    A    
C29   N1    S    
C8    C9    A    
C31   H22   S    
C9    C10   A    
O4    Zn3   S    
C11   H19   S    
H7    N13   S    
C28   N3    T    
O6    Zn1   S    
N8    N9    D    
H4    N11   S    
C26   C31   A    
C13   C14   A    
C20   O13   A    
C14   C17   A    
C22   O3    A    
C34   N7    S    
C24   H1    S    
C28   C32   S    
C24   C25   D    
C6    C11   A    
C16   C17   S    
H14   N5    S    
C1    O10   A    
C21   O2    A    
C5    N6    S    
C12   C26   A    
C32   C34   A    
O1    Zn3   S    
C29   C30   A    
C21   O4    A    
C15   N9    S    
C5    C34   A    
C17   C18   A    
C19   H20   S    
H24   N10   S    
O5    Zn1   S    
C30   N4    S    
O2    Zn2   S    
C14   N11   S    
C22   C24   S    
C7    N14   S    
C2    C33   A    
O13   Zn3   S    
C23   H23   S    
C21   C25   S    
C8    N13   S    
C20   O7    A    
H17   N6    S    
C25   H21   S    
C22   O5    A    
C3    C5    A    
C4    C26   S    
H2    N10   S    
C6    C7    A    
C3    N5    S    
C6    C20   S    
C32   C33   A    
C13   C15   A    
C2    C3    A    
O1    Zn4   S    
N1    N7    D    
C13   H12   S    
C4    O11   A    
H8    N13   S    
H5    N12   S    
H10   N14   S    
C16   O6    A    
O1    Zn1   S    
O7    Zn4   S    
O9    Zn3   S    
C10   C11   A    
O3    Zn4   S    
O11   Zn1   S    
C1    O8    A    
