data_mof_unit_58065.cif
_audit_creation_date              2013-03-05T15:41:13-0500
_audit_creation_method            fapswitch 2.2
_symmetry_space_group_name_H-M    P1
_symmetry_Int_Tables_number       1
_space_group_crystal_system       triclinic
_cell_length_a                    16.837746
_cell_length_b                    16.786052
_cell_length_c                    16.810979
_cell_angle_alpha                 69.472796
_cell_angle_beta                  69.146764
_cell_angle_gamma                 68.914241
_cell_volume                      4005.63296801

loop_
_atom_site_label
_atom_site_type_symbol
_atom_site_description
_atom_site_fract_x
_atom_site_fract_y
_atom_site_fract_z
_atom_type_partial_charge
O1    O     O_R   0.124540 0.978640 0.385460 -0.569512
O2    O     O_R   0.875460 0.021360 0.614540 -0.569688
O3    O     O_R   0.978640 0.385460 0.124540 -0.578802
O4    O     O_R   0.021360 0.614540 0.875460 -0.572472
O5    O     O_R   0.385460 0.124540 0.978640 -0.560019
O6    O     O_R   0.614540 0.875460 0.021360 -0.571744
O7    O     O_R   0.614540 0.021360 0.875460 -0.563861
O8    O     O_R   0.385460 0.978640 0.124540 -0.551992
O9    O     O_R   0.875460 0.614540 0.021360 -0.559994
O10   O     O_R   0.124540 0.385460 0.978640 -0.550227
O11   O     O_R   0.021360 0.875460 0.614540 -0.550051
O12   O     O_R   0.978640 0.124540 0.385460 -0.565365
C1    C     C_R   0.325497 0.947197 0.451016 0.003095
C2    C     C_R   0.676714 0.035555 0.554682 -0.028053
C3    C     C_R   0.954464 0.450586 0.323710 -0.022258
C4    C     C_R   0.048947 0.549595 0.674374 -0.018250
C5    C     C_R   0.449169 0.322260 0.959287 -0.037800
C6    C     C_R   0.549326 0.673983 0.051569 -0.023310
C7    C     C_R   0.569887 0.987423 0.692210 -0.006646
C8    C     C_R   0.451229 0.955177 0.321799 0.001196
C9    C     C_R   0.678742 0.547461 0.044407 0.003319
C10   C     C_R   0.319469 0.448843 0.966221 -0.012787
C11   C     C_R   0.042300 0.678759 0.548747 -0.006446
C12   C     C_R   0.961383 0.321682 0.449281 -0.020866
Cu1   Cu    Cu3+1 0.995180 0.995180 0.424630 1.098909
Cu2   Cu    Cu3+1 0.004820 0.004820 0.575370 1.123335
Cu3   Cu    Cu3+1 0.995180 0.424630 0.995180 1.106896
Cu4   Cu    Cu3+1 0.004820 0.575370 0.004820 1.114576
Cu5   Cu    Cu3+1 0.424630 0.995180 0.995180 1.150412
Cu6   Cu    Cu3+1 0.575370 0.004820 0.004820 1.119655
C13   C     C_R   0.023592 0.829367 0.565878 0.849529
C14   C     C_R   0.976007 0.170888 0.434197 0.857285
C15   C     C_R   0.829562 0.566327 0.022313 0.860661
C16   C     C_R   0.171184 0.434542 0.974070 0.854077
C17   C     C_R   0.568981 0.014890 0.831524 0.857606
C18   C     C_R   0.433684 0.977706 0.170394 0.845459
C19   C     C_R   0.435106 0.171523 0.972611 0.842454
C20   C     C_R   0.565992 0.828886 0.023858 0.887809
C21   C     C_R   0.974901 0.434533 0.171177 0.854576
C22   C     C_R   0.024841 0.565620 0.828683 0.861473
C23   C     C_R   0.171172 0.975348 0.434183 0.792699
C24   C     C_R   0.828821 0.024634 0.565886 0.870860
O13   O     O_R   0.013780 0.867370 0.487190 -0.569343
O14   O     O_R   0.986220 0.132630 0.512810 -0.547672
O15   O     O_R   0.867370 0.487190 0.013780 -0.572700
O16   O     O_R   0.132630 0.512810 0.986220 -0.548516
O17   O     O_R   0.487190 0.013780 0.867370 -0.556865
O18   O     O_R   0.512810 0.986220 0.132630 -0.570025
O19   O     O_R   0.512810 0.132630 0.986220 -0.522905
O20   O     O_R   0.487190 0.867370 0.013780 -0.550651
O21   O     O_R   0.986220 0.512810 0.132630 -0.526973
O22   O     O_R   0.013780 0.487190 0.867370 -0.554468
O23   O     O_R   0.132630 0.986220 0.512810 -0.529239
O24   O     O_R   0.867370 0.013780 0.487190 -0.543750
C25   C     C_R   0.411612 0.956996 0.410430 0.058136
C26   C     C_R   0.599386 0.006330 0.599711 0.046751
C27   C     C_R   0.967579 0.408741 0.408427 0.039115
C28   C     C_R   0.037588 0.591291 0.588749 0.034273
C29   C     C_R   0.406216 0.406827 0.974163 0.044002
C30   C     C_R   0.590433 0.587302 0.041618 0.040151
C31   C     C_R   0.268857 0.964347 0.397130 -0.185190
C32   C     C_R   0.731690 0.032449 0.604469 -0.137096
C33   C     C_R   0.962432 0.398154 0.268994 -0.161345
C34   C     C_R   0.037579 0.602260 0.730511 -0.119320
C35   C     C_R   0.399461 0.270251 0.957629 -0.153301
C36   C     C_R   0.602812 0.730854 0.034567 -0.093769
C37   C     C_R   0.611670 0.009095 0.738765 -0.126940
C38   C     C_R   0.397261 0.967789 0.267286 -0.122415
C39   C     C_R   0.732788 0.602163 0.031916 -0.116657
C40   C     C_R   0.269015 0.399052 0.960786 -0.156035
C41   C     C_R   0.034972 0.732267 0.602024 -0.124872
C42   C     C_R   0.964965 0.268284 0.397679 -0.124887
C43   C     C_R   0.500942 0.944835 0.735078 -0.031876
C44   C     C_R   0.543951 0.942591 0.291336 -0.059763
C45   C     C_R   0.055859 0.708160 0.455851 -0.038685
C46   C     C_R   0.948838 0.293361 0.541724 -0.048770
C47   C     C_R   0.709099 0.454324 0.057150 -0.044553
C48   C     C_R   0.290864 0.541971 0.954525 -0.053210
C49   C     C_R   0.300822 0.917913 0.543967 -0.005331
C50   C     C_R   0.694422 0.068044 0.461772 -0.047448
C51   C     C_R   0.542273 0.299032 0.933210 0.003728
C52   C     C_R   0.456106 0.698470 0.079075 -0.066201
C53   C     C_R   0.927687 0.544031 0.300831 -0.022914
C54   C     C_R   0.077848 0.456242 0.696528 -0.045742
C55   C     C_R   0.304858 0.981854 0.304424 -0.111997
C56   C     C_R   0.695923 0.024418 0.696096 -0.081252
C57   C     C_R   0.969047 0.306596 0.306735 -0.118152
C58   C     C_R   0.028495 0.694257 0.693520 -0.104793
C59   C     C_R   0.311182 0.311166 0.952168 -0.103590
C60   C     C_R   0.695463 0.694763 0.016311 -0.117382
C61   C     C_R   0.661247 0.035993 0.415118 -0.023970
C62   C     C_R   0.342958 0.935753 0.593746 -0.061372
C63   C     C_R   0.048734 0.409966 0.660041 -0.034810
C64   C     C_R   0.958674 0.589448 0.336203 -0.021460
C65   C     C_R   0.409535 0.660836 0.051851 -0.060369
C66   C     C_R   0.587370 0.333857 0.964658 -0.025982
C67   C     C_R   0.582677 0.978868 0.327978 -0.043608
C68   C     C_R   0.441199 0.955432 0.688365 -0.029940
C69   C     C_R   0.324271 0.579760 0.995295 -0.036040
C70   C     C_R   0.673330 0.414315 0.020840 -0.041657
C71   C     C_R   0.989003 0.326684 0.579814 -0.033075
C72   C     C_R   0.018009 0.673856 0.415956 -0.039801
C73   C     C_R   0.698030 0.039041 0.323755 -0.067268
C74   C     C_R   0.306073 0.934033 0.684790 -0.107836
C75   C     C_R   0.046883 0.319907 0.698380 -0.066234
C76   C     C_R   0.959866 0.679355 0.297722 -0.072877
C77   C     C_R   0.321387 0.702957 0.045052 -0.048217
C78   C     C_R   0.678124 0.296101 0.962635 -0.067975
C79   C     C_R   0.658428 0.010634 0.280267 -0.064439
C80   C     C_R   0.353381 0.949343 0.730945 -0.031739
C81   C     C_R   0.278371 0.662026 0.017435 -0.053975
C82   C     C_R   0.721086 0.335624 0.991919 -0.055372
C83   C     C_R   0.013867 0.279407 0.659835 -0.053832
C84   C     C_R   0.991165 0.721239 0.336643 -0.075481
C85   C     C_R   0.543100 0.982642 0.416046 0.024143
C86   C     C_R   0.471821 0.970193 0.596696 0.018392
C87   C     C_R   0.999886 0.412021 0.537836 0.025873
C88   C     C_R   0.008476 0.587709 0.457581 0.025674
C89   C     C_R   0.409420 0.536434 0.007221 0.029533
C90   C     C_R   0.585870 0.455223 0.014605 0.025453
C91   C     C_R   0.586130 0.003497 0.461101 0.031904
C92   C     C_R   0.423775 0.958884 0.549751 0.040410
C93   C     C_R   0.453531 0.579009 0.030048 0.027836
C94   C     C_R   0.541626 0.412573 0.992121 0.037792
C95   C     C_R   0.023457 0.455414 0.580452 0.033899
C96   C     C_R   0.984832 0.544083 0.415157 0.032622
C97   C     C_R   0.460265 0.964192 0.459439 -0.007939
C98   C     C_R   0.552186 0.993876 0.552325 -0.004977
C99   C     C_R   0.982287 0.455716 0.454653 -0.010202
C100  C     C_R   0.025519 0.543961 0.541184 -0.008824
C101  C     C_R   0.452780 0.452385 0.990358 -0.005856
C102  C     C_R   0.542261 0.539161 0.031848 -0.007899
C103  C     C_2   0.245339 0.027050 0.245196 0.934606
O25   O     O_2   0.227642 0.107385 0.217712 -0.553585
O26   O     O_R   0.212837 0.977483 0.218457 -0.703989
H1    H     H_    0.173951 0.015850 0.177340 0.341281
C104  C     C_2   0.748954 0.027491 0.748587 0.961667
O27   O     O_2   0.785659 0.959000 0.794031 -0.540685
O28   O     O_R   0.758386 0.108210 0.744163 -0.721737
H2    H     H_    0.799183 0.100972 0.779786 0.329357
C105  C     C_2   0.982978 0.249805 0.249868 0.938366
O29   O     O_2   0.057844 0.216367 0.210881 -0.534403
O30   O     O_R   0.910395 0.235214 0.240912 -0.712402
H3    H     H_    0.928832 0.196185 0.199699 0.338255
C106  C     C_2   0.008463 0.752004 0.751746 0.943371
O31   O     O_2   0.932345 0.792936 0.778726 -0.544335
O32   O     O_R   0.076843 0.759525 0.775030 -0.678300
H4    H     H_    0.054896 0.800502 0.815083 0.335093
C107  C     C_2   0.267253 0.263886 0.927881 0.927667
O33   O     O_2   0.214638 0.224966 0.984587 -0.522628
O34   O     O_R   0.293835 0.256130 0.841631 -0.724326
H5    H     H_    0.263614 0.218016 0.833855 0.370906
C108  C     C_2   0.753496 0.754450 0.965023 0.927141
O35   O     O_2   0.767893 0.777820 0.884930 -0.512790
O36   O     O_R   0.789000 0.785616 0.008193 -0.731992
H6    H     H_    0.826700 0.826381 0.965769 0.343811
C109  C     C_2   0.307617 0.977009 0.815520 0.915940
O37   O     O_2   0.329928 0.031402 0.829733 -0.582519
O38   O     O_R   0.238115 0.944329 0.877448 -0.676705
H7    H     H_    0.210299 0.972878 0.928563 0.345785
C110  C     C_2   0.690033 0.023096 0.183282 0.960215
O39   O     O_2   0.637395 0.061673 0.138496 -0.553883
O40   O     O_R   0.779182 0.989765 0.143551 -0.669115
H8    H     H_    0.792035 0.001890 0.077378 0.343957
C111  C     C_2   0.991084 0.815821 0.297016 0.945625
O41   O     O_2   0.016238 0.843776 0.217281 -0.533307
O42   O     O_R   0.965252 0.872241 0.351098 -0.717948
H9    H     H_    0.981693 0.929772 0.317691 0.360048
C112  C     C_2   0.008477 0.186431 0.701041 0.934023
O43   O     O_2   0.027534 0.137051 0.654481 -0.570758
O44   O     O_R   0.979484 0.156000 0.792438 -0.680086
H10   H     H_    0.977948 0.092052 0.811745 0.335872
C113  C     C_2   0.817180 0.298633 0.986234 0.937486
O45   O     O_2   0.849282 0.218909 0.007780 -0.545392
O46   O     O_R   0.870758 0.355357 0.957674 -0.726957
H11   H     H_    0.930873 0.323431 0.969048 0.363611
C114  C     C_2   0.184101 0.702093 0.016062 0.929676
O47   O     O_2   0.133854 0.655093 0.045274 -0.564973
O48   O     O_R   0.152986 0.792574 0.980474 -0.660899
H12   H     H_    0.087891 0.811062 0.983344 0.343030
C115  C     C_2   0.214859 0.926423 0.728287 0.930263
O49   O     O_2   0.200094 0.866701 0.793749 -0.502679
O50   O     O_R   0.146280 0.984944 0.691868 -0.694878
H13   H     H_    0.087879 0.970182 0.725421 0.338049
C116  C     C_2   0.780151 0.067564 0.274495 0.937869
O51   O     O_2   0.841759 0.040958 0.307612 -0.595749
O52   O     O_R   0.786288 0.126547 0.191328 -0.678289
H14   H     H_    0.846858 0.137152 0.163883 0.367018
C117  C     C_2   0.727435 0.214810 0.930798 0.880066
O53   O     O_2   0.798219 0.211742 0.875337 -0.539146
O54   O     O_R   0.691742 0.142769 0.962703 -0.707083
H15   H     H_    0.731397 0.091357 0.936524 0.321558
C118  C     C_2   0.277034 0.792397 0.060700 0.947297
O55   O     O_2   0.315273 0.850572 0.024992 -0.576407
O56   O     O_R   0.193110 0.809283 0.118376 -0.666553
H16   H     H_    0.171295 0.872157 0.124358 0.365183
C119  C     C_2   0.929715 0.729221 0.216129 0.910656
O57   O     O_2   0.876691 0.801972 0.212369 -0.506597
O58   O     O_R   0.960230 0.692102 0.144681 -0.712942
H17   H     H_    0.934160 0.731956 0.093750 0.340250
C120  C     C_2   0.078022 0.267764 0.778971 0.937396
O59   O     O_2   0.055017 0.299381 0.841491 -0.595681
O60   O     O_R   0.135516 0.182976 0.782245 -0.729638
H18   H     H_    0.150251 0.153388 0.841060 0.342278
C121  C     C_2   0.512450 0.864373 0.810080 0.872189
O61   O     O_2   0.580534 0.835922 0.833660 -0.612234
O62   O     O_R   0.450016 0.815794 0.847712 -0.731997
H19   H     H_    0.470435 0.758179 0.890642 0.342096
C122  C     C_2   0.599554 0.866750 0.251007 0.883980
O63   O     O_2   0.564631 0.817829 0.244070 -0.558074
O64   O     O_R   0.691394 0.848296 0.224634 -0.715401
H20   H     H_    0.720140 0.799382 0.193029 0.368992
C123  C     C_2   0.134250 0.743698 0.402415 0.892075
O65   O     O_2   0.156023 0.759201 0.322153 -0.555560
O66   O     O_R   0.186568 0.754456 0.444665 -0.767334
H21   H     H_    0.236554 0.780388 0.401973 0.338781
C124  C     C_2   0.866227 0.267036 0.597670 0.896942
O67   O     O_2   0.823911 0.245122 0.566846 -0.544773
O68   O     O_R   0.832680 0.275148 0.684157 -0.729651
H22   H     H_    0.775245 0.258510 0.714649 0.380256
C125  C     C_2   0.745481 0.400342 0.134883 0.892572
O69   O     O_2   0.759159 0.320100 0.157195 -0.565413
O70   O     O_R   0.757892 0.442066 0.186741 -0.729152
H23   H     H_    0.780662 0.398817 0.238594 0.354324
C126  C     C_2   0.265310 0.598195 0.871085 0.897503
O71   O     O_2   0.242650 0.567761 0.828934 -0.566331
O72   O     O_R   0.276257 0.683437 0.835572 -0.711684
H24   H     H_    0.264729 0.711053 0.775223 0.380670
C127  C     C_2   0.269328 0.836933 0.579603 0.828788
O73   O     O_2   0.195809 0.836959 0.628683 -0.541242
O74   O     O_R   0.324489 0.760372 0.553487 -0.730743
H25   H     H_    0.296297 0.709454 0.580525 0.363237
C128  C     C_2   0.714120 0.156250 0.420925 0.904833
O75   O     O_2   0.752765 0.181383 0.452827 -0.556802
O76   O     O_R   0.681151 0.214174 0.349671 -0.726629
H26   H     H_    0.694582 0.273324 0.330781 0.368926
C129  C     C_2   0.582740 0.286512 0.842519 0.850627
O77   O     O_2   0.579031 0.224101 0.823838 -0.558518
O78   O     O_R   0.619583 0.351524 0.776578 -0.745348
H27   H     H_    0.634636 0.343011 0.715592 0.354380
C130  C     C_2   0.413504 0.727838 0.162386 0.895304
O79   O     O_2   0.448219 0.765956 0.185012 -0.562591
O80   O     O_R   0.337771 0.703413 0.219884 -0.718229
H28   H     H_    0.321149 0.718796 0.277831 0.362675
C131  C     C_2   0.839802 0.587064 0.281042 0.868076
O81   O     O_2   0.817615 0.561969 0.234209 -0.562796
O82   O     O_R   0.779166 0.652256 0.322769 -0.742665
H29   H     H_    0.719050 0.670413 0.311536 0.359884
C132  C     C_2   0.165053 0.415783 0.718283 0.899422
O83   O     O_2   0.216025 0.350772 0.693195 -0.562503
O84   O     O_R   0.193058 0.456585 0.759065 -0.738899
H30   H     H_    0.255658 0.426206 0.764299 0.366912

loop_
_geom_bond_atom_site_label_1
_geom_bond_atom_site_label_2
_geom_bond_distance
_ccdc_geom_bond_type
C7    C26   1.408151 A    
O10   Cu3   1.980011 S    
C11   C28   1.402743 A    
C2    C26   1.416485 A    
O60   H18   1.013617 S    
C1    C49   1.414928 A    
C111  O41   1.222295 D    
C68   C80   1.418851 A    
O5    C19   1.299622 A    
C93   C102  1.406899 A    
C15   O15   1.284760 A    
C112  O43   1.219618 D    
C27   C99   1.412189 A    
C21   O21   1.295314 A    
O78   H27   1.013632 S    
C73   C116  1.486619 S    
C23   C31   1.503387 S    
O50   H13   1.014361 S    
C17   O17   1.296093 A    
Cu1   O13   1.993905 S    
C110  O39   1.221437 D    
C120  O60   1.399091 S    
Cu2   O14   1.993904 S    
O26   H1    1.013833 S    
C36   C60   1.415777 A    
C113  O45   1.221990 D    
C35   C59   1.417026 A    
C32   C56   1.416269 A    
Cu4   O16   1.989201 S    
C132  O83   1.223328 D    
C109  O37   1.222925 D    
C5    C29   1.407915 A    
C13   O13   1.293082 A    
C76   C84   1.426488 A    
C85   C91   1.407246 A    
O8    Cu5   1.982031 S    
C75   C83   1.424216 A    
O2    C24   1.297467 A    
C86   C92   1.408348 A    
C107  O34   1.395726 S    
C106  O31   1.221273 D    
Cu4   O21   1.998145 S    
C116  O52   1.394868 S    
C65   C93   1.413290 A    
O80   H28   1.012056 S    
C2    C32   1.430504 A    
C129  O78   1.397766 S    
C4    C54   1.414972 A    
C85   C97   1.414691 A    
C47   C70   1.423594 A    
C117  O54   1.396358 S    
C130  O79   1.222229 D    
O8    C18   1.296829 A    
C92   C97   1.403872 A    
C119  O58   1.396442 S    
C49   C127  1.486370 S    
C88   C96   1.407691 A    
O70   H23   1.013778 S    
C56   C104  1.484828 S    
C63   C75   1.427596 A    
C75   C120  1.490103 S    
C95   C100  1.406746 A    
O72   H24   1.013650 S    
C12   C27   1.404646 A    
C118  O56   1.395115 S    
C19   C35   1.506436 S    
C45   C72   1.423632 A    
C89   C101  1.412761 A    
O76   H26   1.013468 S    
O6    C20   1.301369 A    
C7    C37   1.419730 A    
C69   C81   1.424955 A    
C10   C29   1.407201 A    
C2    C50   1.419141 A    
C67   C85   1.404643 A    
Cu5   Cu6   2.664821 S    
C87   C99   1.414419 A    
C128  O75   1.222156 D    
C24   C32   1.504243 S    
C124  O68   1.396529 S    
C72   C88   1.408514 A    
C15   C39   1.489498 S    
Cu3   Cu4   2.656502 S    
Cu3   O15   1.989202 S    
C48   C126  1.500846 S    
C123  O66   1.401064 S    
C74   C115  1.478491 S    
C66   C78   1.420968 A    
O11   C13   1.292423 A    
O58   H17   1.013854 S    
C111  O42   1.392358 S    
O7    Cu6   1.982033 S    
C90   C102  1.413842 A    
C131  O81   1.221504 D    
C65   C77   1.422982 A    
O1    Cu1   1.981639 S    
C38   C55   1.419062 A    
C3    C27   1.407539 A    
C30   C102  1.413297 A    
C117  O53   1.220983 D    
O7    C17   1.290482 A    
C125  O70   1.399073 S    
C8    C25   1.405555 A    
C6    C52   1.413778 A    
C110  O40   1.398700 S    
C126  O71   1.222808 D    
C44   C67   1.417800 A    
O5    Cu5   1.975885 S    
Cu5   O20   1.986999 S    
C64   C96   1.414795 A    
C14   O14   1.294466 A    
C43   C68   1.412767 A    
C59   C107  1.486040 S    
C132  O84   1.397596 S    
C106  O32   1.398165 S    
C44   C122  1.500889 S    
O32   H4    1.013809 S    
O54   H15   1.013322 S    
C20   C36   1.504087 S    
C7    C43   1.420662 A    
C18   O18   1.292167 A    
Cu1   O24   1.992553 S    
C10   C48   1.422848 A    
C9    C30   1.404473 A    
C14   C42   1.497664 S    
C115  O50   1.392322 S    
C11   C45   1.421696 A    
O42   H9    1.012888 S    
C51   C66   1.421180 A    
C66   C94   1.412325 A    
C16   C40   1.497843 S    
C12   C46   1.416388 A    
C3    C53   1.415315 A    
C96   C99   1.406319 A    
C114  O48   1.397346 S    
Cu1   Cu2   2.659593 S    
C115  O49   1.220121 D    
C53   C64   1.425493 A    
C43   C121  1.497621 S    
C45   C123  1.500546 S    
C83   C112  1.490929 S    
O62   H19   1.011092 S    
C52   C130  1.494526 S    
C9    C39   1.430141 A    
C130  O80   1.396134 S    
O66   H21   1.013620 S    
O64   H20   1.013725 S    
O4    C22   1.296734 A    
C127  O73   1.218945 D    
C88   C100  1.417257 A    
C62   C92   1.418358 A    
C125  O69   1.221467 D    
C19   O19   1.297740 A    
C68   C86   1.400178 A    
O38   H7    1.013979 S    
O74   H25   1.014084 S    
C123  O65   1.221844 D    
C46   C124  1.494679 S    
O34   H5    1.012733 S    
C29   C101  1.415288 A    
C53   C131  1.495005 S    
C122  O63   1.223593 D    
O84   H30   1.013208 S    
C58   C106  1.485484 S    
C8    C44   1.419032 A    
O10   C16   1.296049 A    
C4    C28   1.411233 A    
C57   C105  1.481982 S    
C60   C108  1.483521 S    
C72   C84   1.428758 A    
C41   C58   1.423806 A    
C128  O76   1.398801 S    
O44   H10   1.013879 S    
C23   O23   1.294155 A    
C49   C62   1.429911 A    
C80   C109  1.502168 S    
C31   C55   1.420218 A    
C91   C98   1.404732 A    
C76   C119  1.491519 S    
C16   O16   1.292037 A    
C6    C30   1.409886 A    
O6    Cu6   1.975885 S    
Cu6   O19   1.986999 S    
Cu5   O17   1.994601 S    
C70   C82   1.426748 A    
C131  O82   1.398760 S    
C61   C91   1.414025 A    
C103  O25   1.221758 D    
C78   C117  1.489444 S    
C40   C59   1.422849 A    
C108  O36   1.399236 S    
C39   C60   1.417199 A    
Cu2   O23   1.992554 S    
O68   H22   1.008462 S    
C42   C57   1.422386 A    
Cu3   O22   1.998146 S    
C12   C42   1.424333 A    
C84   C111  1.490567 S    
C103  O26   1.399611 S    
C112  O44   1.398197 S    
Cu6   O18   1.994599 S    
C46   C71   1.418423 A    
C121  O61   1.223220 D    
O4    Cu4   1.984154 S    
C64   C76   1.422815 A    
C37   C56   1.414873 A    
C3    C33   1.426058 A    
C52   C65   1.427622 A    
C77   C118  1.487045 S    
C33   C57   1.421378 A    
C54   C132  1.497201 S    
C104  O28   1.393704 S    
C77   C81   1.426002 A    
C50   C128  1.500663 S    
C8    C38   1.424344 A    
C70   C90   1.408184 A    
O1    C23   1.298217 A    
C61   C73   1.426758 A    
O9    C15   1.297927 A    
C114  O47   1.221534 D    
O2    Cu2   1.981639 S    
C25   C97   1.409262 A    
C48   C69   1.422902 A    
O28   H2    1.013442 S    
C18   C38   1.493010 S    
O11   Cu2   1.979645 S    
C20   O20   1.293476 A    
C89   C93   1.409554 A    
O48   H12   1.013949 S    
C6    C36   1.431117 A    
C69   C89   1.405987 A    
C21   C33   1.504407 S    
C104  O27   1.223241 D    
C5    C35   1.422276 A    
C22   C34   1.509660 S    
C120  O59   1.220572 D    
O12   Cu1   1.979645 S    
C73   C79   1.423670 A    
C71   C87   1.404076 A    
C50   C61   1.428503 A    
C105  O30   1.395884 S    
C67   C79   1.419705 A    
C124  O67   1.223374 D    
O52   H14   1.011295 S    
C127  O74   1.397692 S    
O46   H11   1.011889 S    
C22   O22   1.296393 A    
C107  O33   1.224263 D    
C24   O24   1.295111 A    
C74   C80   1.424682 A    
C113  O46   1.392852 S    
C116  O51   1.220227 D    
C34   C58   1.420964 A    
C28   C100  1.410414 A    
C129  O77   1.221393 D    
O3    Cu3   1.984153 S    
C126  O72   1.396481 S    
C90   C94   1.408681 A    
C51   C129  1.488266 S    
C82   C113  1.490392 S    
C5    C51   1.411587 A    
C54   C63   1.429053 A    
C26   C98   1.413138 A    
C119  O57   1.222277 D    
C71   C83   1.424057 A    
C63   C95   1.417479 A    
O40   H8    1.013540 S    
C17   C37   1.488580 S    
C62   C74   1.426276 A    
O3    C21   1.295255 A    
O56   H16   1.013957 S    
C78   C82   1.426072 A    
C1    C31   1.430979 A    
C94   C101  1.408451 A    
C11   C41   1.424743 A    
C109  O38   1.395799 S    
C118  O55   1.222546 D    
C86   C98   1.416321 A    
C9    C47   1.421079 A    
O36   H6    1.013805 S    
C81   C114  1.489776 S    
C122  O64   1.395466 S    
C47   C125  1.498031 S    
C79   C110  1.486057 S    
C4    C34   1.429494 A    
C108  O35   1.221149 D    
C105  O29   1.222440 D    
C121  O62   1.397083 S    
C87   C95   1.406323 A    
O9    Cu4   1.980011 S    
C10   C40   1.431196 A    
O12   C14   1.294183 A    
O30   H3    1.012155 S    
O82   H29   1.013359 S    
C55   C103  1.484881 S    
C13   C41   1.492036 S    
C1    C25   1.408391 A    
