data_mof_unit_33200.cif
_audit_creation_date              2013-03-05T15:45:56-0500
_audit_creation_method            fapswitch 2.2
_symmetry_space_group_name_H-M    P1
_symmetry_Int_Tables_number       1
_space_group_crystal_system       triclinic
_cell_length_a                    20.592472
_cell_length_b                    7.259484
_cell_length_c                    20.319959
_cell_angle_alpha                 89.735917
_cell_angle_beta                  101.553235
_cell_angle_gamma                 89.731202
_cell_volume                      2976.01924246

loop_
_atom_site_label
_atom_site_type_symbol
_atom_site_description
_atom_site_fract_x
_atom_site_fract_y
_atom_site_fract_z
_atom_type_partial_charge
O1    O     O_R   0.673670 0.377510 0.185950 -0.589016
O2    O     O_R   0.326330 0.622490 0.814050 -0.577028
O3    O     O_R   0.826330 0.877510 0.314050 -0.584021
O4    O     O_R   0.173670 0.122490 0.685950 -0.560847
O5    O     O_R   0.806260 0.705340 0.185590 -0.585032
O6    O     O_R   0.193740 0.294660 0.814410 -0.568074
O7    O     O_R   0.693740 0.205340 0.314410 -0.599698
O8    O     O_R   0.306260 0.794660 0.685590 -0.583892
C1    C     C_R   0.825653 0.538607 0.170842 1.011709
C2    C     C_R   0.174296 0.461377 0.829093 1.011939
C3    C     C_R   0.674395 0.038612 0.329183 1.022193
C4    C     C_R   0.325635 0.961387 0.670849 1.006999
O9    O     O_R   0.672940 0.707120 0.178050 -0.552669
O10   O     O_R   0.327060 0.292880 0.821950 -0.579998
O11   O     O_R   0.827060 0.207120 0.321950 -0.574866
O12   O     O_R   0.172940 0.792880 0.678050 -0.592898
O13   O     O_R   0.692060 0.879040 0.306460 -0.555831
O14   O     O_R   0.307940 0.120960 0.693540 -0.567921
O15   O     O_R   0.807940 0.379040 0.193540 -0.565137
O16   O     O_R   0.192060 0.620960 0.806460 -0.583555
C5    C     C_R   0.648494 0.539651 0.161696 1.084032
C6    C     C_R   0.350855 0.460523 0.839014 1.103780
C7    C     C_R   0.850793 0.037984 0.338974 1.099467
C8    C     C_R   0.148928 0.961972 0.661368 1.096777
O17   O     O_3   0.756430 0.544390 0.292140 -0.288743
O18   O     O_3   0.243570 0.455610 0.707860 -0.282745
O19   O     O_3   0.743570 0.044390 0.207860 -0.275293
O20   O     O_3   0.256430 0.955610 0.792140 -0.279612
V1    V     V_3+5 0.748810 0.818610 0.242180 1.306272
V2    V     V_3+5 0.251190 0.181390 0.757820 1.307977
V3    V     V_3+5 0.751190 0.318610 0.257820 1.286689
V4    V     V_3+5 0.248810 0.681390 0.742180 1.288243
C9    C     C_R   0.086883 0.974754 0.609583 -0.441437
C10   C     C_R   0.912741 0.026260 0.390900 -0.440462
C11   C     C_R   0.412616 0.466328 0.891377 -0.441296
C12   C     C_R   0.586656 0.534538 0.109210 -0.438238
C13   C     C_R   0.032740 0.990241 0.421765 -0.162832
C14   C     C_R   0.966575 0.001782 0.578592 -0.161817
C15   C     C_R   0.467371 0.581453 0.073896 -0.161562
C16   C     C_R   0.531212 0.408975 0.927363 -0.165169
C17   C     C_R   0.974894 0.007560 0.371903 0.300227
C18   C     C_R   0.024470 0.987403 0.628553 0.297715
C19   C     C_R   0.524863 0.585891 0.124489 0.302178
C20   C     C_R   0.473626 0.406191 0.876737 0.306818
C21   C     C_R   0.909735 0.027361 0.459894 0.311252
C22   C     C_R   0.089840 0.972179 0.540570 0.312356
C23   C     C_R   0.588816 0.471662 0.043740 0.319709
C24   C     C_R   0.410538 0.529029 0.956789 0.314457
C25   C     C_R   0.968693 0.007162 0.509808 -0.039138
C26   C     C_R   0.030769 0.988746 0.490612 -0.039959
C27   C     C_R   0.530016 0.468206 0.993003 -0.040507
C28   C     C_R   0.469054 0.527908 0.007829 -0.038467
H1    H     H_    0.079755 0.980771 0.405948 0.214541
H2    H     H_    0.919489 0.010281 0.594306 0.214819
H3    H     H_    0.420871 0.620793 0.087015 0.212878
H4    H     H_    0.577495 0.367163 0.914347 0.213009
C29   C     C_3   0.560746 0.041487 0.535806 -0.163268
C30   C     C_3   0.439331 0.958401 0.464287 -0.161096
C31   C     C_3   0.938967 0.543264 0.963985 -0.162879
C32   C     C_3   0.060548 0.456547 0.035430 -0.162505
C33   C     C_3   0.519467 0.870163 0.545752 0.035032
C34   C     C_3   0.480607 0.129725 0.454341 0.034320
C35   C     C_3   0.980394 0.371256 0.954201 0.029998
C36   C     C_3   0.019135 0.628559 0.045198 0.027786
H5    H     H_    0.610761 0.074100 0.565311 0.166539
H6    H     H_    0.389315 0.925786 0.434783 0.166716
H7    H     H_    0.888888 0.577412 0.934508 0.164281
H8    H     H_    0.110629 0.422408 0.064908 0.164104
H9    H     H_    0.505336 0.701518 0.444471 0.152040
H10   H     H_    0.494738 0.298369 0.555620 0.153436
H11   H     H_    0.994851 0.200702 0.055733 0.152164
H12   H     H_    0.004662 0.799069 0.943662 0.152605
C37   C     C_1   0.371135 0.970343 0.624923 -0.153867
C38   C     C_1   0.628919 0.029646 0.375139 -0.157019
C39   C     C_1   0.128689 0.470228 0.874894 -0.154475
C40   C     C_1   0.871107 0.529705 0.124860 -0.154584
C41   C     C_3   0.497448 0.163370 0.530853 -0.190621
C42   C     C_3   0.502628 0.836517 0.469239 -0.190780
C43   C     C_3   0.002128 0.663745 0.968646 -0.195831
C44   C     C_3   0.997391 0.336036 0.030761 -0.193742
C45   C     C_3   0.457103 0.990075 0.540958 0.123570
C46   C     C_3   0.542973 0.009821 0.459132 0.124583
C47   C     C_3   0.042620 0.489810 0.958727 0.128648
C48   C     C_3   0.956904 0.510024 0.040708 0.128075
C49   C     C_1   0.409662 0.978909 0.586919 0.048774
C50   C     C_1   0.590406 0.021037 0.413159 0.043491
C51   C     C_1   0.090084 0.478662 0.912810 0.042722
C52   C     C_1   0.909567 0.521225 0.086781 0.044905
N1    N     N_R   0.152960 0.951772 0.521512 0.218695
O21   O     O_R   0.166060 0.804145 0.490411 -0.372421
O22   O     O_R   0.199123 0.073542 0.539772 -0.415461
N2    N     N_R   0.846705 0.049623 0.478991 0.219163
O23   O     O_R   0.834595 0.196104 0.511266 -0.374595
O24   O     O_R   0.799867 0.930103 0.460187 -0.418407
N3    N     N_R   0.348789 0.592771 0.971223 0.224542
O25   O     O_R   0.341898 0.764144 0.987130 -0.370666
O26   O     O_R   0.298082 0.483160 0.963980 -0.424816
N4    N     N_R   0.650879 0.411545 0.029063 0.224308
O27   O     O_R   0.659444 0.239708 0.014817 -0.368302
O28   O     O_R   0.700597 0.524482 0.035599 -0.421447
N5    N     N_R   0.018335 0.982288 0.698047 0.233968
O29   O     O_R   0.965016 0.916261 0.714349 -0.371739
O30   O     O_R   0.062625 0.057778 0.744645 -0.416232
N6    N     N_R   0.980571 0.005746 0.302313 0.235042
O31   O     O_R   0.029135 0.916948 0.284237 -0.373320
O32   O     O_R   0.941455 0.105844 0.257744 -0.414986
N7    N     N_R   0.478549 0.344853 0.810503 0.236638
O33   O     O_R   0.523809 0.225350 0.803064 -0.369253
O34   O     O_R   0.442853 0.421129 0.757149 -0.415996
N8    N     N_R   0.518450 0.635317 0.191540 0.233136
O35   O     O_R   0.464631 0.594462 0.212711 -0.371952
O36   O     O_R   0.562469 0.737417 0.229173 -0.411836
C53   C     C_1   0.540989 0.725964 0.596326 0.114544
N9    N     N_1   0.557931 0.612273 0.636251 -0.024494
C54   C     C_1   0.459037 0.273939 0.403789 0.108583
N10   N     N_1   0.442043 0.387650 0.363887 -0.016547
C55   C     C_1   0.958923 0.228445 0.903812 0.121842
N11   N     N_1   0.942007 0.115877 0.864024 -0.008236
C56   C     C_1   0.040788 0.771816 0.095339 0.124555
N12   N     N_1   0.057903 0.884890 0.134865 -0.005711

loop_
_geom_bond_atom_site_label_1
_geom_bond_atom_site_label_2
_geom_bond_distance
_ccdc_geom_bond_type
O17   V3    1.779469 S    
C47   C51   1.482455 S    
C30   C34   1.544839 S    
N5    O29   1.301608 A    
C24   N3    1.436007 S    
O19   V1    1.772601 S    
O13   V1    1.968780 S    
C34   C41   1.544465 S    
O3    C7    1.332714 A    
N3    O25   1.301070 A    
C44   C48   1.546367 S    
O15   V3    1.968537 S    
N6    O32   1.301269 A    
C5    C12   1.489029 S    
C22   N1    1.435868 S    
O1    C5    1.335560 A    
C6    C11   1.486699 S    
C23   N4    1.435761 S    
C9    C18   1.416502 A    
O9    V1    2.000051 S    
C14   C18   1.405676 A    
H12   C43   1.109967 S    
O4    C8    1.332649 A    
C32   C47   1.545655 S    
C54   N10   1.157050 T    
O1    V3    1.979362 S    
C12   C23   1.417465 A    
O2    V4    1.979366 S    
O3    V1    1.985499 S    
C21   N2    1.435869 S    
N8    O35   1.301606 A    
C36   C48   1.534671 S    
C31   H7    1.110203 S    
C30   H6    1.110205 S    
C15   H3    1.081634 S    
C2    O16   1.324342 A    
C16   H4    1.081414 S    
O2    C6    1.334607 A    
N7    O33   1.301608 A    
O14   V2    1.968777 S    
C1    C40   1.450377 S    
C21   C25   1.424060 A    
N1    O22   1.300918 A    
C40   C52   1.214577 T    
C16   C20   1.405938 A    
C13   H1    1.081463 S    
O11   C7    1.337475 A    
C15   C28   1.406350 A    
C34   C46   1.534658 S    
O12   C8    1.337739 A    
C4    C37   1.450274 S    
H10   C41   1.110011 S    
C9    C22   1.416003 A    
N7    O34   1.301428 A    
H9    C42   1.110009 S    
C10   C17   1.415038 A    
O10   V2    2.000050 S    
C11   C24   1.415589 A    
H11   C44   1.109933 S    
C1    O15   1.324402 A    
O5    V1    1.985574 S    
C35   C44   1.544503 S    
O7    V3    1.985784 S    
C27   C28   1.414960 A    
O8    V4    1.985784 S    
C29   C41   1.558144 S    
C31   C48   1.546015 S    
C30   C45   1.545866 S    
C31   C43   1.558110 S    
C14   C25   1.407434 A    
O18   V4    1.779468 S    
C15   C19   1.404534 A    
C46   C50   1.482864 S    
O4    V2    1.985498 S    
C35   C47   1.534581 S    
O7    C3    1.327721 A    
O5    C1    1.327061 A    
C2    C39   1.449975 S    
C42   C46   1.546283 S    
C14   H2    1.081473 S    
C41   C45   1.546216 S    
C33   C42   1.544500 S    
O8    C4    1.327748 A    
C7    C10   1.485560 S    
N2    O24   1.300908 A    
O9    C5    1.335780 A    
C10   C21   1.415714 A    
C38   C50   1.214564 T    
O11   V3    1.989229 S    
C11   C20   1.415364 A    
C36   C56   1.466487 S    
C37   C49   1.214529 T    
C39   C51   1.214338 T    
O6    V2    1.985577 S    
N4    O27   1.301055 A    
N4    O28   1.300947 A    
C33   C53   1.466837 S    
C36   C43   1.544303 S    
C18   N5    1.443067 S    
C53   N9    1.157075 T    
O16   V4    1.968539 S    
C20   N7    1.442113 S    
C32   C44   1.558149 S    
C19   N8    1.441751 S    
C48   C52   1.482841 S    
C29   H5    1.110203 S    
C3    C38   1.450353 S    
C3    O13   1.325029 A    
N6    O31   1.301474 A    
O6    C2    1.326928 A    
C23   C27   1.424834 A    
C56   N12   1.156938 T    
N3    O26   1.300953 A    
C29   C33   1.544877 S    
O12   V4    1.989229 S    
C16   C27   1.408144 A    
C22   C26   1.423916 A    
C31   C35   1.544908 S    
C8    C9    1.485846 S    
C17   N6    1.442146 S    
C32   C36   1.544688 S    
O10   C6    1.335239 A    
O20   V2    1.772602 S    
C34   C54   1.466787 S    
C33   C45   1.534640 S    
C55   N11   1.157042 T    
C43   C47   1.545971 S    
C13   C26   1.407658 A    
C35   C55   1.466772 S    
N2    O23   1.300967 A    
C13   C17   1.405445 A    
N8    O36   1.299875 A    
C30   C42   1.558140 S    
C24   C28   1.423710 A    
C32   H8    1.110210 S    
N5    O30   1.300874 A    
C25   C26   1.415158 A    
C4    O14   1.324969 A    
C29   C46   1.545932 S    
C12   C19   1.417545 A    
N1    O21   1.300967 A    
C45   C49   1.482804 S    
