data_mof_unit_33705.cif
_audit_creation_date              2012-12-11T14:32:55-0500
_audit_creation_method            fapswitch 2.2
_symmetry_space_group_name_H-M    P1
_symmetry_Int_Tables_number       1
_space_group_crystal_system       triclinic
_cell_length_a                    6.963641
_cell_length_b                    14.15014
_cell_length_c                    18.134735
_cell_angle_alpha                 113.820638
_cell_angle_beta                  94.531347
_cell_angle_gamma                 90.67288
_cell_volume                      1627.73438825

loop_
_atom_site_label
_atom_site_type_symbol
_atom_type_description
_atom_site_fract_x
_atom_site_fract_y
_atom_site_fract_z
_atom_type_partial_charge
O1    O     O_R   0.484560 0.544530 0.414330 -0.539763
O2    O     O_R   0.197040 0.638810 0.585080 -0.535191
O3    O     O_R   0.026800 0.455470 0.585670 -0.553535
C1    C     C_R   0.372906 0.681160 0.605043 0.777038
O4    O     O_R   0.155000 0.556150 0.414940 -0.539969
O5    O     O_R   0.984450 0.372220 0.414320 -0.561970
C2    C     C_R   0.319204 0.564765 0.386869 0.780830
O6    O     O_R   0.526900 0.627780 0.585680 -0.554707
O7    O     O_3   0.339170 0.439750 0.499990 -0.386190
V1    V     V_3+5 0.064350 0.511180 0.500000 1.387367
O8    O     O_R   0.654880 0.361190 0.414920 -0.511049
C3    C     C_R   0.817336 0.325335 0.385918 0.648778
O9    O     O_R   0.696930 0.443850 0.585060 -0.549772
C4    C     C_R   0.871587 0.427847 0.609128 0.682511
V2    V     V_3+5 0.564340 0.488820 0.500000 1.398690
O10   O     O_3   0.839390 0.560250 0.500010 -0.375924
C5    C     C_R   0.043509 0.863705 0.823616 -0.049079
C6    C     C_R   0.900146 0.382635 0.671836 -0.040841
C7    C     C_R   0.917452 0.820688 0.683942 -0.120874
C8    C     C_R   0.970786 0.790849 0.746651 0.143875
C9    C     C_R   0.055498 0.969373 0.835597 -0.270517
C10   C     C_R   0.995954 0.001528 0.771484 0.086833
C11   C     C_R   0.926732 0.923763 0.695742 0.074304
C12   C     C_R   0.998967 0.107124 0.779170 0.078911
C13   C     C_R   0.935562 0.131861 0.711021 0.061070
C14   C     C_R   0.853961 0.049784 0.640704 -0.181504
C15   C     C_R   0.856495 0.948457 0.632164 -0.136193
C16   C     C_R   0.057827 0.188623 0.853426 -0.177090
C17   C     C_R   0.055634 0.289958 0.862123 -0.203746
C18   C     C_R   0.000936 0.315255 0.796900 0.097972
C19   C     C_R   0.944641 0.238131 0.718122 0.080074
C20   C     C_R   0.003308 0.419495 0.812011 -0.139164
C21   C     C_R   0.948851 0.451622 0.751620 -0.201196
C22   C     C_R   0.905193 0.273791 0.652888 0.108740
H1    H     H_    0.793253 0.888627 0.575776 0.145731
H2    H     H_    0.947856 0.532393 0.769190 0.130841
H3    H     H_    0.099916 0.350082 0.921387 0.117503
H4    H     H_    0.861566 0.762736 0.625341 0.142067
H5    H     H_    0.106935 0.024003 0.895506 0.103607
H6    H     H_    0.772599 0.060562 0.592584 0.157272
H7    H     H_    0.104485 0.176773 0.906945 0.122875
H8    H     H_    0.044839 0.477951 0.872280 0.139656
H9    H     H_    0.110590 0.231157 0.300927 0.121278
C23   C     C_2   0.128390 0.038760 0.181883 -0.349112
C24   C     C_2   0.969504 0.096697 0.197997 0.197485
C25   C     C_2   0.811774 0.225672 0.314245 0.433210
C26   C     C_2   0.971888 0.190301 0.275371 -0.253662
H10   H     H_    0.257912 0.064909 0.223610 0.174741
C27   C     C_R   0.404577 0.788848 0.670161 -0.149595
C28   C     C_R   0.541568 0.469454 0.834378 -0.069633
C29   C     C_R   0.517033 0.892964 0.809735 0.094600
C30   C     C_R   0.468341 0.796904 0.746319 -0.247623
C31   C     C_R   0.390521 0.881218 0.657012 0.515685
C32   C     C_R   0.441702 0.982712 0.722361 -0.050736
C33   C     C_R   0.502083 0.985420 0.799478 0.074645
C34   C     C_R   0.439558 0.081533 0.716093 0.088368
C35   C     C_R   0.494194 0.177850 0.785921 0.079627
C36   C     C_R   0.545777 0.173179 0.859826 -0.184166
C37   C     C_R   0.548977 0.080220 0.866442 -0.184819
C38   C     C_R   0.389518 0.087877 0.642415 -0.170342
C39   C     C_R   0.392881 0.181042 0.635963 -0.257706
C40   C     C_R   0.441163 0.275047 0.703135 0.143511
C41   C     C_R   0.495207 0.276251 0.779872 0.066680
C42   C     C_R   0.432569 0.368277 0.693919 0.086526
C43   C     C_R   0.482496 0.463351 0.758213 -0.131083
C44   C     C_R   0.545901 0.375882 0.846227 -0.228240
H11   H     H_    0.591042 0.085181 0.926559 0.118255
H12   H     H_    0.587103 0.383630 0.906963 0.098234
H13   H     H_    0.473895 0.534548 0.749197 0.083616
H14   H     H_    0.355580 0.176879 0.575744 0.137696
H15   H     H_    0.481751 0.726340 0.755975 0.114580
H16   H     H_    0.586086 0.240678 0.914497 0.119436
H17   H     H_    0.350044 0.022550 0.586905 0.225925
H18   H     H_    0.332861 0.666448 0.196755 0.153854
H19   H     H_    0.616353 0.591898 0.305979 0.151800
C45   C     C_2   0.317401 0.601586 0.320057 -0.315348
C46   C     C_2   0.477822 0.611134 0.285042 -0.121194
H20   H     H_    0.769781 0.637705 0.204167 0.128769
C47   C     C_2   0.631775 0.656766 0.182624 -0.335622
C48   C     C_2   0.471416 0.647219 0.217677 -0.120859
H21   H     H_    0.179441 0.620664 0.298489 0.127915
O11   O     O_R   0.421600 0.630430 0.917010 -0.536467
O12   O     O_R   0.793840 0.702190 0.087630 -0.543092
O13   O     O_R   0.964010 0.886170 0.088190 -0.529828
C49   C     C_R   0.629759 0.693567 0.115792 0.755448
O14   O     O_R   0.751460 0.619510 0.917500 -0.543264
O15   O     O_R   0.921330 0.802900 0.916840 -0.550367
C50   C     C_R   0.575440 0.576449 0.899882 0.674924
O16   O     O_R   0.464290 0.713700 0.088350 -0.538227
O17   O     O_3   0.609200 0.818520 0.002630 -0.389749
V3    V     V_3+5 0.884140 0.747190 0.002530 1.370935
O18   O     O_R   0.251150 0.814630 0.917340 -0.546914
C51   C     C_R   0.075987 0.829544 0.892593 0.692516
O19   O     O_R   0.293530 0.897310 0.087470 -0.539417
C52   C     C_R   0.129444 0.935429 0.113795 0.758267
V4    V     V_3+5 0.384070 0.769710 0.002370 1.371420
O20   O     O_3   0.109180 0.698190 0.002460 -0.371808
C53   C     C_3   0.796190 0.074083 0.136173 -0.563776
H22   H     H_    0.713563 0.144449 0.147371 0.200526
H23   H     H_    0.842562 0.049576 0.074142 0.139371
H24   H     H_    0.698887 0.013198 0.139051 0.236876
F1    F     F_    0.639463 0.171409 0.286784 -0.702997
C54   C     C_3   0.591950 0.895101 0.888426 -0.590261
H25   H     H_    0.600917 0.814054 0.880254 0.244905
H26   H     H_    0.735044 0.936130 0.907260 0.170790
H27   H     H_    0.496459 0.938049 0.935814 0.189872
C55   C     C_3   0.890406 0.202370 0.563719 -0.825448
H28   H     H_    0.990806 0.138680 0.551916 0.222947
H29   H     H_    0.738565 0.174014 0.541951 0.213267
H30   H     H_    0.934452 0.241375 0.525229 0.188213
F2    F     F_    0.327639 0.867924 0.580836 -0.735067
C56   C     C_3   0.361934 0.368060 0.615656 -0.607268
H31   H     H_    0.353870 0.449495 0.624238 0.237940
H32   H     H_    0.456199 0.323539 0.568341 0.204279
H33   H     H_    0.219673 0.327914 0.596093 0.190453
C57   C     C_3   0.942394 0.680286 0.730517 -0.756131
H34   H     H_    0.084432 0.651233 0.741712 0.184496
H35   H     H_    0.834439 0.673348 0.770085 0.186672
H36   H     H_    0.884579 0.633762 0.667277 0.230997

loop_
_geom_bond_atom_site_label_1
_geom_bond_atom_site_label_2
_ccdc_geom_bond_type
C39   H14   S    
C13   C19   A    
C44   H12   S    
C33   C37   A    
C4    C6    S    
O2    C1    A    
C7    C8    A    
C1    O6    A    
C14   H6    S    
C5    C8    A    
C56   H32   S    
O17   V3    S    
C31   C32   A    
C57   H34   S    
C25   F1    S    
C14   C15   A    
C17   C18   A    
C22   C55   S    
C16   C17   A    
O15   V3    S    
O14   V3    S    
O5    C3    A    
C18   C19   A    
O11   C50   A    
C42   C56   S    
C29   C54   S    
V2    O10   S    
C38   H17   S    
O18   V4    S    
C21   H2    S    
C34   C35   A    
C40   C42   A    
C37   H11   S    
C32   C33   A    
O8    V2    S    
C55   H28   S    
O1    V2    S    
O13   V3    S    
C11   C15   A    
O7    V1    S    
C28   C50   S    
C31   F2    S    
C41   C44   A    
H18   C48   S    
O9    C4    A    
C55   H29   S    
O19   C52   A    
C56   H31   S    
C28   C43   A    
C35   C41   A    
C24   C26   S    
C32   C34   A    
O11   V4    S    
O14   C50   A    
C29   C30   A    
C45   C46   D    
C3    C25   S    
C8    C57   S    
C49   O16   A    
H20   C47   S    
C15   H1    S    
C13   C14   A    
V3    O20   S    
C34   C38   A    
C38   C39   A    
O13   C52   A    
C7    C11   A    
C40   C41   A    
C7    H4    S    
H19   C46   S    
C9    H5    S    
C27   C30   A    
V4    O20   S    
C19   C22   A    
C54   H26   S    
C12   C13   A    
O19   V4    S    
C28   C44   A    
O3    C4    A    
O12   C49   A    
O6    V2    S    
C53   H23   S    
O9    V2    S    
C55   H30   S    
C10   C12   A    
C5    C51   S    
O2    V1    S    
C47   C49   S    
C23   C24   D    
O4    C2    A    
C46   C48   S    
C43   H13   S    
C25   C26   D    
O1    C2    A    
C12   C16   A    
C45   H21   S    
O5    V1    S    
O8    C3    A    
O17   V4    S    
C2    C45   S    
C53   H24   S    
O12   V3    S    
C57   H36   S    
C1    C27   S    
C24   C53   S    
C42   C43   A    
O16   V4    S    
C36   C37   A    
O4    V1    S    
O3    V1    S    
V1    O10   S    
C20   C21   A    
C18   C20   A    
C36   H16   S    
C35   C36   A    
C6    C22   A    
C27   C31   A    
O15   C51   A    
O18   C51   A    
C57   H35   S    
C54   H27   S    
C29   C33   A    
O7    V2    S    
C39   C40   A    
C6    C21   A    
C5    C9    A    
C47   C48   D    
C53   H22   S    
C17   H3    S    
C54   H25   S    
C30   H15   S    
C20   H8    S    
C10   C11   A    
C9    C10   A    
H9    C26   S    
C56   H33   S    
C23   C52   S    
C16   H7    S    
C23   H10   S    
