data_mof_unit_59442.cif
_audit_creation_date              2013-03-05T15:58:35-0500
_audit_creation_method            fapswitch 2.2
_symmetry_space_group_name_H-M    P1
_symmetry_Int_Tables_number       1
_space_group_crystal_system       triclinic
_cell_length_a                    15.080206
_cell_length_b                    13.919389
_cell_length_c                    10.760085
_cell_angle_alpha                 90.584895
_cell_angle_beta                  86.282386
_cell_angle_gamma                 89.118108
_cell_volume                      2253.45803551

loop_
_atom_site_label
_atom_site_type_symbol
_atom_site_description
_atom_site_fract_x
_atom_site_fract_y
_atom_site_fract_z
_atom_type_partial_charge
O1    O     O_R   0.370260 0.582280 0.500030 -0.536004
O2    O     O_R   0.629740 0.417720 0.499970 -0.539195
O3    O     O_R   0.629740 0.582280 0.499970 -0.558195
O4    O     O_R   0.370260 0.417720 0.500030 -0.559776
C1    C     C_R   0.328722 0.500119 0.503457 0.860905
C2    C     C_R   0.671007 0.499343 0.498745 0.872072
O5    O     O_R   0.499980 0.582260 0.316850 -0.561154
O6    O     O_R   0.500020 0.417740 0.683150 -0.564236
O7    O     O_R   0.500020 0.582260 0.683150 -0.569546
O8    O     O_R   0.499980 0.417740 0.316850 -0.563424
C3    C     C_R   0.500757 0.499507 0.259831 0.844311
C4    C     C_R   0.497437 0.500432 0.740187 0.839929
Cu1   Cu    Cu3+1 0.500000 0.597420 0.500000 1.092009
Cu2   Cu    Cu3+1 0.500000 0.402580 0.500000 1.090424
C5    C     C_3   0.429514 0.551854 0.051581 -0.100244
C6    C     C_3   0.565967 0.447418 0.948545 -0.111667
C7    C     C_3   0.503714 0.590202 0.960868 -0.088970
C8    C     C_3   0.491644 0.409101 0.039254 -0.086132
C9    C     C_3   0.421324 0.462480 0.967282 -0.102130
C10   C     C_3   0.574209 0.536800 0.032589 -0.127975
C11   C     C_3   0.495725 0.500849 0.876535 -0.099349
C12   C     C_3   0.499937 0.498618 0.123586 -0.101533
C13   C     C_R   0.821281 0.460830 0.399832 0.334221
C14   C     C_R   0.179053 0.527453 0.614175 0.314881
C15   C     C_R   0.768030 0.496458 0.502854 -0.168566
C16   C     C_R   0.230868 0.496070 0.507249 -0.167625
C17   C     C_R   0.806625 0.524216 0.612995 -0.124009
C18   C     C_R   0.191283 0.446304 0.411118 -0.103961
C19   C     C_R   0.899143 0.509893 0.624296 -0.003374
C20   C     C_R   0.098268 0.431851 0.417857 0.000206
C21   C     C_R   0.951991 0.472159 0.520565 0.011279
C22   C     C_R   0.045768 0.470999 0.521128 0.016119
C23   C     C_R   0.911631 0.438811 0.413838 -0.054110
C24   C     C_R   0.086680 0.509596 0.624749 -0.064160
C25   C     C_R   0.940808 0.528615 0.736459 0.294231
C26   C     C_R   0.055391 0.378322 0.326464 0.280419
C27   C     C_R   0.033842 0.525236 0.737241 -0.138570
C28   C     C_R   0.962522 0.382074 0.324902 -0.150291
C29   C     C_R   0.439737 0.795546 0.575716 0.416219
C30   C     C_R   0.561061 0.205027 0.424182 0.430254
C31   C     C_R   0.558695 0.791801 0.420771 0.459202
C32   C     C_R   0.441883 0.208163 0.579778 0.460179
N1    N     N_R   0.500000 0.743810 0.500000 -0.306546
N2    N     N_R   0.500000 0.256190 0.500000 -0.307584
C33   C     C_R   0.563081 0.894823 0.422814 -0.194476
C34   C     C_R   0.438357 0.105246 0.578465 -0.191599
C35   C     C_R   0.440244 0.898537 0.581297 -0.189062
C36   C     C_R   0.561656 0.101834 0.419965 -0.194063
C37   C     C_R   0.501518 0.948445 0.501714 -0.014928
C38   C     C_R   0.500391 0.051842 0.499812 -0.017097
C39   C     C_R   0.625773 0.945882 0.345757 0.264838
C40   C     C_R   0.376023 0.054059 0.656008 0.266431
C41   C     C_R   0.379324 0.953238 0.661265 0.259270
C42   C     C_R   0.622928 0.046841 0.340702 0.267393
C43   C     C_1   0.337044 0.418265 0.939025 0.463189
N3    N     N_1   0.270602 0.382811 0.918305 -0.098619
C44   C     C_1   0.657473 0.583048 0.059962 0.482585
N4    N     N_1   0.722601 0.621600 0.079315 -0.009252
C45   C     C_1   0.354530 0.609456 0.107570 0.336551
N5    N     N_1   0.295466 0.654736 0.151783 -0.170992
C46   C     C_1   0.639662 0.388264 0.891961 0.364279
N6    N     N_1   0.697250 0.341234 0.846993 -0.156038
C47   C     C_1   0.513062 0.690794 0.922483 0.440520
N7    N     N_1   0.521295 0.769992 0.892825 -0.153656
C48   C     C_1   0.481405 0.308460 0.076983 0.449246
N8    N     N_1   0.472496 0.229191 0.106000 -0.146498
N9    N     N_R   0.789808 0.465787 0.276293 0.117547
O9    O     O_R   0.707815 0.448266 0.255391 -0.343211
O10   O     O_R   0.841741 0.498799 0.185763 -0.285473
N10   N     N_R   0.219537 0.581547 0.708771 0.132944
O11   O     O_R   0.290300 0.548439 0.757016 -0.380978
O12   O     O_R   0.183792 0.662353 0.750421 -0.231418
C49   C     C_1   0.751515 0.577733 0.705963 0.357981
N11   N     N_1   0.707138 0.621341 0.778636 -0.265367
C50   C     C_1   0.247532 0.416549 0.302714 0.365305
N12   N     N_1   0.293104 0.392312 0.217276 -0.277902
N13   N     N_R   0.889717 0.543049 0.852582 0.107916
O13   O     O_R   0.845114 0.472204 0.901874 -0.319089
O14   O     O_R   0.899164 0.621021 0.917826 -0.266719
N14   N     N_R   0.104371 0.314056 0.241140 0.115248
O15   O     O_R   0.144287 0.238641 0.283223 -0.267294
O16   O     O_R   0.100392 0.324413 0.121530 -0.299749
C51   C     C_1   0.072466 0.524310 0.857423 0.508098
N15   N     N_1   0.102641 0.523497 0.953641 -0.154781
C52   C     C_1   0.919715 0.318094 0.240581 0.515408
N16   N     N_1   0.885707 0.267099 0.173305 -0.066677
N17   N     N_R   0.366527 0.746047 0.632123 0.172591
O17   O     O_R   0.290977 0.750477 0.580380 -0.269758
O18   O     O_R   0.369753 0.715140 0.745181 -0.268329
N18   N     N_R   0.631451 0.256108 0.361106 0.170587
O19   O     O_R   0.623951 0.283486 0.247262 -0.293231
O20   O     O_R   0.709168 0.256689 0.407104 -0.323382
N19   N     N_R   0.603597 0.738943 0.320599 0.149365
O21   O     O_R   0.682392 0.702362 0.332576 -0.286177
O22   O     O_R   0.573436 0.744811 0.210332 -0.366408
N20   N     N_R   0.395983 0.261346 0.678909 0.151977
O23   O     O_R   0.425620 0.256920 0.789612 -0.364345
O24   O     O_R   0.316856 0.296634 0.665744 -0.297642
N21   N     N_R   0.697701 0.897099 0.276571 0.186628
O25   O     O_R   0.699478 0.893603 0.155529 -0.211578
O26   O     O_R   0.769658 0.876243 0.331816 -0.235278
N22   N     N_R   0.304124 0.102478 0.725719 0.185078
O27   O     O_R   0.231482 0.121965 0.671370 -0.233735
O28   O     O_R   0.303061 0.106311 0.846702 -0.207389
N23   N     N_R   0.321461 0.908543 0.753681 0.187175
O29   O     O_R   0.349849 0.893121 0.863448 -0.248342
O30   O     O_R   0.236455 0.906648 0.739523 -0.183748
N24   N     N_R   0.682215 0.091260 0.249891 0.184364
O31   O     O_R   0.766827 0.092729 0.266923 -0.227117
O32   O     O_R   0.655986 0.105328 0.138597 -0.249645

loop_
_geom_bond_atom_site_label_1
_geom_bond_atom_site_label_2
_geom_bond_distance
_ccdc_geom_bond_type
C43   N3    1.157207 T    
N19   O21   1.300141 A    
C17   C19   1.419510 A    
C24   C27   1.418322 A    
C49   N11   1.156593 T    
C29   N17   1.416694 S    
N17   O17   1.301010 A    
O3    C2    1.302569 A    
C44   N4    1.156024 T    
C14   N10   1.433461 S    
C35   C37   1.413853 A    
N13   O13   1.300373 A    
C8    C48   1.470113 S    
C5    C9    1.543332 S    
N23   O30   1.301344 A    
C40   N22   1.433245 S    
C6    C11   1.539313 S    
C32   N20   1.427315 S    
C29   C35   1.434376 A    
C9    C11   1.544209 S    
C14   C16   1.409880 A    
C2    C15   1.466605 S    
C33   C39   1.420375 A    
C34   C40   1.420731 A    
C7    C10   1.540126 S    
N24   O31   1.301214 A    
C5    C7    1.541789 S    
C8    C9    1.539581 S    
C32   C34   1.434314 A    
C13   N9    1.442127 S    
O7    Cu1   1.984134 S    
C5    C12   1.539944 S    
C31   N19   1.426695 S    
C21   C22   1.414413 A    
C13   C23   1.409886 A    
N20   O24   1.300196 A    
C21   C23   1.411789 A    
N10   O11   1.296995 A    
C30   N2    1.375185 A    
C46   N6    1.156890 T    
O3    Cu1   1.964574 S    
C6    C10   1.541912 S    
C35   C41   1.423625 A    
C36   C38   1.415980 A    
C45   N5    1.156951 T    
N19   O22   1.300814 A    
Cu1   Cu2   2.712052 S    
C31   N1    1.374206 A    
O2    C2    1.303559 A    
C32   N2    1.372618 A    
O5    C3    1.299066 A    
N13   O14   1.301247 A    
C39   N21   1.433218 S    
C28   C52   1.452647 S    
N9    O9    1.297375 A    
N14   O16   1.301663 A    
C26   N14   1.436533 S    
O4    C1    1.297404 A    
C29   N1    1.371160 A    
C52   N16   1.157457 T    
C4    C11   1.465620 S    
C25   N13   1.435444 S    
C14   C24   1.416280 A    
C47   N7    1.157048 T    
N9    O10   1.301792 A    
C22   C24   1.414075 A    
C36   C42   1.424713 A    
C50   N12   1.155796 T    
N18   O20   1.301553 A    
C51   N15   1.157695 T    
C33   C37   1.415374 A    
O6    C4    1.297741 A    
N20   O23   1.300816 A    
N22   O28   1.301390 A    
N21   O26   1.301008 A    
C10   C12   1.543502 S    
C48   N8    1.157206 T    
N17   O18   1.298091 A    
O8    Cu2   1.984135 S    
O1    C1    1.312079 A    
O1    Cu1   1.971025 S    
C6    C46   1.468871 S    
Cu1   N1    2.037659 S    
C40   C41   1.405329 A    
Cu2   N2    2.037659 S    
C9    C43   1.468639 S    
C30   C36   1.436517 A    
C34   C38   1.416701 A    
O6    Cu2   1.979851 S    
C25   C27   1.403607 A    
C8    C12   1.545327 S    
C5    C45   1.469122 S    
N14   O15   1.301884 A    
C20   C26   1.422193 A    
C15   C17   1.406978 A    
N23   O29   1.300874 A    
C19   C25   1.419932 A    
C3    C12   1.466787 S    
C16   C18   1.408654 A    
C23   C28   1.413896 A    
N21   O25   1.301352 A    
C42   N24   1.432645 S    
C39   C42   1.406994 A    
C18   C20   1.417422 A    
C19   C21   1.420081 A    
C7    C47   1.470133 S    
C20   C22   1.420844 A    
N18   O19   1.297979 A    
C26   C28   1.401855 A    
N24   O32   1.301038 A    
C13   C15   1.407374 A    
O4    Cu2   1.964574 S    
N22   O27   1.301048 A    
O2    Cu2   1.971025 S    
O7    C4    1.299234 A    
C7    C11   1.542912 S    
O8    C3    1.298336 A    
C1    C16   1.475528 S    
C41   N23   1.433210 S    
O5    Cu1   1.979852 S    
C6    C8    1.542870 S    
C37   C38   1.439432 A    
C31   C33   1.436546 A    
C27   C51   1.452401 S    
N10   O12   1.302391 A    
C30   N18   1.425691 S    
C10   C44   1.465183 S    
C17   C49   1.450592 S    
C18   C50   1.450048 S    
