data_mof_unit_37819.cif
_audit_creation_date              2013-03-05T15:47:36-0500
_audit_creation_method            fapswitch 2.2
_symmetry_space_group_name_H-M    P1
_symmetry_Int_Tables_number       1
_space_group_crystal_system       triclinic
_cell_length_a                    10.790086
_cell_length_b                    13.00429
_cell_length_c                    11.671969
_cell_angle_alpha                 100.07107
_cell_angle_beta                  93.600475
_cell_angle_gamma                 90.320947
_cell_volume                      1609.13283943

loop_
_atom_site_label
_atom_site_type_symbol
_atom_site_description
_atom_site_fract_x
_atom_site_fract_y
_atom_site_fract_z
_atom_type_partial_charge
O1    O     O_R   0.506570 0.354460 0.582000 -0.589992
O2    O     O_R   0.490940 0.341410 0.386200 -0.580944
C1    C     C_R   0.497907 0.299113 0.478413 0.865290
O3    O     O_R   0.327470 0.506530 0.597920 -0.588132
O4    O     O_R   0.311840 0.493480 0.402120 -0.582929
C2    C     C_R   0.262675 0.502954 0.500794 0.802906
Cu1   Cu    Cu3+1 0.509250 0.507730 0.615930 0.960296
Cu2   Cu    Cu3+1 0.490750 0.492270 0.384070 0.974553
O5    O     O_R   0.509060 0.658590 0.613800 -0.595108
O6    O     O_R   0.493430 0.645540 0.418000 -0.591160
O7    O     O_R   0.688160 0.506520 0.597880 -0.585455
O8    O     O_R   0.672530 0.493470 0.402080 -0.558462
C3    C     C_R   0.498582 0.701151 0.522007 0.770468
C4    C     C_R   0.737536 0.501768 0.499756 0.877489
H1    H     H_    0.108956 0.361445 0.383954 0.177603
C5    C     C_R   0.137889 0.680969 0.629700 -0.146623
H2    H     H_    0.237988 0.685809 0.630943 0.146850
C6    C     C_R   0.076976 0.765568 0.690669 -0.120168
H3    H     H_    0.130044 0.832096 0.738348 0.147192
C7    C     C_R   0.947996 0.765346 0.688844 -0.132725
H4    H     H_    0.900865 0.831733 0.735126 0.142110
C8    C     C_R   0.879242 0.680436 0.626255 -0.162775
H5    H     H_    0.779236 0.685436 0.625017 0.132468
C9    C     C_R   0.939069 0.592737 0.565156 0.049427
C10   C     C_R   0.070082 0.593467 0.566733 0.096617
C11   C     C_R   0.129324 0.508159 0.501755 -0.155683
C12   C     C_R   0.061135 0.425881 0.433624 -0.261332
C13   C     C_R   0.932729 0.422557 0.433176 0.334068
C14   C     C_R   0.871502 0.505667 0.499862 -0.230952
C15   C     C_R   0.492712 0.815230 0.536169 -0.099995
C16   C     C_R   0.498105 0.185825 0.465847 -0.043516
C17   C     C_R   0.523202 0.015153 0.348820 -0.195835
C18   C     C_R   0.518948 0.123193 0.358287 -0.127726
C19   C     C_R   0.479383 0.139951 0.563203 -0.250973
C20   C     C_R   0.482854 0.032182 0.554260 0.159549
C21   C     C_R   0.505745 0.969226 0.446639 0.165871
C22   C     C_R   0.510997 0.861490 0.438536 -0.260458
C23   C     C_R   0.467593 0.878952 0.643740 -0.028932
C24   C     C_R   0.463676 0.986886 0.651677 -0.241312
H6    H     H_    0.529969 0.813706 0.355815 0.157298
H7    H     H_    0.540536 0.967738 0.265536 0.144008
H8    H     H_    0.444839 0.035734 0.733910 0.141275
H9    H     H_    0.533807 0.157723 0.282170 0.174322
H10   H     H_    0.461989 0.188057 0.646193 0.148923
N1    N     N_R   0.523180 0.519350 0.790130 -0.184754
N2    N     N_R   0.476820 0.480650 0.209890 -0.183564
C25   C     C_R   0.386144 0.399463 0.021298 -0.320021
C26   C     C_R   0.396683 0.409339 0.143586 0.106616
C27   C     C_R   0.548609 0.543898 0.157356 0.050247
C28   C     C_R   0.541162 0.536702 0.034431 0.062118
C29   C     C_R   0.458754 0.463420 0.965588 0.063073
C30   C     C_R   0.451312 0.456192 0.842673 0.041318
C31   C     C_R   0.603387 0.590627 0.856400 0.130583
C32   C     C_R   0.613813 0.600624 0.978697 -0.310356
H11   H     H_    0.387930 0.400210 0.788932 0.118829
H12   H     H_    0.659636 0.640359 0.814434 0.122945
H13   H     H_    0.321786 0.342187 0.970834 0.143954
H14   H     H_    0.678149 0.657930 0.029139 0.141654
H15   H     H_    0.340439 0.359595 0.185537 0.128005
H16   H     H_    0.611963 0.599901 0.211106 0.116942
N3    N     N_R   0.866476 0.332582 0.367901 0.128194
O9    O     O_R   0.779487 0.287543 0.414676 -0.380500
O10   O     O_R   0.905418 0.286216 0.268960 -0.360453
C33   C     C_1   0.442067 0.837208 0.746930 0.237909
N4    N     N_1   0.421408 0.804120 0.829711 -0.290135

loop_
_geom_bond_atom_site_label_1
_geom_bond_atom_site_label_2
_geom_bond_distance
_ccdc_geom_bond_type
O4    Cu2   1.954878 S    
C20   C24   1.394665 A    
C17   H7    1.083805 S    
C16   C18   1.403561 A    
C9    C10   1.412556 A    
Cu1   O5    1.966337 S    
C25   H13   1.083214 S    
H1    C12   1.084903 S    
C25   C26   1.407858 A    
N1    C30   1.371419 A    
C30   H11   1.082592 S    
Cu2   O8    1.959166 S    
C33   N4    1.157503 T    
C27   C28   1.418551 A    
O2    C1    1.289962 A    
C16   C19   1.397335 A    
N1    C31   1.364785 A    
Cu1   Cu2   2.673114 S    
C5    C6    1.393466 A    
C28   C32   1.405189 A    
C31   C32   1.407817 A    
C13   N3    1.439103 S    
C1    C16   1.454789 S    
N2    C27   1.371643 A    
C11   C12   1.392371 A    
C2    C11   1.441497 S    
C27   H16   1.082611 S    
O3    Cu1   1.959167 S    
O4    C2    1.284879 A    
C17   C21   1.400000 A    
O3    C2    1.287542 A    
C21   C22   1.389333 A    
C7    C8    1.394241 A    
C28   C29   1.406218 A    
C24   H8    1.085725 S    
C6    C7    1.390515 A    
N3    O9    1.300839 A    
C19   C20   1.387914 A    
O7    C4    1.285162 A    
C8    C9    1.416892 A    
C4    C14   1.446022 S    
C22   H6    1.084753 S    
C18   H9    1.083169 S    
N2    C26   1.364750 A    
Cu1   N1    2.008349 S    
C3    C15   1.465858 S    
C5    C10   1.414542 A    
C19   H10   1.084936 S    
C7    H4    1.082628 S    
C15   C23   1.420551 A    
C26   H15   1.081769 S    
Cu2   O6    1.962714 S    
C6    H3    1.082644 S    
C32   H14   1.083192 S    
C31   H12   1.081793 S    
C12   C13   1.385590 A    
N3    O10   1.301544 A    
C23   C33   1.445626 S    
O5    C3    1.288377 A    
C8    H5    1.080741 S    
C13   C14   1.410233 A    
Cu1   O7    1.954878 S    
C25   C29   1.405071 A    
C17   C18   1.391180 A    
Cu2   N2    2.008117 S    
O1    Cu1   1.962714 S    
C10   C11   1.410349 A    
C9    C14   1.418997 A    
O6    C3    1.297622 A    
O2    Cu2   1.966336 S    
C29   C30   1.418385 A    
C15   C22   1.402184 A    
O8    C4    1.288056 A    
C5    H2    1.080597 S    
O1    C1    1.292015 A    
C20   C21   1.410932 A    
C23   C24   1.391466 A    
