data_mof_unit_47092.cif
_audit_creation_date              2013-03-05T16:33:00-0500
_audit_creation_method            fapswitch 2.2
_symmetry_space_group_name_H-M    P1
_symmetry_Int_Tables_number       1
_space_group_crystal_system       triclinic
_cell_length_a                    23.539363
_cell_length_b                    10.902992
_cell_length_c                    9.590313
_cell_angle_alpha                 90.000093
_cell_angle_beta                  89.969947
_cell_angle_gamma                 92.396173
_cell_volume                      2459.19642558

loop_
_atom_site_label
_atom_site_type_symbol
_atom_site_description
_atom_site_fract_x
_atom_site_fract_y
_atom_site_fract_z
_atom_type_partial_charge
O1    O     O_R   0.500000 0.319640 0.618810 -0.532664
O2    O     O_R   0.500010 0.319680 0.381230 -0.591449
C1    C     C_R   0.501491 0.262574 0.499789 0.836940
O3    O     O_R   0.417880 0.499940 0.618820 -0.503665
O4    O     O_R   0.417880 0.499980 0.381240 -0.607574
C2    C     C_R   0.391245 0.506282 0.500085 0.905376
Cu1   Cu    Cu3+1 0.500000 0.499980 0.640670 1.077496
Cu2   Cu    Cu3+1 0.500000 0.500020 0.359330 0.988684
O5    O     O_R   0.499990 0.680320 0.618770 -0.574262
O6    O     O_R   0.500000 0.680360 0.381190 -0.589917
O7    O     O_R   0.582120 0.500020 0.618760 -0.550200
O8    O     O_R   0.582120 0.500060 0.381180 -0.589125
C3    C     C_R   0.500911 0.737408 0.499643 0.825966
C4    C     C_R   0.608957 0.496753 0.500244 0.816255
C5    C     C_R   0.881084 0.616388 0.493685 0.577035
N1    N     N_R   0.852399 0.504539 0.494993 -0.464877
C6    C     C_R   0.880708 0.397344 0.495753 0.558704
C7    C     C_R   0.940288 0.400084 0.500433 -0.017086
C8    C     C_R   0.970558 0.514480 0.499736 -0.007073
C9    C     C_R   0.940787 0.623508 0.494978 -0.076341
C10   C     C_R   0.970081 0.291428 0.506802 -0.121941
C11   C     C_R   0.029230 0.296065 0.512357 -0.091143
C12   C     C_R   0.059884 0.409380 0.509695 -0.019355
C13   C     C_R   0.030613 0.519546 0.503325 -0.045187
C14   C     C_R   0.061191 0.634155 0.500009 -0.141544
C15   C     C_R   0.030540 0.743841 0.499376 0.345707
C16   C     C_R   0.971034 0.736948 0.494818 -0.189105
C17   C     C_R   0.119349 0.414987 0.511976 0.634268
N2    N     N_R   0.148623 0.525526 0.500478 -0.452892
C18   C     C_R   0.121185 0.633689 0.492747 0.637930
O9    O     O_2   0.851877 0.720294 0.492652 -0.514150
O10   O     O_2   0.851195 0.288555 0.492477 -0.508701
H1    H     H_    0.947822 0.202449 0.508120 0.207759
H2    H     H_    0.050863 0.210431 0.517320 0.234576
O11   O     O_2   0.147892 0.310665 0.523929 -0.459193
O12   O     O_2   0.152074 0.739250 0.473494 -0.423639
H3    H     H_    0.948459 0.821555 0.494618 0.217161
C19   C     C_R   0.240776 0.578789 0.606679 -0.162892
H4    H     H_    0.218155 0.621072 0.691212 0.213500
C20   C     C_R   0.300307 0.579488 0.608259 0.340687
C21   C     C_R   0.329017 0.519663 0.499298 -0.205475
C22   C     C_R   0.297608 0.472533 0.385474 -0.275591
H5    H     H_    0.319332 0.432735 0.298586 0.217430
C23   C     C_R   0.238361 0.477571 0.380524 0.393839
C24   C     C_R   0.209680 0.527770 0.494962 0.156230
C25   C     C_R   0.761826 0.461077 0.619877 -0.108770
C26   C     C_R   0.701875 0.454406 0.620852 0.274096
C27   C     C_R   0.671662 0.492128 0.501141 -0.156794
C28   C     C_R   0.702016 0.529730 0.381424 -0.240111
H6    H     H_    0.680034 0.558253 0.288595 0.180457
C29   C     C_R   0.761117 0.532963 0.380151 -0.072472
H7    H     H_    0.783703 0.562279 0.286724 0.170627
C30   C     C_R   0.791301 0.499636 0.498697 0.246388
C31   C     C_R   0.482612 0.061862 0.614540 0.117723
C32   C     C_R   0.502042 0.128744 0.497701 -0.197277
C33   C     C_R   0.519836 0.063976 0.377883 -0.035991
C34   C     C_R   0.516671 0.935847 0.377055 -0.220151
H8    H     H_    0.530889 0.887527 0.285727 0.158625
C35   C     C_R   0.500361 0.870441 0.497220 -0.102180
C36   C     C_R   0.484145 0.934663 0.614697 0.167341
C37   C     C_3   0.510236 0.929759 0.755522 -0.542359
C38   C     C_3   0.506240 0.067189 0.760212 0.154310
H9    H     H_    0.482506 0.878494 0.831383 0.254027
H10   H     H_    0.555174 0.902491 0.750757 0.168189
H11   H     H_    0.548074 0.118091 0.769299 0.159017
C39   C     C_R   0.546696 0.541696 0.073107 0.273824
N3    N     N_R   0.500360 0.500930 0.147930 -0.248006
C40   C     C_R   0.458364 0.438550 0.075413 -0.065850
C41   C     C_R   0.456083 0.444906 0.927028 0.399583
N4    N     N_R   0.500360 0.500890 0.852020 -0.260274
C42   C     C_R   0.547303 0.538961 0.926412 0.292444
C43   C     C_3   0.576675 0.662253 0.920175 -0.478903
C44   C     C_3   0.575325 0.665609 0.078402 -0.484946
H12   H     H_    0.620266 0.659111 0.876179 0.234741
H13   H     H_    0.549396 0.729829 0.872151 0.203863
H14   H     H_    0.618249 0.664318 0.126180 0.205882
H15   H     H_    0.547252 0.736183 0.120071 0.209669
N5    N     N_R   0.672226 0.403618 0.740002 0.129823
O13   O     O_R   0.681915 0.448358 0.863928 -0.376159
O14   O     O_R   0.639427 0.305248 0.726286 -0.360753
C45   C     C_1   0.548282 0.124756 0.261760 0.343054
N6    N     N_1   0.571751 0.173427 0.169809 -0.199046
N7    N     N_R   0.464735 0.103447 0.864013 0.185325
O15   O     O_R   0.481728 0.170067 0.969362 -0.377966
O16   O     O_R   0.412758 0.057443 0.862272 -0.241910
C46   C     C_1   0.420000 0.353484 0.147183 0.493577
N8    N     N_1   0.389796 0.282762 0.202937 -0.203661
N9    N     N_R   0.405723 0.396044 0.859213 0.146891
O17   O     O_R   0.408230 0.304374 0.773449 -0.277367
O18   O     O_R   0.356083 0.427452 0.903078 -0.301348
N10   N     N_R   0.058362 0.863018 0.510410 0.168386
O19   O     O_R   0.088310 0.890707 0.620878 -0.260600
O20   O     O_R   0.043678 0.950772 0.427633 -0.324136
N11   N     N_R   0.330436 0.648125 0.715204 0.163681
O21   O     O_R   0.307533 0.660422 0.837695 -0.261299
O22   O     O_R   0.374358 0.718782 0.682646 -0.344028
N12   N     N_R   0.208168 0.432479 0.259017 0.161567
O23   O     O_R   0.230465 0.351155 0.178639 -0.256140
O24   O     O_R   0.161100 0.480777 0.220109 -0.312062
C47   C     C_1   0.793359 0.426435 0.742185 0.396600
N13   N     N_1   0.818653 0.398769 0.839909 -0.219652

loop_
_geom_bond_atom_site_label_1
_geom_bond_atom_site_label_2
_geom_bond_distance
_ccdc_geom_bond_type
C32   C33   1.420831 A    
C7    C10   1.403052 A    
C40   C46   1.441812 S    
C21   C22   1.404064 A    
C8    C9    1.405675 A    
C38   N7    1.460506 S    
Cu1   N4    2.026958 S    
N12   O23   1.301679 A    
Cu1   Cu2   2.698139 S    
C31   C36   1.388824 A    
Cu1   O7    1.944309 S    
C15   C16   1.400303 A    
N7    O15   1.297871 A    
C17   N2    1.367486 A    
C43   H13   1.098709 S    
C19   H4    1.083225 S    
O7    C4    1.301291 A    
N5    O14   1.301755 A    
C34   C35   1.400234 A    
C10   H1    1.083225 S    
C5    N1    1.369089 A    
C33   C34   1.395880 A    
C7    C8    1.410359 A    
C37   H9    1.112123 S    
O5    C3    1.300755 A    
N1    C30   1.437370 S    
C19   C24   1.399967 A    
C25   C26   1.410053 A    
C1    C32   1.459890 S    
C26   C27   1.420690 A    
C17   O11   1.349928 S    
C40   C41   1.425893 A    
C28   C29   1.390243 A    
C2    C21   1.478141 S    
C12   C13   1.410843 A    
N4    C42   1.365583 A    
C39   N3    1.364112 A    
C35   C36   1.388251 A    
O1    Cu1   1.977390 S    
C10   C11   1.392162 A    
C41   N4    1.386491 A    
C22   C23   1.398842 A    
O3    Cu1   1.944468 S    
N12   O24   1.301275 A    
C45   N6    1.157332 T    
C5    C9    1.404334 A    
C11   H2    1.083103 S    
N3    C40   1.366740 A    
C33   C45   1.445635 S    
C13   C14   1.416096 A    
C43   H12   1.111105 S    
C20   N11   1.439208 S    
N10   O19   1.301339 A    
N5    O13   1.301325 A    
N1    C6    1.369374 A    
C4    C27   1.479025 S    
C31   C38   1.504179 S    
C14   C15   1.422307 A    
C39   C44   1.485223 S    
C29   H7    1.083018 S    
N2    C24   1.437367 S    
C36   C37   1.485826 S    
O1    C1    1.301164 A    
C37   H10   1.111600 S    
N2    C18   1.370082 A    
N10   O20   1.301172 A    
C23   N12   1.440969 S    
C39   C42   1.407246 A    
Cu2   O8    1.944468 S    
C6    C7    1.402281 A    
N11   O21   1.301538 A    
C12   C17   1.398720 A    
N11   O22   1.301147 A    
C41   N9    1.435293 S    
O3    C2    1.303412 A    
C20   C21   1.417834 A    
N7    O16   1.302899 A    
N9    O18   1.300981 A    
C44   H14   1.110289 S    
C22   H5    1.078080 S    
C23   C24   1.410663 A    
C14   C18   1.414128 A    
Cu1   O5    1.977442 S    
C25   C47   1.447008 S    
C31   C32   1.402886 A    
C27   C28   1.404070 A    
C38   H11   1.113418 S    
C46   N8    1.157454 T    
O2    Cu2   1.977442 S    
O8    C4    1.306478 A    
C43   C44   1.518243 S    
O6    C3    1.294890 A    
O4    Cu2   1.944314 S    
C5    O9    1.349572 S    
C3    C35   1.451240 S    
C9    C16   1.401092 A    
C18   O12   1.348071 S    
O2    C1    1.297520 A    
C15   N10   1.434370 S    
C42   C43   1.486895 S    
C19   C20   1.401128 A    
C34   H8    1.082194 S    
O4    C2    1.303736 A    
C16   H3    1.083680 S    
C25   C30   1.408377 A    
C47   N13   1.157354 T    
C8    C13   1.412861 A    
C37   C38   1.505941 S    
N9    O17   1.297623 A    
Cu2   N3    2.027427 S    
Cu2   O6    1.977389 S    
C28   H6    1.082098 S    
C6    O10   1.349676 S    
C44   H15   1.109362 S    
C11   C12   1.404686 A    
C26   N5    1.437475 S    
C29   C30   1.397074 A    
