data_mof_unit_54303.cif
_audit_creation_date              2012-10-26T17:11:07-0400
_audit_creation_method            fapswitch 2.2
_symmetry_space_group_name_H-M    P1
_symmetry_Int_Tables_number       1
_space_group_crystal_system       triclinic
_cell_length_a                    28.045919
_cell_length_b                    18.733423
_cell_length_c                    16.865252
_cell_angle_alpha                 90.069263
_cell_angle_beta                  62.522503
_cell_angle_gamma                 90.122597
_cell_volume                      7861.33523366

loop_
_atom_site_label
_atom_site_type_symbol
_atom_type_description
_atom_site_fract_x
_atom_site_fract_y
_atom_site_fract_z
_atom_type_partial_charge
C1    C     C_R   0.294943 0.728171 0.329766 0.564409
C2    C     C_R   0.460291 0.128866 0.468158 -0.130664
C3    C     C_R   0.926359 0.096673 0.066726 0.553886
C4    C     C_R   0.426495 0.403116 0.066568 0.554743
C5    C     C_R   0.573499 0.596883 0.933409 0.554958
C6    C     C_R   0.573609 0.403281 0.933299 0.553500
C7    C     C_R   0.426358 0.596669 0.066726 0.556067
C8    C     C_R   0.057213 0.500357 0.478027 0.041984
C9    C     C_R   0.964230 0.500197 0.452311 0.039131
C10   C     C_R   0.545448 0.002114 0.515174 0.040488
C11   C     C_R   0.449660 0.002554 0.499830 0.041814
C12   C     C_R   0.027718 0.563788 0.489411 0.021007
C13   C     C_R   0.438799 0.876858 0.535152 -0.129478
C14   C     C_R   0.993077 0.436089 0.441657 0.017673
C15   C     C_R   0.984919 0.564843 0.467019 0.017012
C16   C     C_R   0.042012 0.437420 0.448356 0.017814
C17   C     C_R   0.519740 0.067201 0.517246 0.019625
C18   C     C_R   0.470840 0.938093 0.512519 0.013742
C19   C     C_R   0.476215 0.067330 0.496575 0.020348
C20   C     C_R   0.522602 0.937667 0.506074 0.014098
C21   C     C_R   0.133274 0.437559 0.481121 0.009543
C22   C     C_R   0.889175 0.565754 0.448769 0.009630
C23   C     C_R   0.890676 0.435101 0.442236 0.013079
C24   C     C_R   0.537144 0.129006 0.542950 -0.130103
C25   C     C_R   0.117949 0.563240 0.524178 0.016510
C26   C     C_R   0.623670 0.937035 0.506026 0.011239
C27   C     C_R   0.383945 0.065447 0.467849 0.014793
C28   C     C_R   0.372430 0.937838 0.504170 0.011657
C29   C     C_R   0.614130 0.065265 0.539619 0.013885
C30   C     C_R   0.174837 0.435979 0.507649 -0.022740
C31   C     C_R   0.835913 0.565508 0.457286 -0.023411
C32   C     C_R   0.836468 0.434759 0.454934 -0.023918
C33   C     C_R   0.167212 0.564411 0.530229 -0.025673
C34   C     C_R   0.671031 0.935951 0.517803 -0.023558
C35   C     C_R   0.076916 0.378620 0.425153 -0.114238
C36   C     C_R   0.333437 0.065304 0.466257 -0.023889
C37   C     C_R   0.327341 0.936248 0.486449 -0.022520
C38   C     C_R   0.665855 0.065273 0.536633 -0.023143
C39   C     C_R   0.192445 0.499882 0.527993 -0.163145
C40   C     C_R   0.810787 0.500047 0.460910 -0.160358
C41   C     C_R   0.691702 0.000319 0.530789 -0.162094
C42   C     C_R   0.307904 0.000307 0.470333 -0.163897
C43   C     C_R   0.102662 0.500274 0.494950 0.041391
C44   C     C_R   0.914456 0.500259 0.448101 0.038358
C45   C     C_R   0.594344 0.001369 0.521078 0.038325
C46   C     C_R   0.963980 0.628866 0.453760 -0.138888
C47   C     C_R   0.402013 0.001920 0.490141 0.039596
C48   C     C_R   0.604621 0.876991 0.477777 -0.111006
C49   C     C_R   0.417130 0.126666 0.448827 -0.106017
C50   C     C_R   0.388906 0.878371 0.537102 -0.090705
C51   C     C_R   0.581374 0.126805 0.559453 -0.105475
C52   C     C_R   0.122181 0.379606 0.438691 -0.089189
C53   C     C_R   0.919257 0.628753 0.439041 -0.113795
C54   C     C_R   0.922747 0.373200 0.422314 -0.109674
C55   C     C_R   0.083308 0.622456 0.546308 -0.105965
C56   C     C_1   0.305790 0.826583 0.836900 0.189438
C57   C     C_R   0.972111 0.373339 0.423477 -0.130914
C58   C     C_1   0.693732 0.174028 0.164276 0.189001
C59   C     C_1   0.785838 0.636018 0.070635 0.189666
C60   C     C_1   0.304340 0.167127 0.840359 0.191456
C61   C     C_1   0.805817 0.325371 0.836237 0.190772
C62   C     C_1   0.193933 0.673307 0.163546 0.191118
C63   C     C_1   0.197373 0.334602 0.156078 0.186575
C64   C     C_1   0.713962 0.864270 0.929569 0.189889
C65   C     C_R   0.040143 0.623468 0.527118 -0.130776
C66   C     C_R   0.221993 0.769190 0.951857 -0.001996
C67   C     C_R   0.777731 0.230390 0.048428 -0.001462
C68   C     C_R   0.779731 0.766171 0.046258 -0.003054
C69   C     C_R   0.705009 0.271740 0.670265 0.556775
C70   C     C_R   0.222445 0.230359 0.951310 -0.002894
C71   C     C_R   0.721853 0.268875 0.951949 -0.001437
C72   C     C_R   0.277793 0.730440 0.048351 -0.002373
C73   C     C_R   0.278405 0.268666 0.047616 -0.002341
C74   C     C_R   0.720083 0.734117 0.953927 -0.002458
C75   C     C_R   0.277014 0.786383 0.918501 0.000984
C76   C     C_R   0.722618 0.213560 0.082154 0.000811
C77   C     C_R   0.767191 0.694669 0.036805 -0.000675
C78   C     C_R   0.276614 0.209834 0.920071 -0.000810
C79   C     C_R   0.776954 0.285730 0.918264 0.000494
C80   C     C_R   0.705001 0.728276 0.670335 0.563877
C81   C     C_R   0.222757 0.713289 0.081760 -0.000761
C82   C     C_R   0.224431 0.289757 0.078298 0.001071
C83   C     C_R   0.732615 0.805621 0.963391 -0.000540
C84   C     C_R   0.304381 0.766607 0.966585 -0.129907
C85   C     C_R   0.695221 0.233170 0.034044 -0.126324
C86   C     C_R   0.737514 0.679318 0.991122 -0.128449
C87   C     C_R   0.304081 0.229205 0.968243 -0.131078
C88   C     C_R   0.804352 0.266103 0.966348 -0.125947
C89   C     C_R   0.195397 0.733028 0.033636 -0.130337
C90   C     C_R   0.196840 0.269962 0.030536 -0.131268
C91   C     C_R   0.294910 0.271899 0.329721 0.546900
C92   C     C_R   0.762295 0.820973 0.009073 -0.129100
C93   C     C_R   0.145374 0.830770 0.943292 -0.114326
C94   C     C_R   0.854447 0.168949 0.056876 -0.116024
C95   C     C_R   0.855572 0.829120 0.055969 -0.115941
C96   C     C_R   0.145499 0.169314 0.943229 -0.114933
C97   C     C_R   0.645261 0.330558 0.943372 -0.116389
C98   C     C_R   0.354473 0.668969 0.056841 -0.114067
C99   C     C_R   0.355106 0.329854 0.056210 -0.114173
C100  C     C_R   0.644305 0.671074 0.944132 -0.115701
C101  C     C_R   0.118231 0.852397 0.894950 -0.011947
C102  C     C_R   0.794963 0.228210 0.329754 0.555748
C103  C     C_R   0.881715 0.147528 0.105096 -0.012821
C104  C     C_R   0.882168 0.851728 0.104775 -0.012547
C105  C     C_R   0.118224 0.147740 0.895025 -0.012194
C106  C     C_R   0.618160 0.352281 0.894997 -0.012843
C107  C     C_R   0.381704 0.647499 0.105099 -0.011612
C108  C     C_R   0.382021 0.351935 0.104776 -0.012284
C109  C     C_R   0.617782 0.648345 0.895262 -0.012190
C110  C     C_R   0.136709 0.829856 0.806870 -0.136552
C111  C     C_R   0.863319 0.170201 0.193109 -0.138407
C112  C     C_R   0.863552 0.829437 0.192945 -0.136955
C113  C     C_R   0.205044 0.771804 0.670249 0.549650
C114  C     C_R   0.136655 0.170271 0.806976 -0.135628
C115  C     C_R   0.636634 0.329746 0.806911 -0.138036
C116  C     C_R   0.363270 0.670114 0.193139 -0.135302
C117  C     C_R   0.363392 0.329678 0.192975 -0.136771
C118  C     C_R   0.636433 0.670577 0.807063 -0.135507
C119  C     C_R   0.182683 0.787846 0.765697 -0.011909
C120  C     C_R   0.817327 0.212177 0.234308 -0.011881
C121  C     C_R   0.817596 0.787208 0.234008 -0.012043
C122  C     C_R   0.182863 0.211992 0.765593 -0.012130
C123  C     C_R   0.682550 0.287621 0.765780 -0.011991
C124  C     C_R   0.205092 0.228105 0.670241 0.565778
C125  C     C_R   0.317272 0.712075 0.234339 -0.012051
C126  C     C_R   0.317223 0.287873 0.234262 -0.012015
C127  C     C_R   0.682351 0.712881 0.766035 -0.012377
C128  C     C_R   0.209589 0.766199 0.814220 -0.099740
C129  C     C_R   0.790361 0.233730 0.185850 -0.094773
C130  C     C_R   0.791021 0.764789 0.185067 -0.097922
C131  C     C_R   0.210115 0.233263 0.813815 -0.098273
C132  C     C_R   0.709341 0.265754 0.814399 -0.094905
C133  C     C_R   0.290297 0.733600 0.185881 -0.097793
C134  C     C_R   0.290190 0.266305 0.185753 -0.101395
C135  C     C_R   0.794991 0.771740 0.329669 0.550540
C136  C     C_R   0.708844 0.735444 0.815055 -0.095703
C137  C     C_R   0.191546 0.788336 0.902721 -0.005469
C138  C     C_R   0.808269 0.211380 0.097466 -0.006464
C139  C     C_R   0.809975 0.785432 0.095788 -0.004766
C140  C     C_R   0.191900 0.211396 0.902376 -0.006486
C141  C     C_R   0.691356 0.287969 0.902863 -0.006491
C142  C     C_R   0.308273 0.711349 0.097446 -0.006133
C143  C     C_R   0.308763 0.287690 0.096875 -0.005117
C144  C     C_R   0.689865 0.714833 0.904356 -0.004622
C145  C     C_R   0.197040 0.631480 0.525527 0.553294
C146  C     C_R   0.553579 0.875728 0.484340 -0.143378
C147  C     C_R   0.803589 0.368240 0.471802 0.552124
C148  C     C_R   0.803239 0.631671 0.473052 0.554600
C149  C     C_R   0.200793 0.368971 0.513539 0.554615
C150  C     C_R   0.696835 0.131802 0.526893 0.553598
C151  C     C_R   0.299976 0.869057 0.484343 0.555365
C152  C     C_R   0.303025 0.131741 0.473673 0.555461
C153  C     C_R   0.699547 0.869054 0.516985 0.556617
C154  C     C_R   0.926489 0.903132 0.066601 0.554350
C155  C     C_R   0.073584 0.096787 0.933368 0.555302
C156  C     C_R   0.073623 0.903303 0.933289 0.555469
Cu1   Cu    Cu3+1 0.209920 0.785290 0.495070 0.933571
Cu2   Cu    Cu3+1 0.504760 0.500000 0.075850 0.930963
Cu3   Cu    Cu3+1 0.995240 0.000000 0.924150 0.932471
Cu4   Cu    Cu3+1 0.004760 0.000000 0.075850 0.927817
Cu5   Cu    Cu3+1 0.790080 0.214710 0.504930 0.937077
Cu6   Cu    Cu3+1 0.790080 0.785290 0.504930 0.928187
Cu7   Cu    Cu3+1 0.209920 0.214710 0.495070 0.923900
Cu8   Cu    Cu3+1 0.709920 0.285290 0.495070 0.935658
Cu9   Cu    Cu3+1 0.290080 0.714710 0.504930 0.923869
Cu10  Cu    Cu3+1 0.290080 0.285290 0.504930 0.930468
Cu11  Cu    Cu3+1 0.709920 0.714710 0.495070 0.926910
Cu12  Cu    Cu3+1 0.495240 0.500000 0.924150 0.930715
H1    H     H_    0.227326 0.499702 0.539690 0.158877
H2    H     H_    0.910550 0.678977 0.417812 0.155186
H3    H     H_    0.911723 0.323846 0.402226 0.149024
H4    H     H_    0.087477 0.667975 0.581890 0.145430
H5    H     H_    0.540321 0.827280 0.465317 0.108581
H6    H     H_    0.483091 0.177955 0.455103 0.111175
H7    H     H_    0.450591 0.828711 0.556969 0.115177
H8    H     H_    0.514959 0.178474 0.555501 0.110940
H9    H     H_    0.071398 0.331761 0.393092 0.112649
H10   H     H_    0.983627 0.679476 0.449684 0.110691
H11   H     H_    0.992361 0.322652 0.411855 0.103876
H12   H     H_    0.769627 0.499900 0.471572 0.162102
H13   H     H_    0.015214 0.670690 0.546064 0.107380
H14   H     H_    0.153282 0.719219 0.059258 0.119623
H15   H     H_    0.846524 0.279694 0.940467 0.122025
H16   H     H_    0.771168 0.876116 0.017076 0.122753
H17   H     H_    0.155469 0.286602 0.054148 0.119263
H18   H     H_    0.653044 0.219609 0.059934 0.120518
H19   H     H_    0.346490 0.780448 0.940978 0.120544
H20   H     H_    0.345517 0.212823 0.944470 0.119749
H21   H     H_    0.728644 0.624174 0.983120 0.123056
H22   H     H_    0.131979 0.848915 0.011298 0.135121
H23   H     H_    0.729595 0.000130 0.533354 0.162034
H24   H     H_    0.867759 0.150659 0.988948 0.135886
H25   H     H_    0.869474 0.846523 0.987573 0.134638
H26   H     H_    0.132065 0.151354 0.011296 0.134834
H27   H     H_    0.631903 0.348762 0.011345 0.135102
H28   H     H_    0.367831 0.650763 0.988868 0.135382
H29   H     H_    0.368727 0.347578 0.988004 0.135416
H30   H     H_    0.630382 0.653701 0.012544 0.134691
H31   H     H_    0.116410 0.847339 0.769080 0.154317
H32   H     H_    0.883687 0.152838 0.230837 0.153394
H33   H     H_    0.883587 0.847529 0.230992 0.154220
H34   H     H_    0.271277 0.999881 0.463701 0.159589
H35   H     H_    0.116161 0.152958 0.769343 0.155768
H36   H     H_    0.616399 0.347351 0.769070 0.153785
H37   H     H_    0.383628 0.652733 0.230878 0.155544
H38   H     H_    0.383688 0.347304 0.230799 0.154137
H39   H     H_    0.616459 0.652376 0.768965 0.155653
H40   H     H_    0.245363 0.733488 0.782839 0.137546
H41   H     H_    0.754621 0.266505 0.217221 0.142752
H42   H     H_    0.754484 0.733437 0.216997 0.139098
H43   H     H_    0.246238 0.265470 0.782238 0.139676
H44   H     H_    0.745030 0.232881 0.783076 0.142991
H45   H     H_    0.628468 0.830738 0.446308 0.156768
H46   H     H_    0.254522 0.766310 0.217263 0.140023
H47   H     H_    0.253995 0.234232 0.217307 0.135129
H48   H     H_    0.745350 0.766862 0.783163 0.141392
H49   H     H_    0.411710 0.173300 0.416498 0.147907
H50   H     H_    0.363764 0.832738 0.567716 0.167905
H51   H     H_    0.588261 0.173877 0.589577 0.147880
H52   H     H_    0.149143 0.334990 0.411567 0.162416
N1    N     N_1   0.328832 0.858820 0.771559 -0.300803
N2    N     N_1   0.670599 0.142369 0.230073 -0.290706
N3    N     N_1   0.800781 0.589017 0.097747 -0.292347
N4    N     N_1   0.326539 0.132935 0.776478 -0.280219
N5    N     N_1   0.828925 0.357128 0.770516 -0.286372
N6    N     N_1   0.170849 0.641284 0.229064 -0.280338
N7    N     N_1   0.175794 0.370810 0.218170 -0.305304
N8    N     N_1   0.699013 0.911271 0.902467 -0.291319
O1    O     O_R   0.255040 0.869590 0.478480 -0.508044
O2    O     O_R   0.817950 0.203450 0.375560 -0.518736
O3    O     O_R   0.817950 0.796550 0.375560 -0.518312
O4    O     O_R   0.182050 0.203450 0.624440 -0.506508
O5    O     O_R   0.682050 0.296550 0.624440 -0.517650
O6    O     O_R   0.317950 0.703450 0.375560 -0.507729
O7    O     O_R   0.317950 0.296550 0.375560 -0.518130
O8    O     O_R   0.682050 0.703450 0.624440 -0.508086
O9    O     O_R   0.250530 0.763330 0.367210 -0.504736
O10   O     O_R   0.749470 0.236670 0.632790 -0.504624
O11   O     O_R   0.749470 0.763330 0.632790 -0.505594
O12   O     O_R   0.744960 0.130410 0.521520 -0.507445
O13   O     O_R   0.250530 0.236670 0.367210 -0.523128
O14   O     O_R   0.750530 0.263330 0.367210 -0.505439
O15   O     O_R   0.249470 0.736670 0.632790 -0.518910
O16   O     O_R   0.249470 0.263330 0.632790 -0.505089
O17   O     O_R   0.750530 0.736670 0.367210 -0.517216
O18   O     O_R   0.177260 0.690030 0.513710 -0.513219
O19   O     O_R   0.822740 0.309970 0.486290 -0.513623
O20   O     O_R   0.822740 0.690030 0.486290 -0.522185
O21   O     O_R   0.177260 0.309970 0.513710 -0.520818
O22   O     O_R   0.677260 0.190030 0.513710 -0.515215
O23   O     O_R   0.744960 0.869590 0.521520 -0.504566
O24   O     O_R   0.322740 0.809970 0.486290 -0.523566
O25   O     O_R   0.322740 0.190030 0.486290 -0.515346
O26   O     O_R   0.677260 0.809970 0.513710 -0.523394
O27   O     O_R   0.051640 0.926880 0.885090 -0.511479
O28   O     O_R   0.948360 0.073120 0.114910 -0.512697
O29   O     O_R   0.948360 0.926880 0.114910 -0.512354
O30   O     O_R   0.051640 0.073120 0.885090 -0.510861
O31   O     O_R   0.551640 0.426880 0.885090 -0.512485
O32   O     O_R   0.448360 0.573120 0.114910 -0.510876
O33   O     O_R   0.448360 0.426880 0.114910 -0.512186
O34   O     O_R   0.255040 0.130410 0.478480 -0.507260
O35   O     O_R   0.551640 0.573120 0.885090 -0.511621
O36   O     O_R   0.940620 0.926560 0.986760 -0.513422
O37   O     O_R   0.059380 0.073440 0.013240 -0.513566
O38   O     O_R   0.059380 0.926560 0.013240 -0.512985
O39   O     O_R   0.940620 0.073440 0.986760 -0.512915
O40   O     O_R   0.440620 0.426560 0.986760 -0.513206
O41   O     O_R   0.559380 0.573440 0.013240 -0.513153
O42   O     O_R   0.559380 0.426560 0.013240 -0.513799
O43   O     O_R   0.440620 0.573440 0.986760 -0.512614
O44   O     O_R   0.755040 0.369590 0.478480 -0.506858
O45   O     O_R   0.244960 0.630410 0.521520 -0.506605
O46   O     O_R   0.244960 0.369590 0.521520 -0.508159
O47   O     O_R   0.755040 0.630410 0.478480 -0.504313
O48   O     O_R   0.182050 0.796550 0.624440 -0.517315

loop_
_geom_bond_atom_site_label_1
_geom_bond_atom_site_label_2
_ccdc_geom_bond_type
C78   C87   A    
C35   H9    S    
C27   C49   A    
C153  O26   A    
C28   C47   A    
C70   C140  S    
Cu2   O42   S    
C21   C43   A    
C91   C126  S    
C123  C132  A    
C6    O42   A    
Cu9   O24   S    
Cu10  O16   S    
C135  O17   A    
C11   C47   A    
C132  H44   S    
C8    C43   A    
Cu3   O27   S    
C74   C83   A    
C96   C105  A    
Cu8   O14   S    
C59   C77   S    
Cu1   O48   S    
C71   C79   A    
C58   N2    T    
Cu2   Cu12  S    
C11   C18   A    
Cu5   O12   S    
C65   H13   S    
C93   H22   S    
Cu1   O18   S    
C72   C142  S    
C83   C92   A    
C4    C108  S    
C64   N8    T    
C60   C78   S    
C67   C88   A    
C33   C39   A    
Cu2   O41   S    
C145  O18   A    
C104  C154  S    
C133  H46   S    
C80   O11   A    
C99   C143  A    
Cu12  O31   S    
C1    C125  S    
Cu5   O19   S    
C100  C109  A    
C95   H25   S    
C16   C35   A    
C73   C143  S    
C56   N1    T    
Cu2   O32   S    
C75   C84   A    
C70   C78   A    
C69   C123  S    
C10   C17   A    
Cu3   O39   S    
C146  H5    S    
C91   O7    A    
C148  O20   A    
Cu10  O25   S    
C31   C40   A    
C46   C53   A    
C103  C111  A    
C37   C42   A    
C67   C138  S    
C69   O5    A    
C3    O28   A    
C73   C87   A    
C122  C124  S    
C131  C140  A    
C26   C45   A    
C68   C92   A    
C134  C143  A    
C113  C119  S    
C36   C42   A    
C23   C44   A    
C26   C34   A    
C46   H10   S    
C22   C44   A    
C129  C138  A    
C91   O13   A    
C10   C20   A    
C4    O33   A    
C113  O15   A    
C56   C75   S    
C48   C146  A    
C29   C38   A    
C102  O14   A    
C14   C16   A    
C59   N3    T    
C124  O16   A    
C69   O10   A    
C121  C130  A    
C72   C81   A    
C156  O27   A    
C26   C48   A    
C71   C141  S    
C20   C146  A    
C81   C89   A    
C119  C128  A    
C24   C51   A    
C96   H26   S    
Cu8   O44   S    
C147  O19   A    
Cu9   O6    S    
C8    C16   A    
Cu11  O26   S    
C135  O3    A    
C98   C142  A    
C136  H48   S    
C130  H42   S    
C25   C43   A    
C7    O32   A    
C70   C90   A    
C34   C41   A    
C28   C50   A    
C112  H33   S    
C37   C151  S    
C130  C139  A    
C60   N4    T    
C113  O48   A    
C79   C88   A    
C55   C65   A    
C109  C118  A    
C150  O22   A    
C22   C53   A    
C149  O21   A    
Cu11  O8    S    
C68   C77   A    
C117  C126  A    
C52   H52   S    
C17   C24   A    
C115  C123  A    
C22   C31   A    
C41   H23   S    
C63   C82   S    
Cu1   O1    S    
C120  C129  A    
C25   C55   A    
C105  C114  A    
Cu7   O21   S    
Cu7   Cu10  S    
C3    O39   A    
C127  C136  A    
C100  C144  A    
C38   C41   A    
Cu7   O4    S    
C92   H16   S    
Cu12  O43   S    
Cu1   Cu9   S    
C32   C147  S    
C155  O30   A    
Cu8   O22   S    
C36   C152  S    
C88   H15   S    
C63   N7    T    
Cu5   O10   S    
C101  C156  S    
C1    O9    A    
C101  C110  A    
C2    C19   A    
Cu1   O9    S    
C50   H50   S    
C121  C135  S    
C134  H47   S    
C13   C50   A    
C72   C84   A    
C29   C45   A    
C6    O31   A    
C145  O45   A    
C9    C14   A    
Cu4   O38   S    
C64   C83   S    
C147  O44   A    
C99   C108  A    
C2    C49   A    
C111  H32   S    
C153  O23   A    
C12   C65   A    
Cu3   Cu4   S    
C12   C15   A    
C1    O6    A    
C8    C12   A    
Cu2   O33   S    
C11   C19   A    
C115  H36   S    
C99   H29   S    
C10   C45   A    
C133  C142  A    
C148  O47   A    
C98   H28   S    
C155  O37   A    
C74   C86   A    
C6    C106  S    
C80   C127  S    
C97   C141  A    
C124  O4    A    
C154  O29   A    
C33   C145  S    
C53   H2    S    
C128  C137  A    
Cu9   O15   S    
C31   C148  S    
C13   C18   A    
C152  O34   A    
C105  C155  S    
C62   C81   S    
C77   C86   A    
C117  H38   S    
Cu3   O36   S    
C150  O12   A    
C116  C125  A    
C131  H43   S    
C94   C138  A    
C7    C107  S    
C42   H34   S    
C66   C89   A    
C118  C127  A    
C97   C106  A    
C93   C101  A    
C24   H8    S    
Cu11  O47   S    
C73   C82   A    
C54   H3    S    
Cu5   Cu8   S    
C102  C120  S    
C95   C104  A    
C23   C54   A    
C104  C112  A    
C55   H4    S    
C29   C51   A    
C34   C153  S    
C125  C133  A    
Cu10  O7    S    
C13   H7    S    
C14   C57   A    
C74   C144  S    
C48   H45   S    
C9    C44   A    
Cu5   O2    S    
C86   H21   S    
Cu11  O17   S    
C110  H31   S    
C58   C76   S    
C87   H20   S    
C5    O41   A    
Cu12  O40   S    
C116  H37   S    
C30   C149  S    
C94   C103  A    
C40   H12   S    
C110  C119  A    
C96   C140  A    
C57   H11   S    
C84   H19   S    
C151  O24   A    
C90   H17   S    
C27   C36   A    
C4    O40   A    
C128  H40   S    
C21   C30   A    
C95   C139  A    
C27   C47   A    
C82   C90   A    
Cu3   O30   S    
C106  C115  A    
C51   H51   S    
C23   C32   A    
C97   H27   S    
C7    O43   A    
C118  H39   S    
C9    C15   A    
Cu6   O3    S    
C112  C121  A    
C136  C144  A    
C62   N6    T    
C2    H6    S    
Cu6   O11   S    
C154  O36   A    
Cu4   O28   S    
C122  C131  A    
C151  O1    A    
C66   C137  S    
C5    C109  S    
C28   C37   A    
C61   C79   S    
C3    C103  S    
C71   C85   A    
C66   C75   A    
C108  C117  A    
Cu7   O34   S    
Cu4   O29   S    
C17   C19   A    
C80   O8    A    
C30   C39   A    
Cu7   O13   S    
C18   C20   A    
C32   C40   A    
Cu6   O20   S    
Cu12  O35   S    
C94   H24   S    
C107  C116  A    
Cu6   O23   S    
C93   C137  A    
Cu8   O5    S    
Cu6   Cu11  S    
C114  C122  A    
C132  C141  A    
C152  O25   A    
Cu4   O37   S    
C156  O38   A    
C126  C134  A    
C39   H1    S    
C49   H49   S    
C35   C52   A    
C5    O35   A    
Cu10  O46   S    
C114  H35   S    
C111  C120  A    
C68   C139  S    
C102  O2    A    
C67   C76   A    
C61   N5    T    
C15   C46   A    
Cu9   O45   S    
C129  H41   S    
C76   C85   A    
C38   C150  S    
C21   C52   A    
C149  O46   A    
C85   H18   S    
C89   H14   S    
C25   C33   A    
C98   C107  A    
C54   C57   A    
C100  H30   S    
