data_mof_unit_49080.cif
_audit_creation_date              2012-12-10T18:13:56-0500
_audit_creation_method            fapswitch 2.2
_symmetry_space_group_name_H-M    P1
_symmetry_Int_Tables_number       1
_space_group_crystal_system       triclinic
_cell_length_a                    10.805543
_cell_length_b                    9.470463
_cell_length_c                    23.534566
_cell_angle_alpha                 89.37785
_cell_angle_beta                  88.469978
_cell_angle_gamma                 90.939335
_cell_volume                      2407.03846785

loop_
_atom_site_label
_atom_site_type_symbol
_atom_type_description
_atom_site_fract_x
_atom_site_fract_y
_atom_site_fract_z
_atom_type_partial_charge
C1    C     C_R   0.259905 0.499242 0.497082 0.895614
C2    C     C_R   0.473831 0.248007 0.971103 -0.185884
C3    C     C_R   0.467355 0.246243 0.030451 0.403979
C4    C     C_R   0.493210 0.371498 0.061070 -0.102536
C5    C     C_R   0.526370 0.496327 0.030276 -0.066591
C6    C     C_R   0.556595 0.621147 0.059320 -0.001544
C7    C     C_R   0.587311 0.745090 0.028373 -0.095852
C8    C     C_R   0.585525 0.746608 0.969229 -0.131878
C9    C     C_R   0.486577 0.378250 0.121093 0.586556
C10   C     C_R   0.555556 0.619372 0.118814 0.562062
C11   C     C_R   0.582067 0.401910 0.240748 -0.070097
C12   C     C_R   0.500937 0.500659 0.391248 0.812335
C13   C     C_R   0.575502 0.400471 0.299954 -0.190245
C14   C     C_R   0.505897 0.501765 0.329063 -0.029592
C15   C     C_R   0.441999 0.603835 0.298399 -0.183023
C16   C     C_R   0.445402 0.602461 0.239095 -0.065903
C17   C     C_R   0.515941 0.501818 0.209787 0.305334
C18   C     C_R   0.413495 0.453198 0.764863 -0.103983
C19   C     C_R   0.405298 0.453425 0.705842 0.334863
C20   C     C_R   0.505750 0.502659 0.671354 -0.212644
C21   C     C_R   0.609567 0.563352 0.697552 0.333964
C22   C     C_R   0.618627 0.557995 0.756614 -0.083748
C23   C     C_R   0.739493 0.501033 0.497037 0.913135
C24   C     C_R   0.521074 0.501964 0.790674 0.180989
C25   C     C_3   0.074024 0.647486 0.474779 0.153481
C26   C     C_3   0.065576 0.461381 0.555122 0.196513
C27   C     C_3   0.930237 0.644525 0.470200 0.174725
C28   C     C_3   0.924478 0.488321 0.557282 0.142460
C29   C     C_3   0.070868 0.389410 0.451777 -0.332402
C30   C     C_3   0.121220 0.498940 0.494559 -0.179204
C31   C     C_3   0.877154 0.502335 0.495581 -0.155728
C32   C     C_3   0.928070 0.378608 0.458627 -0.336163
C33   C     C_3   0.619605 0.086007 0.478975 -0.310778
C34   C     C_3   0.620745 0.919021 0.480525 -0.293956
C35   C     C_3   0.481441 0.080306 0.559682 0.337661
C36   C     C_3   0.475991 0.912787 0.559316 0.319223
C37   C     C_3   0.402457 0.082740 0.464951 -0.211623
C38   C     C_3   0.404933 0.916396 0.463563 -0.170503
C39   C     C_R   0.499810 0.500100 0.608918 0.984215
C40   C     C_R   0.552477 0.622885 0.880056 0.570034
C41   C     C_R   0.506226 0.375473 0.880954 0.593970
C42   C     C_R   0.502989 0.372546 0.940629 -0.089235
C43   C     C_R   0.528801 0.497180 0.970171 -0.013066
C44   C     C_R   0.556341 0.623137 0.939631 -0.014474
Cu1   Cu    Cu3+1 0.499860 0.642410 0.500030 1.013539
Cu2   Cu    Cu3+1 0.499860 0.357590 0.500030 1.007766
H1    H     H_    0.454203 0.150988 0.948810 0.220084
H2    H     H_    0.700748 0.600220 0.776147 0.208687
H3    H     H_    0.638412 0.124983 0.434759 0.182309
H4    H     H_    0.644106 0.878857 0.437374 0.218399
H5    H     H_    0.309546 0.116360 0.480304 0.211600
H6    H     H_    0.311580 0.875276 0.476111 0.232572
H7    H     H_    0.607740 0.844678 0.946829 0.201038
H8    H     H_    0.626482 0.321831 0.323056 0.152604
H9    H     H_    0.387501 0.682483 0.320309 0.190169
H10   H     H_    0.334837 0.417313 0.790970 0.201682
N1    N     N_R   0.528206 0.499966 0.851764 -0.449006
N2    N     N_R   0.519503 0.499875 0.148514 -0.478583
N3    N     N_3   0.500250 0.143650 0.501250 -0.188647
N4    N     N_3   0.500250 0.856350 0.501250 -0.200284
O1    O     O_R   0.317570 0.620260 0.500030 -0.550672
O2    O     O_R   0.317570 0.379740 0.500030 -0.544045
O3    O     O_R   0.499840 0.620290 0.417900 -0.574384
O4    O     O_R   0.499840 0.379710 0.417900 -0.614556
O5    O     O_R   0.682190 0.620260 0.500010 -0.586985
O6    O     O_R   0.682190 0.379740 0.500010 -0.583739
O7    O     O_R   0.499920 0.620230 0.582140 -0.543534
O8    O     O_R   0.499920 0.379770 0.582140 -0.526017
O9    O     O_2   0.570511 0.745165 0.850801 -0.494618
O10   O     O_2   0.487698 0.254572 0.852305 -0.489473
O11   O     O_2   0.445516 0.265778 0.152133 -0.449473
O12   O     O_2   0.591141 0.736195 0.146829 -0.496978
Cl1   Cl    Cl    0.261802 0.408607 0.677660 -0.440115
Cl2   Cl    Cl    0.726027 0.656450 0.658495 -0.564925
Cl3   Cl    Cl    0.151665 0.709591 0.410007 -0.585730
Cl4   Cl    Cl    0.096076 0.280929 0.573894 -0.370463
H11   H     H_    0.098234 0.725685 0.507866 0.128095
H12   H     H_    0.110143 0.529385 0.587241 0.154473
H13   H     H_    0.894300 0.733941 0.495773 0.106749
H14   H     H_    0.910864 0.591252 0.578594 0.139878
Cl5   Cl    Cl    0.874841 0.674733 0.399405 -0.545192
Cl6   Cl    Cl    0.836758 0.362404 0.601450 -0.461948
H15   H     H_    0.096953 0.421600 0.407446 0.230056
H16   H     H_    0.111221 0.283458 0.458288 0.209677
H17   H     H_    0.886182 0.378908 0.415971 0.201937
H18   H     H_    0.902259 0.275643 0.479253 0.223734
H19   H     H_    0.697544 0.125046 0.504698 0.195564
H20   H     H_    0.696079 0.884384 0.508501 0.181789
Cl7   Cl    Cl    0.428379 0.081687 0.062649 -0.527847
H21   H     H_    0.560863 0.112974 0.586028 0.109424
H22   H     H_    0.549687 0.875675 0.587743 0.129450
H23   H     H_    0.413856 0.124931 0.420834 0.164271
H24   H     H_    0.422042 0.881632 0.419092 0.176386
Cl8   Cl    Cl    0.349329 0.148947 0.596269 -0.376008
Cl9   Cl    Cl    0.332862 0.838973 0.589953 -0.488063
H25   H     H_    0.611469 0.841945 0.049776 0.220861
H26   H     H_    0.638141 0.324714 0.218867 0.167873
H27   H     H_    0.392827 0.679381 0.215912 0.180154

loop_
_geom_bond_atom_site_label_1
_geom_bond_atom_site_label_2
_ccdc_geom_bond_type
C22   H2    S    
Cu1   N4    S    
Cu2   N3    S    
C41   C42   A    
C19   C20   A    
C1    O2    A    
C7    C8    A    
Cu1   Cu2   S    
C7    H25   S    
C29   C30   S    
Cu2   O2    S    
C18   C24   A    
C23   O6    A    
C10   N2    A    
Cu2   O6    S    
C29   C32   S    
C27   H13   S    
C5    C6    A    
C37   H5    S    
C38   H6    S    
C33   H3    S    
C15   C16   A    
C35   N3    S    
C18   C19   A    
C39   O8    A    
C11   C17   A    
C35   C36   S    
C16   C17   A    
Cu1   O7    S    
C26   Cl4   S    
C26   H12   S    
C18   H10   S    
C17   N2    S    
C5    C43   A    
C33   N3    S    
C21   C22   A    
C34   N4    S    
C34   H4    S    
C40   O9    S    
C28   Cl6   S    
C9    O11   S    
C19   Cl1   S    
C29   H16   S    
C12   O3    A    
C24   N1    S    
C27   C31   S    
C21   Cl2   S    
Cu1   O3    S    
Cu2   O4    S    
C25   Cl3   S    
C23   C31   S    
C43   C44   A    
Cu2   O8    S    
C37   C38   S    
C31   C32   S    
C27   Cl5   S    
C32   H18   S    
C33   C34   S    
C34   H20   S    
C37   N3    S    
C38   N4    S    
C36   H22   S    
C12   C14   S    
C26   C30   S    
Cu1   O5    S    
C25   H11   S    
C42   C43   A    
C3    C4    A    
C13   H8    S    
C35   Cl8   S    
C25   C30   S    
C20   C39   S    
C9    N2    A    
C40   N1    A    
C37   H23   S    
C39   O7    A    
C28   C31   S    
C8    C44   A    
C4    C5    A    
C36   N4    S    
C1    O1    A    
C8    H7    S    
C6    C10   A    
C29   H15   S    
C6    C7    A    
C2    H1    S    
C25   C27   S    
C26   C28   S    
C3    Cl7   S    
C11   H26   S    
C23   O5    A    
C2    C3    A    
C33   H19   S    
C41   N1    A    
C11   C13   A    
C36   Cl9   S    
C16   H27   S    
C2    C42   A    
C12   O4    A    
C32   H17   S    
C38   H24   S    
Cu1   O1    S    
C1    C30   S    
C22   C24   A    
C28   H14   S    
C35   H21   S    
C40   C44   A    
C20   C21   A    
C14   C15   A    
C4    C9    A    
C13   C14   A    
C15   H9    S    
C41   O10   S    
C10   O12   S    
