data_mof_unit_54029.cif
_audit_creation_date              2012-12-11T16:48:35-0500
_audit_creation_method            fapswitch 2.2
_symmetry_space_group_name_H-M    P1
_symmetry_Int_Tables_number       1
_space_group_crystal_system       triclinic
_cell_length_a                    17.380605
_cell_length_b                    24.570364
_cell_length_c                    14.973864
_cell_angle_alpha                 90.297117
_cell_angle_beta                  125.690076
_cell_angle_gamma                 89.703187
_cell_volume                      5193.47135056

loop_
_atom_site_label
_atom_site_type_symbol
_atom_type_description
_atom_site_fract_x
_atom_site_fract_y
_atom_site_fract_z
_atom_type_partial_charge
C1    C     C_R   0.354451 0.348246 0.909037 0.551193
C2    C     C_R   0.639827 0.347034 0.090718 0.527705
C3    C     C_R   0.858424 0.847645 0.908405 0.561855
C4    C     C_R   0.143810 0.847570 0.090044 0.516236
C5    C     C_R   0.313765 0.637554 0.001340 0.178000
C6    C     C_R   0.665121 0.657919 0.999155 0.175281
C7    C     C_R   0.819781 0.145757 0.000398 0.175569
C8    C     C_R   0.179325 0.143979 0.996880 0.179483
C9    C     C_R   0.561870 0.498014 0.365108 0.082152
C10   C     C_R   0.541626 0.497068 0.715639 0.075638
C11   C     C_R   0.964020 0.997342 0.290411 0.075772
C12   C     C_R   0.936468 0.997821 0.634353 0.085243
C13   C     C_R   0.186628 0.498829 0.647071 0.141965
C14   C     C_R   0.823451 0.497912 0.272743 0.144301
C15   C     C_R   0.686694 0.998877 0.647458 0.141837
C16   C     C_R   0.323879 0.997908 0.275666 0.141103
C17   C     C_2   0.977228 0.453969 0.367386 -0.092878
C18   C     C_2   0.074027 0.457813 0.467131 -0.121105
C19   C     C_2   0.477524 0.954071 0.368348 -0.092251
C20   C     C_2   0.574484 0.958033 0.467536 -0.122855
C21   C     C_2   0.924266 0.498732 0.322033 -0.152790
C22   C     C_2   0.099126 0.499309 0.537788 -0.184764
C23   C     C_2   0.424405 0.998837 0.324032 -0.149619
C24   C     C_2   0.599283 0.999354 0.538454 -0.189472
C25   C     C_R   0.286225 0.701646 0.104644 -0.044795
C26   C     C_R   0.694483 0.719569 0.898262 -0.062677
C27   C     C_R   0.788028 0.205913 0.105345 -0.061568
C28   C     C_R   0.207000 0.206501 0.893956 -0.045650
C29   C     C_R   0.248154 0.670139 0.009709 -0.117272
C30   C     C_R   0.731013 0.689060 0.992923 -0.137952
C31   C     C_R   0.752646 0.176392 0.008630 -0.121816
C32   C     C_R   0.244594 0.175813 0.988996 -0.124925
C33   C     C_R   0.152140 0.677484 0.920420 0.351266
C34   C     C_R   0.829750 0.687701 0.075936 0.359527
C35   C     C_R   0.655413 0.180596 0.920745 0.354085
C36   C     C_R   0.341145 0.181320 0.077553 0.355522
C37   C     C_R   0.600844 0.223059 0.923944 0.345312
C38   C     C_R   0.393241 0.225439 0.076012 0.349712
C39   C     C_R   0.101839 0.723392 0.921431 0.348471
C40   C     C_R   0.887777 0.725969 0.070472 0.349046
C41   C     C_R   0.647678 0.260931 0.010801 -0.100009
C42   C     C_R   0.344147 0.263725 0.990393 -0.105088
C43   C     C_R   0.151830 0.761597 0.007601 -0.105673
C44   C     C_R   0.843092 0.765102 0.986716 -0.102887
C45   C     C_R   0.401131 0.621332 0.091699 -0.166243
C46   C     C_R   0.583127 0.637466 0.908288 -0.170239
C47   C     C_R   0.907176 0.130097 0.090765 -0.182923
C48   C     C_R   0.095112 0.124710 0.906950 -0.158656
C49   C     C_R   0.736901 0.248302 0.105202 0.007468
C50   C     C_R   0.255480 0.250498 0.895703 0.011550
C51   C     C_R   0.239340 0.747049 0.102632 0.016643
C52   C     C_R   0.749363 0.758052 0.896463 0.001043
C53   C     C_3   0.824081 0.282902 0.177322 0.853795
C54   C     C_3   0.166355 0.283989 0.826345 0.854878
C55   C     C_3   0.329603 0.779111 0.173762 0.846522
C56   C     C_3   0.667659 0.797764 0.835866 0.848285
C57   C     C_3   0.381770 0.728580 0.176930 0.110912
C58   C     C_3   0.606295 0.753959 0.835809 0.118021
C59   C     C_3   0.880946 0.235370 0.179539 0.108337
C60   C     C_3   0.112452 0.234669 0.823231 0.106767
C61   C     C_R   0.590897 0.445721 0.614000 0.163385
C62   C     C_R   0.596101 0.446104 0.525734 0.159426
C63   C     C_R   0.902570 0.946207 0.472977 0.155165
C64   C     C_R   0.910840 0.946167 0.387032 0.163171
C65   C     C_R   0.586721 0.494785 0.658826 0.023738
C66   C     C_R   0.597067 0.495538 0.480262 0.019888
C67   C     C_R   0.901184 0.995530 0.519285 0.016935
C68   C     C_R   0.918135 0.995405 0.346067 0.022800
C69   C     C_R   0.613541 0.542810 0.632940 -0.167733
C70   C     C_R   0.618347 0.543252 0.542918 -0.168897
C71   C     C_R   0.881888 0.043578 0.458698 -0.170260
C72   C     C_R   0.890483 0.043505 0.371566 -0.164124
C73   C     C_3   0.531951 0.397866 0.473763 -0.502496
C74   C     C_3   0.526119 0.397520 0.570239 -0.511442
C75   C     C_3   0.974199 0.897196 0.430016 -0.509725
C76   C     C_3   0.965402 0.897232 0.524285 -0.501316
C77   C     C_R   0.547192 0.453334 0.301237 -0.141398
C78   C     C_R   0.517484 0.452525 0.750097 -0.134957
C79   C     C_R   0.985306 0.952686 0.252687 -0.123942
C80   C     C_R   0.951587 0.953217 0.698005 -0.148079
C81   C     C_R   0.238505 0.544573 0.703546 -0.110308
C82   C     C_R   0.769217 0.543801 0.252006 -0.110287
C83   C     C_R   0.738474 0.044628 0.703823 -0.112022
C84   C     C_R   0.269782 0.043682 0.255918 -0.100935
C85   C     C_R   0.547583 0.544020 0.303604 -0.123954
C86   C     C_R   0.510813 0.543437 0.739893 -0.113246
C87   C     C_R   0.995270 0.043385 0.266856 -0.124035
C88   C     C_R   0.951832 0.043905 0.696522 -0.124422
C89   C     C_R   0.238907 0.453502 0.705684 -0.117933
C90   C     C_R   0.766368 0.452851 0.245400 -0.146038
C91   C     C_R   0.738856 0.953521 0.705864 -0.114047
C92   C     C_R   0.266579 0.952852 0.246467 -0.147533
C93   C     C_R   0.310606 0.625805 0.908113 -0.096951
C94   C     C_R   0.674578 0.639259 0.091757 -0.076838
C95   C     C_R   0.813422 0.129429 0.907270 -0.083670
C96   C     C_R   0.182436 0.132913 0.089776 -0.098754
C97   C     C_R   0.438957 0.349169 0.091495 -0.195220
C98   C     C_R   0.556231 0.347104 0.909247 -0.245795
C99   C     C_R   0.942939 0.847574 0.090235 -0.233261
C100  C     C_R   0.059907 0.848545 0.908036 -0.213472
C101  C     C_R   0.377642 0.318297 0.998484 0.106663
C102  C     C_R   0.613725 0.315616 0.001931 0.132346
C103  C     C_R   0.884238 0.816797 0.996861 0.122821
C104  C     C_R   0.119988 0.817057 0.000389 0.128311
H1    H     H_    0.957179 0.538501 0.339002 0.144083
H2    H     H_    0.053210 0.534099 0.518240 0.137182
H3    H     H_    0.457142 0.038656 0.340830 0.146713
H4    H     H_    0.553096 0.033921 0.519528 0.138530
H5    H     H_    0.419464 0.732990 0.137472 0.044045
H6    H     H_    0.576743 0.763626 0.883101 0.049707
H7    H     H_    0.918858 0.243136 0.141223 0.047651
H8    H     H_    0.075889 0.240151 0.863914 0.046439
H9    H     H_    0.619183 0.581095 0.672377 0.154335
H10   H     H_    0.627097 0.581904 0.515690 0.144503
H11   H     H_    0.872549 0.082200 0.486203 0.147190
H12   H     H_    0.886822 0.081938 0.334232 0.167227
H13   H     H_    0.462879 0.407603 0.394995 0.207593
H14   H     H_    0.559848 0.360987 0.623097 0.196014
H15   H     H_    0.940297 0.861219 0.375163 0.194940
H16   H     H_    0.033852 0.906038 0.604480 0.208647
H17   H     H_    0.569140 0.361553 0.471342 0.198411
H18   H     H_    0.453704 0.407133 0.546084 0.205232
H19   H     H_    0.047501 0.906049 0.456764 0.206536
H20   H     H_    0.926625 0.861224 0.523698 0.196442
H21   H     H_    0.426475 0.622752 0.176575 0.179693
H22   H     H_    0.549583 0.648364 0.824074 0.173296
H23   H     H_    0.937582 0.139351 0.174428 0.171101
H24   H     H_    0.069188 0.126428 0.821838 0.177459
H25   H     H_    0.567622 0.411763 0.328209 0.105662
H26   H     H_    0.532284 0.410287 0.746652 0.110538
H27   H     H_    0.970504 0.910555 0.255775 0.107649
H28   H     H_    0.930636 0.911722 0.670556 0.102342
H29   H     H_    0.223449 0.585783 0.672544 0.095703
H30   H     H_    0.795403 0.584767 0.271850 0.117093
H31   H     H_    0.723395 0.085836 0.672839 0.091518
H32   H     H_    0.296574 0.084375 0.280316 0.107660
H33   H     H_    0.566257 0.585363 0.333642 0.107620
H34   H     H_    0.511291 0.584159 0.714675 0.113800
H35   H     H_    0.001041 0.083532 0.299026 0.120666
H36   H     H_    0.933191 0.085286 0.667131 0.106973
H37   H     H_    0.222543 0.411677 0.678896 0.132291
H38   H     H_    0.785940 0.410661 0.250482 0.155405
H39   H     H_    0.722314 0.911710 0.679037 0.134356
H40   H     H_    0.286315 0.910742 0.251123 0.152876
H41   H     H_    0.253963 0.634546 0.823623 0.139991
H42   H     H_    0.723165 0.653972 0.174770 0.115525
H43   H     H_    0.756739 0.137227 0.822357 0.139495
H44   H     H_    0.232194 0.149224 0.171031 0.121110
H45   H     H_    0.479583 0.336042 0.176205 0.184080
H46   H     H_    0.514174 0.333188 0.824877 0.183445
H47   H     H_    0.983983 0.833556 0.174388 0.181393
H48   H     H_    0.018934 0.835459 0.823141 0.182004
H49   H     H_    0.945778 0.413778 0.345492 0.140156
H50   H     H_    0.119956 0.422693 0.489567 0.134536
H51   H     H_    0.446213 0.913832 0.346537 0.142179
H52   H     H_    0.620766 0.923128 0.489497 0.133724
N1    N     N_R   0.395410 0.396350 0.944340 -0.116121
N2    N     N_R   0.604590 0.396350 0.055660 -0.113311
N3    N     N_R   0.895410 0.896350 0.944340 -0.110957
N4    N     N_R   0.104590 0.896350 0.055660 -0.116501
N5    N     N_R   0.449930 0.602500 0.055880 -0.055587
N6    N     N_R   0.550070 0.602500 0.944120 -0.049688
N7    N     N_R   0.949930 0.102500 0.055880 -0.049089
N8    N     N_R   0.050070 0.102500 0.944120 -0.055236
N9    N     N_R   0.525080 0.471030 0.205650 -0.038147
N10   N     N_R   0.474920 0.471030 0.794350 -0.044449
N11   N     N_R   0.025080 0.971030 0.205650 -0.042010
N12   N     N_R   0.974920 0.971030 0.794350 -0.038856
N13   N     N_R   0.320260 0.527820 0.794570 -0.043098
N14   N     N_R   0.679740 0.527820 0.205430 -0.047185
N15   N     N_R   0.820260 0.027820 0.794570 -0.042677
N16   N     N_R   0.179740 0.027820 0.205430 -0.046180
N17   N     N_R   0.524590 0.527840 0.205200 -0.041572
N18   N     N_R   0.475410 0.527840 0.794800 -0.041989
N19   N     N_R   0.024590 0.027840 0.205200 -0.040454
N20   N     N_R   0.975410 0.027840 0.794800 -0.041495
N21   N     N_R   0.320750 0.471000 0.795020 -0.055920
N22   N     N_R   0.679250 0.471000 0.204980 -0.059356
N23   N     N_R   0.820750 0.971000 0.795020 -0.054456
N24   N     N_R   0.179250 0.971000 0.204980 -0.058864
N25   N     N_R   0.393620 0.602490 0.942710 -0.056915
N26   N     N_R   0.606380 0.602490 0.057290 -0.053698
N27   N     N_R   0.893620 0.102490 0.942710 -0.056854
N28   N     N_R   0.106380 0.102490 0.057290 -0.054225
N29   N     N_R   0.451720 0.396350 0.057510 -0.083156
N30   N     N_R   0.548280 0.396350 0.942490 -0.079843
N31   N     N_R   0.951720 0.896350 0.057510 -0.079341
N32   N     N_R   0.048280 0.896350 0.942490 -0.083394
Ni1   Ni    Ni4+2 0.435420 0.434270 0.870230 0.217767
Ni2   Ni    Ni4+2 0.564580 0.434270 0.129770 0.221108
Ni3   Ni    Ni4+2 0.935420 0.934270 0.870230 0.219362
Ni4   Ni    Ni4+2 0.064580 0.934270 0.129770 0.222487
Ni5   Ni    Ni4+2 0.563430 0.564580 0.128740 0.215636
Ni6   Ni    Ni4+2 0.436570 0.564580 0.871260 0.225106
Ni7   Ni    Ni4+2 0.063430 0.064580 0.128740 0.224966
Ni8   Ni    Ni4+2 0.936570 0.064580 0.871260 0.215857
O1    O     O_3   0.327785 0.325606 0.810634 -0.696945
H53   H     H_    0.342654 0.352279 0.773427 0.299381
O2    O     O_3   0.664487 0.326376 0.189488 -0.697292
H54   H     H_    0.662414 0.356794 0.231771 0.303964
O3    O     O_3   0.831276 0.826322 0.808833 -0.704222
H55   H     H_    0.844731 0.854074 0.772001 0.295288
O4    O     O_3   0.170970 0.825731 0.188946 -0.694415
H56   H     H_    0.165554 0.854866 0.231037 0.306965
O5    O     O_3   0.112794 0.642382 0.831836 -0.754882
H57   H     H_    0.061776 0.661558 0.764707 0.317517
O6    O     O_3   0.865402 0.651643 0.162146 -0.771080
H58   H     H_    0.923726 0.667014 0.228228 0.315036
O7    O     O_3   0.618499 0.146025 0.831717 -0.757579
H59   H     H_    0.564989 0.164344 0.765192 0.318152
O8    O     O_3   0.379246 0.146339 0.165806 -0.766618
H60   H     H_    0.432008 0.164772 0.232829 0.314320
O9    O     O_3   0.505361 0.229986 0.843031 -0.732450
H61   H     H_    0.477129 0.193923 0.811268 0.336887
O10   O     O_3   0.488434 0.233243 0.156956 -0.732752
H62   H     H_    0.518378 0.197349 0.187616 0.334863
O11   O     O_3   0.007346 0.732793 0.839488 -0.736819
H63   H     H_    0.975724 0.697339 0.808357 0.335470
O12   O     O_3   0.984887 0.727960 0.146440 -0.728033
H64   H     H_    0.008358 0.690756 0.174688 0.334813
O13   O     O_3   0.827703 0.329882 0.126097 -0.823944
H65   H     H_    0.811079 0.319366 0.052650 0.274657
O14   O     O_3   0.161894 0.329658 0.880676 -0.801259
H66   H     H_    0.178932 0.317771 0.953469 0.272861
O15   O     O_3   0.336952 0.824152 0.121129 -0.816357
H67   H     H_    0.320189 0.812025 0.048408 0.275121
O16   O     O_3   0.677960 0.844768 0.896475 -0.803027
H68   H     H_    0.698108 0.833301 0.970756 0.272879
O17   O     O_3   0.842287 0.294356 0.279940 -0.660373
H69   H     H_    0.903702 0.313876 0.323314 0.313031
O18   O     O_3   0.146299 0.297340 0.723734 -0.654953
H70   H     H_    0.084525 0.316711 0.682603 0.324497
O19   O     O_3   0.349044 0.792914 0.276086 -0.654026
H71   H     H_    0.412131 0.810628 0.318832 0.315207
O20   O     O_3   0.643424 0.810250 0.730987 -0.664885
H72   H     H_    0.586791 0.834192 0.695935 0.325309
O21   O     O_3   0.436565 0.704459 0.281311 -0.696940
H73   H     H_    0.499665 0.722009 0.320741 0.321026
O22   O     O_3   0.539781 0.732632 0.730550 -0.703234
H74   H     H_    0.482803 0.756121 0.697584 0.328137
O23   O     O_3   0.937169 0.210845 0.283515 -0.709361
H75   H     H_    0.998749 0.230186 0.323904 0.326590
O24   O     O_3   0.055948 0.210608 0.718685 -0.697359
H76   H     H_    0.993799 0.229451 0.679893 0.324466

loop_
_geom_bond_atom_site_label_1
_geom_bond_atom_site_label_2
_ccdc_geom_bond_type
C94   H42   S    
C99   C103  A    
O4    H56   S    
C82   N14   A    
C37   C41   A    
C80   H28   S    
C29   C33   A    
C19   H51   S    
O3    H55   S    
O22   H74   S    
C8    C96   A    
C16   C84   A    
C38   O10   S    
O10   H62   S    
C17   H49   S    
C99   N31   A    
C53   C59   S    
N29   Ni2   S    
C54   C60   S    
O9    H61   S    
C100  H48   S    
C97   N29   A    
N11   Ni4   S    
C33   O5    S    
C33   C39   A    
N12   Ni3   S    
C42   C101  S    
N14   N22   A    
N32   Ni3   S    
C75   H19   S    
N1    N29   A    
C64   C68   A    
C14   C21   S    
C35   C37   A    
C96   N28   A    
C38   C42   A    
N2    Ni2   S    
C65   C69   A    
N22   Ni2   S    
C89   H37   S    
C63   C76   S    
C2    C102  A    
C53   O13   S    
O24   H76   S    
C15   C83   A    
C13   C81   A    
C100  C104  A    
C41   C102  S    
C25   C29   A    
O23   H75   S    
C73   C74   S    
N3    N31   A    
C45   N5    A    
C43   C104  S    
C14   C90   A    
C92   N24   A    
C9    C85   A    
C43   C51   A    
C9    C66   S    
C93   N25   A    
C41   C49   A    
C88   H36   S    
O14   H66   S    
C11   C87   A    
C6    C94   A    
N21   Ni1   S    
C83   N15   A    
C85   N17   A    
O20   H72   S    
C56   O20   S    
C93   H41   S    
C24   H4    S    
C89   N21   A    
N8    N28   A    
N1    Ni1   S    
C6    C46   A    
O19   H71   S    
C83   H31   S    
C61   C62   A    
C18   H50   S    
C2    N2    A    
C73   H13   S    
C47   N7    A    
C16   C23   S    
N16   N24   A    
C79   H27   S    
O2    H54   S    
C58   H6    S    
O21   H73   S    
C3    N3    A    
N15   N23   A    
C69   C70   A    
C25   C57   S    
C55   O19   S    
C96   H44   S    
N2    N30   A    
N13   N21   A    
C44   C103  S    
C39   O11   S    
O15   H67   S    
C91   H39   S    
C28   C60   S    
C10   C78   A    
C74   H14   S    
C12   C67   S    
C57   H5    S    
N10   N18   A    
C7    C31   S    
C30   C34   A    
C63   C64   A    
C27   C31   A    
O6    H58   S    
C76   H20   S    
N3    Ni3   S    
C28   C32   A    
C95   H43   S    
N4    Ni4   S    
O7    H59   S    
N24   Ni4   S    
C45   H21   S    
O12   H64   S    
C62   C66   A    
C4    O4    S    
C77   H25   S    
C51   C55   S    
N18   Ni6   S    
O11   H63   S    
C98   C102  A    
C56   C58   S    
C5    C45   A    
C70   H10   S    
C58   O22   S    
C2    O2    S    
C91   N23   A    
C86   N18   A    
C8    C32   S    
C82   H30   S    
C19   C23   D    
C75   C76   S    
C25   C51   A    
C63   C67   A    
O13   H65   S    
C60   H8    S    
N19   Ni7   S    
C26   C52   A    
C48   H24   S    
C59   H7    S    
O16   H68   S    
C95   N27   A    
N7    Ni7   S    
C68   C72   A    
C12   C88   A    
C23   H3    S    
N6    Ni6   S    
N8    Ni8   S    
C17   C18   S    
N13   Ni6   S    
C71   H11   S    
C62   C73   S    
N26   Ni5   S    
C76   H16   S    
N20   Ni8   S    
C47   H23   S    
N25   Ni6   S    
C26   C58   S    
N31   Ni4   S    
C90   H38   S    
C78   N10   A    
C11   C79   A    
C42   C50   A    
C27   C49   A    
C57   O21   S    
C15   C24   S    
C6    C30   S    
C26   C30   A    
C1    C101  A    
C81   N13   A    
C55   C57   S    
C40   O12   S    
N17   Ni5   S    
C3    O3    S    
C34   C40   A    
C16   C92   A    
C14   C82   A    
N27   Ni8   S    
C5    C29   S    
C85   H33   S    
C54   O18   S    
C7    C95   A    
C11   C68   S    
N11   N19   A    
C98   H46   S    
C10   C65   S    
C3    C103  A    
N12   N20   A    
O5    H57   S    
C84   H32   S    
C60   O24   S    
C20   H52   S    
C56   O16   S    
C100  N32   A    
C18   C22   D    
C46   H22   S    
C1    O1    S    
C7    C47   A    
C87   H35   S    
N15   Ni8   S    
C84   N16   A    
C88   N20   A    
N14   Ni5   S    
C5    C93   A    
C32   C36   A    
C10   C86   A    
C81   H29   S    
C9    C77   A    
C48   N8    A    
C34   O6    S    
C13   C89   A    
N28   Ni7   S    
C87   N19   A    
C72   H12   S    
C77   N9    A    
C73   H17   S    
O17   H69   S    
N6    N26   A    
C59   O23   S    
N10   Ni1   S    
C55   O15   S    
C19   C20   S    
C36   C38   A    
C78   H26   S    
C71   C72   A    
C50   C54   S    
C75   H15   S    
C22   H2    S    
C8    C48   A    
C74   H18   S    
C44   C52   A    
C54   O14   S    
C4    N4    A    
C99   H47   S    
N30   Ni1   S    
C49   C53   S    
C12   C80   A    
C31   C35   A    
C1    N1    A    
C64   C75   S    
C80   N12   A    
C13   C22   S    
C4    C104  A    
C67   C71   A    
N7    N27   A    
C35   O7    S    
O1    H53   S    
C92   H40   S    
C28   C50   A    
N9    Ni2   S    
N5    Ni5   S    
C86   H34   S    
C36   O8    S    
C15   C91   A    
O8    H60   S    
C37   O9    S    
C61   C65   A    
C40   C44   A    
N23   Ni3   S    
C66   C70   A    
C39   C43   A    
C98   N30   A    
C69   H9    S    
C46   N6    A    
O18   H70   S    
C97   H45   S    
N16   Ni7   S    
C27   C59   S    
C94   N26   A    
C79   N11   A    
N9    N17   A    
C20   C24   D    
N5    N25   A    
C97   C101  A    
C21   H1    S    
C52   C56   S    
C61   C74   S    
C53   O17   S    
C90   N22   A    
N4    N32   A    
C17   C21   D    
