data_mof_unit_58661.cif
_audit_creation_date              2012-12-11T16:05:06-0500
_audit_creation_method            fapswitch 2.2
_symmetry_space_group_name_H-M    P1
_symmetry_Int_Tables_number       1
_space_group_crystal_system       triclinic
_cell_length_a                    10.643452
_cell_length_b                    10.689319
_cell_length_c                    16.89425
_cell_angle_alpha                 99.027372
_cell_angle_beta                  98.689762
_cell_angle_gamma                 61.298886
_cell_volume                      1658.66953523

loop_
_atom_site_label
_atom_site_type_symbol
_atom_type_description
_atom_site_fract_x
_atom_site_fract_y
_atom_site_fract_z
_atom_type_partial_charge
C1    C     C_R   0.356610 0.771001 0.397483 0.548049
C2    C     C_3   0.282485 0.740698 0.247143 -0.109796
C3    C     C_3   0.353272 0.801240 0.317221 0.061976
C4    C     C_R   0.370275 0.346504 0.358854 0.540766
C5    C     C_3   0.482855 0.756446 0.269574 -0.122166
C6    C     C_3   0.404392 0.906618 0.238741 -0.118963
C7    C     C_3   0.277109 0.949108 0.288591 -0.148957
C8    C     C_3   0.204201 0.890377 0.218003 -0.109136
C9    C     C_3   0.331702 0.847023 0.168710 0.061852
C10   C     C_3   0.436269 0.255786 0.773679 -0.106351
C11   C     C_3   0.361366 0.402620 0.739742 -0.117135
C12   C     C_3   0.729012 0.374979 0.252038 -0.102130
C13   C     C_3   0.328692 0.330133 0.659218 0.046187
C14   C     C_3   0.404162 0.184472 0.692422 -0.104520
C15   C     C_3   0.258220 0.215647 0.717173 -0.018284
C16   C     C_R   0.781143 0.374657 0.403927 0.537727
C17   C     C_3   0.182518 0.362261 0.682939 -0.114772
C18   C     C_3   0.215381 0.432660 0.765642 -0.111646
C19   C     C_3   0.291011 0.284707 0.798551 0.048269
C20   C     C_1   0.838061 0.333566 0.707044 -0.042068
C21   C     C_1   0.882978 0.299596 0.774013 -0.045322
C22   C     C_1   0.362821 0.751707 0.715640 -0.068245
C23   C     C_3   0.837028 0.340175 0.326820 0.051229
C24   C     C_1   0.331506 0.799680 0.783780 -0.058234
C25   C     C_R   0.955101 0.286069 0.102555 0.562263
C26   C     C_R   0.319565 0.300339 0.120054 0.547209
C27   C     C_R   0.296484 0.888864 0.087770 0.547390
C28   C     C_R   0.381573 0.710766 0.631073 0.556813
C29   C     C_R   0.937633 0.277632 0.855661 0.536046
C30   C     C_R   0.278527 0.253551 0.877052 0.543453
C31   C     C_R   0.284292 0.876672 0.860553 0.536219
C32   C     C_R   0.367393 0.347038 0.585474 0.540528
C33   C     C_R   0.775325 0.379443 0.629467 0.527279
C34   C     C_3   0.938054 0.194977 0.286474 -0.126680
C35   C     C_1   0.343920 0.336622 0.275061 -0.074684
C36   C     C_1   0.331967 0.327416 0.203774 -0.072009
C37   C     C_3   0.831674 0.229946 0.210440 0.026957
C38   C     C_3   0.213108 0.099229 0.698870 -0.275214
C39   C     C_3   0.148896 0.091942 0.612080 -0.399912
C40   C     C_3   0.778626 0.129346 0.160202 -0.263854
C41   C     C_3   0.727694 0.062325 0.213112 -0.430007
C42   C     C_3   0.014534 0.269142 0.256215 -0.159495
C43   C     C_3   0.912073 0.414756 0.298347 -0.123841
C44   C     C_3   0.805390 0.448401 0.222494 -0.126870
C45   C     C_3   0.907359 0.303250 0.181206 0.056770
C46   C     C_3   0.410100 0.697828 0.197650 -0.147063
Cr1   Cr    Cr6+3 0.608340 0.611040 0.520430 1.011725
Cr2   Cr    Cr6+3 0.287650 0.601120 0.489350 1.004874
Cr3   Cr    Cr6+3 0.604040 0.287870 0.490280 1.008268
Cr4   Cr    Cr6+3 0.054020 0.052700 0.970850 1.008274
Cr5   Cr    Cr6+3 0.059230 0.375120 0.993390 1.018085
Cr6   Cr    Cr6+3 0.374950 0.061200 0.992340 1.003728
H1    H     H_    0.611466 0.416858 0.253156 0.108278
H2    H     H_    0.985587 0.095625 0.317131 0.110816
H3    H     H_    0.130939 0.230770 0.253747 0.103938
H4    H     H_    0.945567 0.489970 0.336540 0.130525
H5    H     H_    0.752182 0.550722 0.194266 0.128660
H6    H     H_    0.231328 0.673159 0.252026 0.133784
H7    H     H_    0.463466 0.597078 0.158029 0.109789
H8    H     H_    0.596025 0.704365 0.295768 0.131623
H9    H     H_    0.060357 0.197641 0.596979 0.136907
H10   H     H_    0.233020 0.055280 0.569777 0.161465
H11   H     H_    0.103795 0.016015 0.603958 0.182294
H12   H     H_    0.454914 0.974298 0.232966 0.128592
H13   H     H_    0.312806 0.999338 0.707198 0.164720
H14   H     H_    0.138647 0.111658 0.741814 0.125460
H15   H     H_    0.819100 0.991891 0.253372 0.142083
H16   H     H_    0.643325 0.146881 0.250217 0.183385
H17   H     H_    0.682500 0.996611 0.174719 0.155209
H18   H     H_    0.688502 0.191196 0.116439 0.172085
H19   H     H_    0.866030 0.042266 0.125971 0.162969
H20   H     H_    0.231696 0.044946 0.332456 0.102664
H21   H     H_    0.089408 0.941801 0.195498 0.131759
H22   H     H_    0.405105 0.479658 0.746955 0.113040
H23   H     H_    0.540884 0.212634 0.810844 0.147962
H24   H     H_    0.481100 0.082156 0.661170 0.135674
H25   H     H_    0.079682 0.408528 0.644447 0.127172
H26   H     H_    0.138474 0.534358 0.797263 0.141182
O1    O     O_R   0.751220 0.499230 0.435170 -0.525687
O2    O     O_R   0.412990 0.180750 0.091610 -0.519812
O3    O     O_R   0.366620 0.943130 0.065760 -0.505350
O4    O     O_R   0.477220 0.727600 0.436870 -0.501091
O5    O     O_R   0.160510 0.906330 0.879210 -0.509078
O6    O     O_R   0.930190 0.179050 0.889450 -0.482927
O7    O     O_R   0.909140 0.398170 0.896710 -0.499099
O8    O     O_R   0.186190 0.363460 0.918830 -0.508661
O9    O     O_R   0.401670 0.173200 0.913310 -0.510670
O10   O     O_R   0.356120 0.936130 0.900470 -0.507167
O11   O     O_3   0.162740 0.163010 0.985530 -0.305736
O12   O     O_R   0.297880 0.469080 0.560050 -0.516041
O13   O     O_R   0.258650 0.745120 0.411470 -0.524271
O14   O     O_R   0.297070 0.467240 0.395960 -0.501434
O15   O     O_R   0.488830 0.252610 0.387790 -0.518795
O16   O     O_R   0.724400 0.302390 0.420980 -0.503164
O17   O     O_R   0.752100 0.501210 0.612190 -0.517760
O18   O     O_R   0.478040 0.729440 0.600970 -0.495076
O19   O     O_R   0.259530 0.747110 0.588490 -0.518031
O20   O     O_R   0.489720 0.254590 0.564810 -0.518149
O21   O     O_R   0.725220 0.304230 0.585080 -0.499134
O22   O     O_3   0.500010 0.500010 0.500020 -0.268640
O23   O     O_R   0.171830 0.913880 0.057510 -0.531377
O24   O     O_R   0.940690 0.186050 0.054730 -0.506751
O25   O     O_R   0.920470 0.405720 0.075010 -0.510613
O26   O     O_R   0.196690 0.370460 0.084120 -0.502107

loop_
_geom_bond_atom_site_label_1
_geom_bond_atom_site_label_2
_ccdc_geom_bond_type
C28   O19   A    
C11   C18   S    
C40   H19   S    
C46   H7    S    
C34   C37   S    
C13   C32   S    
C35   C36   T    
C34   C42   S    
Cr1   O1    S    
Cr5   O7    S    
C6    C9    S    
Cr4   O6    S    
C7    C8    S    
C41   H15   S    
C2    C46   S    
C15   C19   S    
Cr2   O19   S    
C12   C23   S    
C40   H18   S    
C37   C40   S    
C3    C7    S    
C38   C39   S    
C25   O24   A    
Cr5   O25   S    
C31   O5    A    
C18   C19   S    
Cr1   O4    S    
C6    H12   S    
C12   C37   S    
C26   O26   A    
Cr3   O20   S    
C32   O12   A    
C38   H14   S    
C8    C9    S    
Cr2   O13   S    
Cr1   O18   S    
Cr3   O16   S    
C30   O8    A    
C10   C19   S    
C29   O7    A    
C12   H1    S    
C4    C35   S    
C9    C46   S    
C1    O13   A    
Cr2   O12   S    
C13   C14   S    
Cr6   O11   S    
Cr2   O22   S    
C33   O17   A    
Cr5   O8    S    
Cr4   O5    S    
C41   H16   S    
C39   H9    S    
Cr6   O10   S    
C29   O6    A    
C10   C14   S    
C7    H20   S    
C25   O25   A    
Cr5   O26   S    
C21   C29   S    
C27   O23   A    
C26   O2    A    
Cr1   O22   S    
C1    C3    S    
C42   C45   S    
C14   H24   S    
C33   O21   A    
C43   C44   S    
C15   C38   S    
C42   H3    S    
Cr3   O21   S    
C10   H23   S    
Cr4   O11   S    
C38   H13   S    
C27   O3    A    
C44   H5    S    
C18   H26   S    
C23   C34   S    
C17   H25   S    
C17   C18   S    
C20   C33   S    
C26   C36   S    
C40   C41   S    
C34   H2    S    
C16   C23   S    
C22   C24   T    
C42   C43   S    
C37   C45   S    
C25   C45   S    
C44   C45   S    
C9    C27   S    
C41   H17   S    
C15   C17   S    
C39   H10   S    
C31   O10   A    
C5    H8    S    
C23   C43   S    
Cr6   O9    S    
C2    C8    S    
C3    C5    S    
C11   H22   S    
C2    H6    S    
Cr4   O24   S    
C6    C7    S    
C39   H11   S    
C5    C46   S    
C16   O16   A    
C13   C17   S    
C28   O18   A    
C16   O1    A    
C2    C3    S    
C1    O4    A    
C24   C31   S    
C12   C44   S    
Cr5   O11   S    
Cr3   O22   S    
C11   C13   S    
C5    C6    S    
C8    H21   S    
C32   O20   A    
Cr6   O3    S    
C10   C11   S    
C4    O15   A    
C43   H4    S    
C20   C21   T    
Cr4   O23   S    
Cr2   O14   S    
Cr1   O17   S    
C14   C15   S    
C22   C28   S    
Cr3   O15   S    
C30   O9    A    
Cr6   O2    S    
C19   C30   S    
C4    O14   A    
