data_mof_unit_33011.cif
_audit_creation_date              2012-12-11T16:25:36-0500
_audit_creation_method            fapswitch 2.2
_symmetry_space_group_name_H-M    P1
_symmetry_Int_Tables_number       1
_space_group_crystal_system       triclinic
_cell_length_a                    20.292763
_cell_length_b                    7.263842
_cell_length_c                    13.373879
_cell_angle_alpha                 89.970231
_cell_angle_beta                  103.444103
_cell_angle_gamma                 90.037013
_cell_volume                      1917.33436618

loop_
_atom_site_label
_atom_site_type_symbol
_atom_type_description
_atom_site_fract_x
_atom_site_fract_y
_atom_site_fract_z
_atom_type_partial_charge
O1    O     O_R   0.449520 0.506760 0.599710 -0.547076
O2    O     O_R   0.550480 0.006760 0.400290 -0.547208
O3    O     O_R   0.587930 0.180200 0.595790 -0.542122
O4    O     O_R   0.412070 0.680200 0.404210 -0.542177
C1    C     C_R   0.614165 0.344573 0.618393 0.693136
C2    C     C_R   0.385857 0.844533 0.381554 0.693313
O5    O     O_R   0.452350 0.177380 0.611700 -0.523025
O6    O     O_R   0.547650 0.677380 0.388300 -0.522550
O7    O     O_R   0.413930 0.001760 0.416320 -0.531518
O8    O     O_R   0.586070 0.501760 0.583680 -0.531867
C3    C     C_R   0.435879 0.345837 0.637451 0.711315
C4    C     C_R   0.564115 0.845986 0.362525 0.710176
O9    O     O_3   0.487550 0.337460 0.435880 -0.378747
O10   O     O_3   0.512450 0.837460 0.564120 -0.378951
V1    V     V_3+5 0.502310 0.064670 0.511900 1.436673
V2    V     V_3+5 0.497690 0.564670 0.488100 1.436773
C5    C     C_R   0.614957 0.977705 0.120416 -0.161861
C6    C     C_R   0.385422 0.470468 0.880791 -0.161109
H1    H     H_    0.524772 0.997945 0.176171 0.144242
H2    H     H_    0.475843 0.490308 0.825595 0.146120
H3    H     H_    0.696707 0.012713 0.993843 0.138046
H4    H     H_    0.303814 0.501985 0.007724 0.137712
H5    H     H_    0.591213 0.040493 0.047366 0.146449
H6    H     H_    0.409458 0.529720 0.954678 0.146791
C7    C     C_R   0.604382 0.859902 0.284795 -0.032022
C8    C     C_R   0.395497 0.359017 0.715016 -0.031708
C9    C     C_R   0.930884 0.823306 0.317934 -0.168419
C10   C     C_R   0.068757 0.328841 0.681587 -0.169219
C11   C     C_R   0.895686 0.812113 0.395128 -0.123584
C12   C     C_R   0.103865 0.320020 0.604227 -0.123486
C13   C     C_R   0.825368 0.826152 0.371403 -0.182237
C14   C     C_R   0.174241 0.332085 0.628013 -0.182151
C15   C     C_R   0.787907 0.846939 0.268716 0.067950
C16   C     C_R   0.211856 0.348353 0.730884 0.068079
C17   C     C_R   0.824895 0.874967 0.191321 0.064286
C18   C     C_R   0.175031 0.373712 0.808673 0.064347
C19   C     C_R   0.715418 0.857518 0.241687 0.010356
C20   C     C_R   0.284394 0.357063 0.757947 0.011155
C21   C     C_R   0.683817 0.931878 0.143693 0.094469
C22   C     C_R   0.316335 0.426932 0.856877 0.094598
C23   C     C_R   0.721141 0.961946 0.069659 -0.178259
C24   C     C_R   0.279154 0.454610 0.931290 -0.177903
C25   C     C_R   0.790148 0.926746 0.091691 -0.199573
C26   C     C_R   0.210014 0.421199 0.908883 -0.199177
C27   C     C_R   0.672374 0.801554 0.307321 0.126410
C28   C     C_R   0.327195 0.303202 0.691589 0.126706
C29   C     C_R   0.576701 0.950959 0.192754 -0.218074
C30   C     C_R   0.423620 0.445629 0.808236 -0.221480
C31   C     C_R   0.896399 0.857145 0.216390 -0.070024
C32   C     C_R   0.103460 0.357980 0.783481 -0.069553
H7    H     H_    0.985440 0.810493 0.338076 0.096316
H8    H     H_    0.014122 0.318148 0.661371 0.096442
H9    H     H_    0.801949 0.830538 0.435596 0.132012
H10   H     H_    0.197605 0.338719 0.563825 0.132350
H11   H     H_    0.923146 0.794654 0.474273 0.122493
H12   H     H_    0.076291 0.306206 0.524908 0.122575
H13   H     H_    0.816583 0.950062 0.031221 0.131855
H14   H     H_    0.183699 0.442492 0.969667 0.131306
H15   H     H_    0.103726 0.702867 0.468990 0.117898
H16   H     H_    0.896010 0.194982 0.531947 0.118279
C33   C     C_R   0.232106 0.938004 0.037345 -0.183870
C34   C     C_R   0.768064 0.441873 0.962102 -0.184412
C35   C     C_R   0.287661 0.976830 0.996411 -0.140038
C36   C     C_R   0.712594 0.482816 0.002750 -0.140491
C37   C     C_R   0.353065 0.977580 0.059527 0.242335
C38   C     C_R   0.647221 0.483906 0.939563 0.241671
C39   C     C_R   0.362444 0.936322 0.164203 -0.148782
C40   C     C_R   0.637770 0.440741 0.835135 -0.148852
C41   C     C_R   0.306848 0.895620 0.207683 0.014341
C42   C     C_R   0.693276 0.397833 0.791951 0.014613
C43   C     C_R   0.240339 0.897618 0.142993 0.058613
C44   C     C_R   0.759768 0.399638 0.856680 0.058766
C45   C     C_R   0.316581 0.851911 0.313638 -0.163546
C46   C     C_R   0.683460 0.352053 0.686272 -0.163971
C47   C     C_R   0.259748 0.811604 0.354681 0.068740
C48   C     C_R   0.740216 0.309629 0.645511 0.068539
C49   C     C_R   0.193317 0.813324 0.289790 0.067635
C50   C     C_R   0.806638 0.311152 0.710440 0.067748
C51   C     C_R   0.183566 0.857439 0.184134 -0.163547
C52   C     C_R   0.816457 0.357306 0.815830 -0.163677
C53   C     C_R   0.267676 0.771435 0.460427 -0.138397
C54   C     C_R   0.732226 0.267632 0.539982 -0.139195
C55   C     C_R   0.211749 0.733840 0.500894 -0.139298
C56   C     C_R   0.788071 0.227891 0.499777 -0.138269
C57   C     C_R   0.146981 0.733237 0.437253 -0.124196
C58   C     C_R   0.852821 0.226996 0.563473 -0.124298
C59   C     C_R   0.137652 0.772225 0.332828 -0.139977
C60   C     C_R   0.862225 0.267889 0.667676 -0.140641
H17   H     H_    0.182658 0.939337 0.984942 0.125563
H18   H     H_    0.817485 0.442972 0.014572 0.126035
H19   H     H_    0.279467 0.007328 0.915158 0.128988
H20   H     H_    0.720832 0.514637 0.083835 0.129383
H21   H     H_    0.413692 0.936225 0.210948 0.097511
H22   H     H_    0.586541 0.440948 0.788347 0.097809
H23   H     H_    0.316985 0.770314 0.513196 0.126569
H24   H     H_    0.682935 0.266736 0.487163 0.126893
H25   H     H_    0.218783 0.705143 0.582126 0.129482
H26   H     H_    0.780986 0.197800 0.418705 0.129501
H27   H     H_    0.086483 0.770181 0.286138 0.090279
H28   H     H_    0.913400 0.265587 0.714373 0.091174
O11   O     O_R   0.913760 0.203480 0.916370 -0.535602
O12   O     O_R   0.086240 0.703480 0.083630 -0.535392
O13   O     O_R   0.047590 0.535230 0.888250 -0.539475
O14   O     O_R   0.952410 0.035230 0.111750 -0.539552
C61   C     C_R   0.063943 0.368177 0.862237 0.672577
C62   C     C_R   0.935990 0.868036 0.137699 0.672646
O15   O     O_R   0.912020 0.532880 0.904260 -0.536598
O16   O     O_R   0.087980 0.032880 0.095740 -0.536664
O17   O     O_R   0.949590 0.708460 0.099750 -0.537752
O18   O     O_R   0.050410 0.208460 0.900250 -0.537853
C63   C     C_R   0.885861 0.364804 0.883175 0.682809
C64   C     C_R   0.114156 0.864854 0.116781 0.683207
O19   O     O_3   0.012370 0.375360 0.064120 -0.376603
O20   O     O_3   0.987630 0.875360 0.935880 -0.376628
V3    V     V_3+5 0.997700 0.648160 0.988110 1.417237
V4    V     V_3+5 0.002300 0.148160 0.011890 1.416842
N1    N     N_3   0.410698 0.019092 0.018432 -0.684864
H29   H     H_    0.395863 0.036255 0.938696 0.239977
H30   H     H_    0.429777 0.146122 0.048760 0.225872
N2    N     N_3   0.589683 0.527640 0.980353 -0.686184
H31   H     H_    0.604511 0.545979 0.060000 0.240493
H32   H     H_    0.570929 0.654506 0.949286 0.227235
N3    N     N_3   0.692482 0.668079 0.388073 -0.677121
H33   H     H_    0.705711 0.734644 0.459188 0.222092
H34   H     H_    0.731313 0.583293 0.375457 0.241213
N4    N     N_3   0.306458 0.173774 0.608941 -0.678002
H35   H     H_    0.293451 0.243763 0.538830 0.222231
H36   H     H_    0.267340 0.088793 0.620478 0.241580

loop_
_geom_bond_atom_site_label_1
_geom_bond_atom_site_label_2
_ccdc_geom_bond_type
C38   C40   A    
C61   O18   A    
C35   C37   A    
N4    H35   S    
C7    C27   A    
C9    C11   A    
C45   C47   A    
O12   C64   A    
O1    C3    A    
O2    C4    A    
C2    O7    A    
O14   C62   A    
O20   V3    S    
O3    V1    S    
N3    H33   S    
C21   C23   A    
C27   N3    S    
O5    C3    A    
C5    H5    S    
C46   C48   A    
C51   C64   S    
C6    H6    S    
C20   C22   A    
C48   C50   A    
O17   V3    S    
N1    H30   S    
C53   H23   S    
C58   C60   A    
N3    H34   S    
C44   C52   A    
C41   C43   A    
C5    C21   A    
C1    C46   S    
C33   C35   A    
C6    C22   A    
C34   C36   A    
O12   V3    S    
C15   C17   A    
O14   V4    S    
C10   C32   A    
C26   H14   S    
C37   C39   A    
C17   C31   A    
C32   C61   S    
N4    H36   S    
C13   C15   A    
C41   C45   A    
C17   C25   A    
C7    C29   A    
C16   C18   A    
C8    C30   A    
O19   V4    S    
C33   C43   A    
O5    V1    S    
O6    V2    S    
C38   N2    S    
C11   C13   A    
C23   C25   A    
C24   C26   A    
C14   H10   S    
C53   C55   A    
C33   H17   S    
C59   H27   S    
C49   C51   A    
C54   H24   S    
C57   C59   A    
O4    C2    A    
C48   C54   A    
C8    C28   A    
C47   C53   A    
C11   H11   S    
C3    C8    S    
C12   H12   S    
C15   C19   A    
C43   C51   A    
O16   C64   A    
C39   C41   A    
C36   C38   A    
O4    V2    S    
O13   V3    S    
H15   C57   S    
C42   C46   A    
O6    C4    A    
C34   C44   A    
O13   C61   A    
O1    V2    S    
C60   H28   S    
C13   H9    S    
O2    V1    S    
C47   C49   A    
O15   V3    S    
H2    C30   S    
H3    C23   S    
C55   C57   A    
C54   C56   A    
C18   C26   A    
C36   H20   S    
C19   C27   A    
O18   V4    S    
C18   C32   A    
N2    H31   S    
N2    H32   S    
C2    C45   S    
C50   C60   A    
H16   C58   S    
C16   C20   A    
O15   C63   A    
C28   N4    S    
C5    C29   A    
C56   C58   A    
O3    C1    A    
C6    C30   A    
C31   C62   S    
O11   C63   A    
C4    C7    S    
C56   H26   S    
O16   V4    S    
C10   C12   A    
O7    V1    S    
C1    O8    A    
C19   C21   A    
O8    V2    S    
N1    H29   S    
C12   C14   A    
C10   H8    S    
H4    C24   S    
C34   H18   S    
C52   C63   S    
C22   C24   A    
C9    H7    S    
H1    C29   S    
C50   C52   A    
C40   H22   S    
C20   C28   A    
C25   H13   S    
C49   C59   A    
C40   C42   A    
C55   H25   S    
O9    V2    S    
C35   H19   S    
C39   H21   S    
O11   V4    S    
C37   N1    S    
O10   V1    S    
C42   C44   A    
C9    C31   A    
C14   C16   A    
C62   O17   A    
