data_mof_unit_12207.cif
_audit_creation_date              2013-03-05T16:09:37-0500
_audit_creation_method            fapswitch 2.2
_symmetry_space_group_name_H-M    P1
_symmetry_Int_Tables_number       1
_space_group_crystal_system       triclinic
_cell_length_a                    14.59641
_cell_length_b                    7.316192
_cell_length_c                    13.671588
_cell_angle_alpha                 89.998523
_cell_angle_beta                  99.42578
_cell_angle_gamma                 90.000167
_cell_volume                      1440.27881219

loop_
_atom_site_label
_atom_site_type_symbol
_atom_site_description
_atom_site_fract_x
_atom_site_fract_y
_atom_site_fract_z
_atom_type_partial_charge
O1    O     O_R   0.398210 0.494340 0.401550 -0.582936
O2    O     O_R   0.601790 0.994340 0.598450 -0.583027
O3    O     O_R   0.586310 0.821730 0.403360 -0.581740
O4    O     O_R   0.413690 0.321730 0.596640 -0.581669
C1    C     C_R   0.613484 0.654813 0.380094 1.021668
C2    C     C_R   0.386531 0.154811 0.619921 1.021755
O5    O     O_R   0.397970 0.823900 0.389580 -0.552440
O6    O     O_R   0.602030 0.323900 0.610420 -0.552449
O7    O     O_R   0.412100 0.996500 0.584560 -0.570410
O8    O     O_R   0.587900 0.496500 0.415440 -0.570310
C3    C     C_R   0.366769 0.654994 0.361332 0.914771
C4    C     C_R   0.633233 0.154992 0.638665 0.914840
O9    O     O_3   0.504860 0.661550 0.563990 -0.291469
O10   O     O_3   0.495140 0.161550 0.436010 -0.291364
V1    V     V_3+5 0.499100 0.935510 0.488130 1.222809
V2    V     V_3+5 0.500900 0.435510 0.511870 1.222851
C5    C     C_1   0.714096 0.144372 0.719209 -0.199489
C6    C     C_1   0.285907 0.644374 0.280788 -0.199428
C7    C     C_1   0.782369 0.134066 0.785078 -0.215968
C8    C     C_1   0.217633 0.634064 0.214920 -0.215946
C9    C     C_3   0.264783 0.276233 0.847793 -0.324778
C10   C     C_3   0.735223 0.776227 0.152211 -0.324842
H1    H     H_    0.236551 0.412662 0.858676 0.178513
H2    H     H_    0.763459 0.912652 0.141323 0.178508
H3    H     H_    0.301619 0.245819 0.923787 0.197919
H4    H     H_    0.698379 0.745809 0.076221 0.197941
C11   C     C_3   0.336229 0.281951 0.775038 -0.361790
C12   C     C_3   0.663787 0.781957 0.224976 -0.361876
H5    H     H_    0.406276 0.247985 0.816543 0.158682
H6    H     H_    0.593734 0.748019 0.183478 0.158689
H7    H     H_    0.340582 0.424107 0.747511 0.213185
H8    H     H_    0.659452 0.924110 0.252510 0.213219
C13   C     C_3   0.137378 0.193151 0.702070 0.570394
C14   C     C_3   0.862632 0.693151 0.297926 0.570411
C15   C     C_3   0.244126 0.947974 0.815302 0.429448
C16   C     C_3   0.755885 0.447968 0.184712 0.429316
C17   C     C_3   0.187165 0.132661 0.811930 -0.315330
C18   C     C_3   0.812841 0.632657 0.188073 -0.315327
H9    H     H_    0.196201 0.830451 0.805278 0.082931
H10   H     H_    0.803817 0.330453 0.194752 0.082950
C19   C     C_3   0.310960 0.144541 0.686341 -0.143025
C20   C     C_3   0.689054 0.644530 0.313669 -0.142843
C21   C     C_3   0.212315 0.197532 0.625465 0.540806
C22   C     C_3   0.787708 0.697481 0.374537 0.540727
C23   C     C_3   0.306565 0.950704 0.732942 -0.584160
C24   C     C_3   0.693440 0.450698 0.267065 -0.583993
H11   H     H_    0.378237 0.907294 0.765197 0.208101
H12   H     H_    0.621766 0.407303 0.234805 0.208075
H13   H     H_    0.281476 0.848445 0.674745 0.191672
H14   H     H_    0.718525 0.348426 0.325261 0.191831
O11   O     O_R   0.912140 0.786650 0.084610 -0.567561
O12   O     O_R   0.087860 0.286650 0.915390 -0.567557
O13   O     O_R   0.102040 0.454810 0.110430 -0.607862
O14   O     O_R   0.897960 0.954810 0.889570 -0.607878
C25   C     C_R   0.135508 0.623540 0.135972 0.961447
C26   C     C_R   0.864493 0.123542 0.864028 0.961426
O15   O     O_R   0.913690 0.457060 0.096650 -0.624318
O16   O     O_R   0.086310 0.957060 0.903350 -0.624324
O17   O     O_R   0.898200 0.284560 0.901540 -0.550504
O18   O     O_R   0.101800 0.784560 0.098460 -0.550496
C27   C     C_R   0.884034 0.625080 0.116676 1.010610
C28   C     C_R   0.115967 0.125082 0.883324 1.010543
O19   O     O_3   0.995160 0.617270 0.936040 -0.292930
O20   O     O_3   0.004840 0.117270 0.063960 -0.292899
V3    V     V_3+5 0.000900 0.343280 0.011870 1.194055
V4    V     V_3+5 0.999100 0.843280 0.988130 1.194036
O21   O     O_3   0.054774 0.090221 0.665590 -0.644926
C29   C     C_3   0.058005 0.899093 0.655294 0.185689
H15   H     H_    0.127000 0.841658 0.666728 0.098860
H16   H     H_    0.031780 0.863365 0.577940 0.196586
C30   C     C_3   0.990389 0.808778 0.713290 -0.668059
H17   H     H_    0.938245 0.909130 0.728848 0.223048
H18   H     H_    0.951197 0.699144 0.669983 0.273139
H19   H     H_    0.027908 0.745640 0.781075 0.285010
O22   O     O_3   0.945246 0.590241 0.334396 -0.644957
C31   C     C_3   0.942023 0.399119 0.344729 0.185584
H20   H     H_    0.873027 0.341665 0.333308 0.098923
H21   H     H_    0.968260 0.363444 0.422090 0.196589
C32   C     C_3   0.009639 0.308778 0.286744 -0.668029
H22   H     H_    0.048805 0.199115 0.330057 0.273195
H23   H     H_    0.972125 0.245679 0.218946 0.284998
H24   H     H_    0.061803 0.409103 0.271201 0.223039
N1    N     N_R   0.184990 0.072760 0.538991 0.162735
O23   O     O_R   0.100305 0.077791 0.491298 -0.475306
O24   O     O_R   0.246861 0.014946 0.488046 -0.433815
N2    N     N_R   0.815068 0.572644 0.460979 0.162774
O25   O     O_R   0.899721 0.577819 0.508760 -0.475332
O26   O     O_R   0.753170 0.514124 0.511730 -0.434066
N3    N     N_R   0.099453 0.379269 0.711248 0.247315
O27   O     O_R   0.012003 0.397970 0.718149 -0.365253
O28   O     O_R   0.150855 0.525166 0.719097 -0.494908
N4    N     N_R   0.900539 0.879283 0.288746 0.247333
O29   O     O_R   0.987979 0.898011 0.281808 -0.365270
O30   O     O_R   0.849129 0.025170 0.280928 -0.494889
O31   O     O_3   0.226663 0.378696 0.590841 -0.634389
C33   C     C_3   0.166607 0.431313 0.504066 0.294867
H25   H     H_    0.093977 0.417622 0.515687 0.167915
H26   H     H_    0.181530 0.352667 0.438973 0.146542
C34   C     C_3   0.183226 0.628975 0.482085 -0.696167
H27   H     H_    0.258586 0.657355 0.493073 0.248535
H28   H     H_    0.149681 0.664146 0.405617 0.242059
H29   H     H_    0.152717 0.714313 0.533546 0.249643
O32   O     O_3   0.773367 0.878615 0.409196 -0.634440
C35   C     C_3   0.833422 0.931143 0.495984 0.294293
H30   H     H_    0.906052 0.917402 0.484369 0.168043
H31   H     H_    0.818457 0.852481 0.561059 0.146487
C36   C     C_3   0.816859 0.128804 0.517976 -0.695482
H32   H     H_    0.741498 0.157234 0.506983 0.248637
H33   H     H_    0.850411 0.163933 0.594453 0.242003
H34   H     H_    0.847401 0.214103 0.466512 0.249751
O33   O     O_3   0.301424 0.929858 0.909976 -0.619680
C37   C     C_3   0.318152 0.745044 0.936838 0.307372
H35   H     H_    0.343135 0.667112 0.876504 0.088639
H36   H     H_    0.253590 0.682000 0.954866 0.091810
C38   C     C_3   0.392604 0.735266 0.028610 -0.942600
H37   H     H_    0.369491 0.810418 0.090831 0.261204
H38   H     H_    0.405769 0.590354 0.050777 0.212623
H39   H     H_    0.458186 0.796864 0.012766 0.260870
O34   O     O_3   0.698594 0.429839 0.090035 -0.619672
C39   C     C_3   0.681877 0.245023 0.063180 0.307389
H40   H     H_    0.656892 0.167090 0.123514 0.088651
H41   H     H_    0.746445 0.181992 0.045161 0.091833
C40   C     C_3   0.607433 0.235228 0.971404 -0.942637
H42   H     H_    0.630546 0.310385 0.909183 0.261204
H43   H     H_    0.594278 0.090313 0.949241 0.212620
H44   H     H_    0.541845 0.296813 0.987239 0.260876

loop_
_geom_bond_atom_site_label_1
_geom_bond_atom_site_label_2
_geom_bond_distance
_ccdc_geom_bond_type
C7    C26   1.477870 S    
O16   C28   1.346214 A    
C1    C20   1.541168 S    
C3    C6    1.478520 S    
C11   H5    1.113135 S    
C21   N1    1.495221 S    
O31   C33   1.408336 S    
O1    C3    1.346017 A    
C31   C32   1.515150 S    
O2    C4    1.346027 A    
C2    O7    1.331781 A    
C35   H31   1.110881 S    
C17   C28   1.538842 S    
O3    V1    2.034644 S    
C40   H42   1.110748 S    
O5    C3    1.351314 A    
C15   C17   1.583226 S    
C31   H21   1.095773 S    
N2    O26   1.298594 A    
C40   H43   1.110725 S    
C38   H37   1.110748 S    
C10   C18   1.563749 S    
C33   C34   1.504763 S    
C20   C24   1.560291 S    
C23   H11   1.112957 S    
C16   O34   1.427510 S    
C35   H30   1.101975 S    
C16   H10   1.102747 S    
O16   V4    2.034706 S    
C34   H27   1.105226 S    
C29   H15   1.078729 S    
C38   H38   1.110725 S    
C2    C19   1.541125 S    
C33   H26   1.110853 S    
C4    C5    1.478518 S    
C21   O31   1.434270 S    
C36   H32   1.105304 S    
C16   C24   1.560446 S    
N3    O28   1.299011 A    
O13   V3    2.002347 S    
C39   C40   1.521075 S    
C14   O22   1.439666 S    
C18   C27   1.538812 S    
O5    V1    2.002417 S    
C9    C11   1.555134 S    
O19   V4    1.797577 S    
O18   V4    1.991558 S    
O6    V2    2.002394 S    
C10   C12   1.555125 S    
C25   O18   1.345442 A    
C19   C21   1.588595 S    
C20   C22   1.588611 S    
C8    C25   1.477872 S    
C22   N2    1.495212 S    
C37   H36   1.112492 S    
C37   H35   1.112207 S    
C22   O32   1.434242 S    
C39   H41   1.112492 S    
C24   H12   1.112958 S    
O13   C25   1.352266 A    
O14   C26   1.352262 A    
C11   H7    1.111378 S    
O21   C29   1.406964 S    
C13   C21   1.633866 S    
C12   H8    1.111383 S    
C14   C22   1.633778 S    
C31   H20   1.078786 S    
O4    C2    1.338324 A    
C30   H18   1.100114 S    
N2    O25   1.300224 A    
C40   H44   1.110987 S    
C13   C17   1.619356 S    
O11   V4    2.017672 S    
O4    V2    2.034614 S    
C15   H9    1.102742 S    
O22   C31   1.406964 S    
C13   N3    1.482933 S    
C32   H24   1.103016 S    
C11   C19   1.571860 S    
N1    O23   1.300184 A    
C23   H13   1.109719 S    
O6    C4    1.351307 A    
C38   H39   1.110988 S    
C33   H25   1.101975 S    
N4    O30   1.299019 A    
O1    V2    1.991553 S    
O2    V1    1.991568 S    
N1    O24   1.298320 A    
C9    H1    1.099240 S    
C36   H34   1.089024 S    
C10   H2    1.099242 S    
C15   C23   1.560451 S    
C15   O33   1.427512 S    
C39   H40   1.112205 S    
C13   O21   1.439674 S    
C32   H23   1.098128 S    
C9    H3    1.111332 S    
O33   C37   1.411860 S    
C34   H28   1.109604 S    
C14   C18   1.619314 S    
O15   V3    2.034736 S    
O3    C1    1.338344 A    
C30   H19   1.098125 S    
O34   C39   1.411850 S    
O15   C27   1.346209 A    
O14   V4    2.002322 S    
C24   H14   1.109736 S    
C26   O17   1.345450 A    
O20   V3    1.797544 S    
C16   C18   1.583206 S    
O7    V1    2.024392 S    
C30   H17   1.103000 S    
O8    V2    2.024375 S    
O17   V3    1.991572 S    
O11   C27   1.347839 A    
C36   H33   1.109688 S    
C29   C30   1.515143 S    
C12   C20   1.571852 S    
N4    O29   1.302459 A    
C5    C7    1.231173 T    
C12   H6    1.113139 S    
C6    C8    1.231174 T    
C37   C38   1.521078 S    
C14   N4    1.482927 S    
C32   H22   1.100123 S    
C1    O8    1.331763 A    
C34   H29   1.088923 S    
C9    C17   1.563770 S    
C29   H16   1.095765 S    
C10   H4    1.111334 S    
O9    V2    1.797930 S    
O32   C35   1.408300 S    
C19   C23   1.560290 S    
O10   V1    1.797897 S    
O12   C28   1.347856 A    
N3    O27   1.302469 A    
C35   C36   1.504647 S    
O12   V3    2.017685 S    
