data_mof_unit_64084.cif
_audit_creation_date              2012-12-10T19:38:01-0500
_audit_creation_method            fapswitch 2.2
_symmetry_space_group_name_H-M    P1
_symmetry_Int_Tables_number       1
_space_group_crystal_system       triclinic
_cell_length_a                    27.811376
_cell_length_b                    26.456265
_cell_length_c                    18.445093
_cell_angle_alpha                 90.000126
_cell_angle_beta                  90.000111
_cell_angle_gamma                 89.999732
_cell_volume                      13571.6252147

loop_
_atom_site_label
_atom_site_type_symbol
_atom_type_description
_atom_site_fract_x
_atom_site_fract_y
_atom_site_fract_z
_atom_type_partial_charge
C1    C     C_R   0.067909 0.433081 0.500021 0.932958
C2    C     C_R   0.932090 0.566919 0.500021 0.932958
C3    C     C_R   0.932091 0.433081 0.499979 0.932961
C4    C     C_R   0.067909 0.566919 0.499979 0.932959
C5    C     C_R   0.567103 0.932130 0.500025 0.936025
C6    C     C_R   0.432897 0.067870 0.500025 0.936025
C7    C     C_R   0.432897 0.932130 0.499975 0.936025
C8    C     C_R   0.567103 0.067869 0.499975 0.936025
C9    C     C_R   0.000000 0.500000 0.156049 -0.006674
C10   C     C_R   1.000000 0.500000 0.843951 -0.006674
C11   C     C_R   0.500000 1.000000 0.156018 -0.007122
C12   C     C_R   0.500000 1.000000 0.843982 -0.007122
C13   C     C_R   0.004602 0.455177 0.195520 -0.168794
C14   C     C_R   0.004602 0.544823 0.804480 -0.168794
C15   C     C_R   0.995398 0.544823 0.195520 -0.168794
C16   C     C_R   0.995398 0.455177 0.804480 -0.168794
C17   C     C_R   0.496556 0.955082 0.195464 -0.168044
C18   C     C_R   0.496557 0.044918 0.804536 -0.168044
C19   C     C_R   0.503444 0.044918 0.195464 -0.168044
C20   C     C_R   0.503443 0.955082 0.804536 -0.168044
C21   C     C_R   0.004466 0.455261 0.272295 0.104813
C22   C     C_R   0.004466 0.544738 0.727705 0.104815
C23   C     C_R   0.995534 0.544739 0.272295 0.104814
C24   C     C_R   0.995534 0.455261 0.727705 0.104816
C25   C     C_R   0.496635 0.955135 0.272246 0.098649
C26   C     C_R   0.496635 0.044865 0.727754 0.098647
C27   C     C_R   0.503365 0.044865 0.272246 0.098651
C28   C     C_R   0.503365 0.955135 0.727754 0.098649
C29   C     C_R   0.863621 0.391841 0.563671 0.596109
C30   C     C_R   0.125699 0.622058 0.434238 0.588134
C31   C     C_R   0.136378 0.608159 0.563672 0.596109
C32   C     C_R   0.874301 0.377941 0.434238 0.588133
C33   C     C_R   0.136380 0.391843 0.436328 0.596109
C34   C     C_R   0.874297 0.622056 0.565762 0.588136
C35   C     C_R   0.863620 0.608157 0.436328 0.596109
C36   C     C_R   0.125702 0.377944 0.565762 0.588135
C37   C     C_R   0.386877 0.864988 0.564524 0.578859
C38   C     C_R   0.621016 0.127013 0.433652 0.590556
C39   C     C_R   0.613123 0.135012 0.564524 0.578859
C40   C     C_R   0.378984 0.872986 0.433652 0.590555
C41   C     C_R   0.613121 0.864986 0.435476 0.578857
C42   C     C_R   0.378987 0.127017 0.566348 0.590552
C43   C     C_R   0.386879 0.135014 0.435476 0.578857
C44   C     C_R   0.621013 0.872983 0.566348 0.590552
C45   C     C_R   0.821987 0.362999 0.561948 -0.217256
C46   C     C_R   0.167405 0.650692 0.433008 -0.211853
C47   C     C_R   0.178012 0.637001 0.561949 -0.217256
C48   C     C_R   0.832595 0.349307 0.433008 -0.211854
C49   C     C_R   0.178016 0.363003 0.438052 -0.217256
C50   C     C_R   0.832590 0.650687 0.566993 -0.211854
C51   C     C_R   0.821984 0.636996 0.438051 -0.217256
C52   C     C_R   0.167409 0.349313 0.566993 -0.211853
C53   C     C_R   0.357497 0.822653 0.562949 -0.210443
C54   C     C_R   0.650304 0.169385 0.432609 -0.209558
C55   C     C_R   0.642503 0.177347 0.562949 -0.210443
C56   C     C_R   0.349697 0.830614 0.432609 -0.209559
C57   C     C_R   0.642499 0.822649 0.437051 -0.210444
C58   C     C_R   0.349701 0.169391 0.567392 -0.209557
C59   C     C_R   0.357501 0.177351 0.437051 -0.210444
C60   C     C_R   0.650299 0.830609 0.567392 -0.209558
C61   C     C_R   0.806239 0.341542 0.496735 -0.117974
C62   C     C_R   0.193760 0.658458 0.496736 -0.117974
C63   C     C_R   0.193765 0.341548 0.503265 -0.117974
C64   C     C_R   0.806234 0.658452 0.503265 -0.117974
C65   C     C_R   0.338860 0.805096 0.497084 -0.119659
C66   C     C_R   0.661141 0.194903 0.497084 -0.119659
C67   C     C_R   0.661135 0.805091 0.502916 -0.119659
C68   C     C_R   0.338865 0.194909 0.502916 -0.119659
C69   C     C_R   0.000000 0.500000 0.925616 0.333001
C70   C     C_R   1.000000 0.500000 0.074384 0.333001
C71   C     C_R   0.500000 1.000000 0.925628 0.333193
C72   C     C_R   0.500000 0.000000 0.074372 0.333193
C73   C     C_R   0.890191 0.399691 0.499641 -0.328957
C74   C     C_R   0.109808 0.600309 0.499642 -0.328958
C75   C     C_R   0.109810 0.399692 0.500358 -0.328957
C76   C     C_R   0.890190 0.600307 0.500358 -0.328957
C77   C     C_R   0.398459 0.890278 0.499625 -0.333705
C78   C     C_R   0.601541 0.109721 0.499626 -0.333705
C79   C     C_R   0.601540 0.890277 0.500374 -0.333704
C80   C     C_R   0.398460 0.109723 0.500374 -0.333705
C81   C     C_R   0.235565 0.691794 0.495984 0.373020
C82   C     C_R   0.764435 0.308206 0.495983 0.373020
C83   C     C_R   0.764428 0.691787 0.504017 0.373020
C84   C     C_R   0.235571 0.308213 0.504017 0.373020
C85   C     C_R   0.694563 0.237439 0.496173 0.372933
C86   C     C_R   0.305437 0.762561 0.496174 0.372933
C87   C     C_R   0.305443 0.237446 0.503827 0.372933
C88   C     C_R   0.694556 0.762554 0.503827 0.372933
H1    H     H_    0.007981 0.419799 0.166402 0.203878
H2    H     H_    0.007981 0.580201 0.833597 0.203878
H3    H     H_    0.992019 0.580201 0.166403 0.203878
H4    H     H_    0.992019 0.419799 0.833597 0.203878
H5    H     H_    0.494040 0.919663 0.166260 0.204719
H6    H     H_    0.494041 0.080337 0.833740 0.204719
H7    H     H_    0.505960 0.080337 0.166261 0.204719
H8    H     H_    0.505959 0.919663 0.833739 0.204720
H9    H     H_    0.802256 0.357362 0.611918 0.206465
H10   H     H_    0.178567 0.667346 0.382083 0.205990
H11   H     H_    0.197744 0.642639 0.611919 0.206465
H12   H     H_    0.821433 0.332652 0.382083 0.205990
H13   H     H_    0.197748 0.357366 0.388082 0.206465
H14   H     H_    0.821427 0.667341 0.617918 0.205990
H15   H     H_    0.802252 0.642634 0.388081 0.206465
H16   H     H_    0.178573 0.332659 0.617918 0.205990
H17   H     H_    0.349110 0.803930 0.613608 0.206467
H18   H     H_    0.664907 0.181746 0.381149 0.208080
H19   H     H_    0.650889 0.196070 0.613607 0.206467
H20   H     H_    0.335094 0.818252 0.381149 0.208080
H21   H     H_    0.650885 0.803926 0.386392 0.206467
H22   H     H_    0.335099 0.181753 0.618852 0.208081
H23   H     H_    0.349114 0.196074 0.386393 0.206467
H24   H     H_    0.664901 0.818247 0.618851 0.208080
N1    N     N_R   1.000000 0.500000 0.310560 -0.175830
N2    N     N_R   1.000000 0.500000 0.689440 -0.175829
N3    N     N_R   0.500000 1.000000 0.310560 -0.178455
N4    N     N_R   0.500000 1.000000 0.689440 -0.178455
N5    N     N_R   0.999969 0.544062 0.036240 -0.144045
N6    N     N_R   0.999969 0.455937 0.963760 -0.144046
N7    N     N_R   0.000031 0.455937 0.036240 -0.144046
N8    N     N_R   0.000031 0.544062 0.963760 -0.144046
N9    N     N_R   0.500023 0.044062 0.036236 -0.144152
N10   N     N_R   0.500023 0.955938 0.963764 -0.144152
N11   N     N_R   0.499977 0.955938 0.036236 -0.144152
N12   N     N_R   0.499977 0.044062 0.963764 -0.144152
N13   N     N_R   0.749188 0.287367 0.432944 -0.156130
N14   N     N_R   0.256880 0.705812 0.558922 -0.154867
N15   N     N_R   0.250812 0.712632 0.432944 -0.156130
N16   N     N_R   0.743120 0.294189 0.558921 -0.154867
N17   N     N_R   0.250819 0.287376 0.567057 -0.156130
N18   N     N_R   0.743114 0.705805 0.441078 -0.154867
N19   N     N_R   0.749181 0.712624 0.567057 -0.156130
N20   N     N_R   0.256886 0.294195 0.441079 -0.154867
N21   N     N_R   0.285153 0.747392 0.433034 -0.155359
N22   N     N_R   0.708768 0.259398 0.559012 -0.155740
N23   N     N_R   0.714847 0.252606 0.433034 -0.155359
N24   N     N_R   0.291232 0.740601 0.559012 -0.155740
N25   N     N_R   0.714840 0.747385 0.566967 -0.155359
N26   N     N_R   0.291238 0.259405 0.440988 -0.155740
N27   N     N_R   0.285160 0.252615 0.566967 -0.155359
N28   N     N_R   0.708762 0.740595 0.440988 -0.155740
O1    O     O_R   0.050940 0.449070 0.560830 -0.601243
O2    O     O_R   0.949060 0.550930 0.439170 -0.608247
O3    O     O_R   0.949060 0.550930 0.560830 -0.601243
O4    O     O_R   0.050940 0.449070 0.439170 -0.608246
O5    O     O_R   0.949060 0.449070 0.439170 -0.601244
O6    O     O_R   0.050940 0.550930 0.560830 -0.608246
O7    O     O_R   0.050940 0.550930 0.439170 -0.601243
O8    O     O_R   0.949060 0.449070 0.560830 -0.608246
O9    O     O_R   0.550940 0.949070 0.560830 -0.608983
O10   O     O_R   0.449060 0.050930 0.439170 -0.601567
O11   O     O_R   0.449060 0.050930 0.560830 -0.608982
O12   O     O_R   0.550940 0.949070 0.439170 -0.601566
O13   O     O_R   0.449060 0.949070 0.439170 -0.608983
O14   O     O_R   0.550940 0.050930 0.560830 -0.601568
O15   O     O_R   0.550940 0.050930 0.439170 -0.608982
O16   O     O_R   0.449060 0.949070 0.560830 -0.601568
Zn1   Zn    Zn3+2 1.000000 0.500000 0.581210 1.012616
Zn2   Zn    Zn3+2 1.000000 0.500000 0.418790 1.012615
Zn3   Zn    Zn3+2 0.500000 1.000000 0.581210 1.008607
Zn4   Zn    Zn3+2 0.500000 0.000000 0.418790 1.008608
C89   C     C_2   0.008806 0.405794 0.309439 0.600002
H25   H     H_    0.999047 0.401009 0.365262 0.122672
O17   O     O_2   0.023234 0.368519 0.276967 -0.543462
C90   C     C_2   0.008806 0.594206 0.690560 0.599997
H26   H     H_    0.999046 0.598992 0.634738 0.122669
O18   O     O_2   0.023234 0.631480 0.723033 -0.543461
C91   C     C_2   0.991194 0.594206 0.309440 0.600001
H27   H     H_    0.000953 0.598991 0.365263 0.122671
O19   O     O_2   0.976766 0.631481 0.276967 -0.543461
C92   C     C_2   0.991194 0.405794 0.690560 0.599996
H28   H     H_    0.000954 0.401008 0.634737 0.122669
O20   O     O_2   0.976766 0.368520 0.723032 -0.543462
C93   C     C_2   0.493335 0.905485 0.309264 0.624906
H29   H     H_    0.500461 0.901303 0.366018 0.120107
O21   O     O_2   0.482680 0.867295 0.275675 -0.544695
C94   C     C_2   0.493335 0.094515 0.690736 0.624910
H30   H     H_    0.500461 0.098697 0.633982 0.120107
O22   O     O_2   0.482681 0.132705 0.724325 -0.544695
C95   C     C_2   0.506665 0.094515 0.309264 0.624904
H31   H     H_    0.499539 0.098697 0.366018 0.120106
O23   O     O_2   0.517320 0.132704 0.275676 -0.544696
C96   C     C_2   0.506665 0.905485 0.690736 0.624909
H32   H     H_    0.499539 0.901303 0.633981 0.120107
O24   O     O_2   0.517318 0.867295 0.724324 -0.544695
F1    F     F_    0.877087 0.412628 0.627848 -0.618215
F2    F     F_    0.101081 0.616010 0.371266 -0.644077
F3    F     F_    0.122912 0.587373 0.627848 -0.618215
F4    F     F_    0.898919 0.383989 0.371266 -0.644078
F5    F     F_    0.122913 0.412628 0.372152 -0.618216
F6    F     F_    0.898916 0.616008 0.628734 -0.644077
F7    F     F_    0.877087 0.587372 0.372151 -0.618217
F8    F     F_    0.101084 0.383992 0.628734 -0.644077
F9    F     F_    0.403960 0.880633 0.629685 -0.645385
F10   F     F_    0.612250 0.103028 0.369940 -0.622595
F11   F     F_    0.596040 0.119368 0.629685 -0.645386
F12   F     F_    0.387750 0.896970 0.369939 -0.622595
F13   F     F_    0.596040 0.880632 0.370314 -0.645385
F14   F     F_    0.387752 0.103032 0.630061 -0.622596
F15   F     F_    0.403960 0.119368 0.370315 -0.645386
F16   F     F_    0.612248 0.896968 0.630061 -0.622597

loop_
_geom_bond_atom_site_label_1
_geom_bond_atom_site_label_2
_ccdc_geom_bond_type
O12   Zn4   S    
C42   C80   A    
C49   C63   A    
C72   N9    A    
C50   C64   A    
C84   N17   A    
C71   N10   A    
C18   C26   A    
C53   H17   S    
N18   N28   A    
C42   C58   A    
C47   C62   A    
C89   H25   S    
C64   C83   S    
C2    C76   S    
C65   C86   S    
N2    Zn1   S    
O6    Zn1   S    
C93   H29   S    
C24   N2    A    
C11   C19   A    
C67   C88   S    
C5    O12   A    
O10   Zn4   S    
C46   C62   A    
N19   N25   A    
C30   F2    S    
C34   C76   A    
C90   H26   S    
C57   C67   A    
C61   C82   S    
C25   N3    A    
C49   H13   S    
C30   C74   A    
C29   C73   A    
C92   H28   S    
C70   N5    A    
N20   N26   A    
C56   C65   A    
C69   N6    A    
C47   H11   S    
C33   F5    S    
C8    O15   A    
C9    C13   A    
N6    N7    A    
C14   H2    S    
N9    N12   A    
C28   C96   S    
C28   N4    A    
C96   H32   S    
C5    O9    A    
C33   C75   A    
C39   C55   A    
C7    O16   A    
C60   C67   A    
C40   C56   A    
C41   F13   S    
C7    O13   A    
C59   H23   S    
C26   C94   S    
N1    Zn2   S    
C5    C79   S    
C53   C65   A    
C4    C74   S    
C36   C52   A    
C43   C59   A    
C85   N22   A    
C7    C77   S    
C37   C53   A    
N13   N23   A    
C15   C23   A    
C20   H8    S    
N14   N24   A    
C3    O8    A    
C16   C24   A    
C31   C47   A    
C81   N15   A    
C8    C78   S    
C2    O3    A    
C32   C48   A    
C66   C85   S    
C19   C27   A    
C89   O17   D    
C30   C46   A    
O3    Zn1   S    
C96   O24   D    
C93   O21   D    
C36   F8    S    
C48   H12   S    
C57   H21   S    
C35   C76   A    
C34   C50   A    
C21   C89   S    
C32   F4    S    
C1    C75   S    
C39   C78   A    
C71   N12   A    
C42   F14   S    
C9    C70   S    
C83   N18   A    
C91   O19   D    
C10   C14   A    
N5    N8    A    
C87   N27   A    
C91   H27   S    
C54   H18   S    
C11   C72   S    
C31   C74   A    
C38   C78   A    
C43   C80   A    
C4    O7    A    
C39   F11   S    
C84   N20   A    
C38   F10   S    
C55   H19   S    
C44   F16   S    
C37   F9    S    
C82   N13   A    
C83   N19   A    
C60   H24   S    
C36   C75   A    
N16   N22   A    
C59   C68   A    
C23   N1    A    
C22   C90   S    
C86   N21   A    
C6    C80   S    
C38   C54   A    
C34   F6    S    
C70   N7    A    
C58   C68   A    
C4    O6    A    
C12   C20   A    
C13   C21   A    
O9    Zn3   S    
C82   N16   A    
C85   N23   A    
C23   C91   S    
C6    O11   A    
O1    Zn1   S    
C21   N1    A    
C94   H30   S    
C12   C71   S    
C3    O5    A    
C72   N11   A    
C35   C51   A    
C2    O2    A    
C19   H7    S    
C16   H4    S    
C17   H5    S    
C87   N26   A    
O4    Zn2   S    
C32   C73   A    
C55   C66   A    
C8    O14   A    
C40   F12   S    
C86   N24   A    
C88   N28   A    
C11   C17   A    
C35   F7    S    
C81   N14   A    
C13   H1    S    
O15   Zn4   S    
C58   H22   S    
C62   C81   S    
C44   C79   A    
C51   C64   A    
N15   N21   A    
C27   C95   S    
C52   C63   A    
C41   C79   A    
C43   F15   S    
C50   H14   S    
C54   C66   A    
O16   Zn3   S    
C95   H31   S    
C20   C28   A    
C63   C84   S    
C69   N8    A    
N3    Zn4   S    
C17   C25   A    
C24   C92   S    
C14   C22   A    
O13   Zn4   S    
C90   O18   D    
C9    C15   A    
C41   C57   A    
O14   Zn3   S    
C1    O4    A    
C10   C16   A    
O5    Zn2   S    
C48   C61   A    
C37   C77   A    
C44   C60   A    
C18   H6    S    
C45   C61   A    
C29   F1    S    
O2    Zn2   S    
O8    Zn1   S    
C46   H10   S    
C3    C73   S    
C26   N4    A    
C88   N25   A    
C1    O1    A    
N4    Zn3   S    
C15   H3    S    
N17   N27   A    
C6    O10   A    
C10   C69   S    
C25   C93   S    
C22   N2    A    
C52   H16   S    
C33   C49   A    
C12   C18   A    
C68   C87   S    
C56   H20   S    
C40   C77   A    
C45   H9    S    
C92   O20   D    
C31   F3    S    
N10   N11   A    
O7    Zn2   S    
C51   H15   S    
C29   C45   A    
O11   Zn3   S    
C94   O22   D    
C95   O23   D    
C27   N3    A    
