data_mof_unit_14896.cif
_audit_creation_date              2012-12-10T17:57:28-0500
_audit_creation_method            fapswitch 2.2
_symmetry_space_group_name_H-M    P1
_symmetry_Int_Tables_number       1
_space_group_crystal_system       triclinic
_cell_length_a                    9.605575
_cell_length_b                    10.810508
_cell_length_c                    13.535016
_cell_angle_alpha                 92.62552
_cell_angle_beta                  71.495232
_cell_angle_gamma                 89.580518
_cell_volume                      1331.07012863

loop_
_atom_site_label
_atom_site_type_symbol
_atom_type_description
_atom_site_fract_x
_atom_site_fract_y
_atom_site_fract_z
_atom_type_partial_charge
C1    C     C_R   0.499545 0.737547 0.500263 0.804380
C2    C     C_R   0.371475 0.511147 0.814845 -0.089960
C3    C     C_R   0.629601 0.933605 0.462176 -0.181217
C4    C     C_R   0.420370 0.497874 0.700008 0.767723
C5    C     C_R   0.628505 0.061654 0.464870 -0.213514
C6    C     C_R   0.496398 0.128854 0.509704 -0.136472
C7    C     C_R   0.364062 0.066031 0.555381 0.400993
C8    C     C_R   0.365848 0.937588 0.547792 -0.160703
C9    C     C_R   0.498100 0.871445 0.502380 -0.114045
C10   C     C_R   0.898970 0.588809 0.555528 -0.080858
C11   C     C_R   0.045205 0.588373 0.557809 0.445483
C12   C     C_R   0.442857 0.535581 0.973829 0.109659
C13   C     C_R   0.099796 0.410797 0.442454 0.215098
C14   C     C_R   0.951290 0.409741 0.444754 0.465610
C15   C     C_R   0.498522 0.262668 0.503798 0.772145
C16   C     C_R   0.579893 0.504531 0.299446 0.801375
C17   C     C_R   0.796817 0.445172 0.013862 -0.190090
C18   C     C_R   0.627298 0.509480 0.183348 -0.156313
C19   C     C_R   0.240922 0.578246 0.864564 -0.189998
C20   C     C_R   0.215638 0.631301 0.963893 -0.197365
C21   C     C_R   0.318703 0.616655 0.015296 -0.103299
C22   C     C_3   0.899842 0.463842 0.159888 -0.789115
C23   C     C_R   0.467332 0.481498 0.871942 0.022052
C24   C     C_3   0.198304 0.309678 0.373294 -0.612423
C25   C     C_3   0.841506 0.322459 0.808302 -0.827965
C26   C     C_R   0.547443 0.510780 0.026763 -0.007199
C27   C     C_R   0.683741 0.451108 0.969316 0.031162
C28   C     C_R   0.703233 0.394796 0.869594 0.161201
C29   C     C_R   0.589739 0.402105 0.827030 -0.184792
C30   C     C_R   0.520045 0.538434 0.135037 0.300667
C31   C     C_R   0.771718 0.476134 0.119215 0.096314
Cu1   Cu    Cu3+1 0.359340 0.499980 0.500000 0.949370
Cu2   Cu    Cu3+1 0.640660 0.500020 0.500000 0.937942
H1    H     H_    0.730750 0.107988 0.429986 0.203889
H2    H     H_    0.905719 0.546256 0.210287 0.246837
H3    H     H_    0.889920 0.377616 0.202002 0.239023
H4    H     H_    0.006190 0.457080 0.095658 0.230221
H5    H     H_    0.254148 0.202108 0.644795 0.327765
H6    H     H_    0.165329 0.653431 0.636876 0.364119
H7    H     H_    0.316057 0.323662 0.352313 0.246678
H8    H     H_    0.172833 0.219754 0.410877 0.228858
H9    H     H_    0.178303 0.301945 0.296783 0.211553
H10   H     H_    0.829482 0.344028 0.368003 0.366453
H11   H     H_    0.834742 0.281513 0.733195 0.243457
H12   H     H_    0.264511 0.889511 0.581750 0.198772
H13   H     H_    0.936891 0.384707 0.789525 0.229151
H14   H     H_    0.860628 0.245504 0.854398 0.236779
H15   H     H_    0.399548 0.654021 0.239235 0.325346
H16   H     H_    0.821782 0.659636 0.600740 0.181444
H17   H     H_    0.905079 0.410605 0.967814 0.167236
H18   H     H_    0.164894 0.600096 0.823127 0.162646
H19   H     H_    0.300859 0.676512 0.083875 0.188575
H20   H     H_    0.120093 0.691281 0.998551 0.156814
H21   H     H_    0.600177 0.347432 0.755964 0.166342
H22   H     H_    0.732686 0.883172 0.426788 0.166922
N1    N     N_R   0.147940 0.499970 0.499970 -0.240598
N2    N     N_R   0.852060 0.500060 0.499990 -0.261021
O1    O     O_R   0.381250 0.680340 0.500010 -0.583085
O2    O     O_3   0.078372 0.680121 0.619809 -0.751843
O3    O     O_3   0.910489 0.313991 0.390192 -0.765463
O4    O     O_3   0.383636 0.582561 0.195603 -0.738256
O5    O     O_R   0.618820 0.680370 0.500010 -0.582299
O6    O     O_R   0.323240 0.499950 0.650980 -0.611977
O7    O     O_R   0.560810 0.499980 0.650980 -0.570475
O8    O     O_R   0.381180 0.319630 0.499990 -0.578899
O9    O     O_R   0.618750 0.319660 0.499990 -0.573980
O10   O     O_R   0.439190 0.500020 0.349020 -0.550023
O11   O     O_R   0.676760 0.500050 0.349020 -0.603013
O12   O     O_3   0.232697 0.125598 0.609711 -0.723796

loop_
_geom_bond_atom_site_label_1
_geom_bond_atom_site_label_2
_ccdc_geom_bond_type
C17   H17   S    
C7    O12   S    
C2    C4    S    
C6    C7    A    
C16   O11   A    
C8    C9    A    
Cu1   O6    S    
C14   O3    S    
C25   H14   S    
C25   H13   S    
C19   C20   A    
C12   C23   A    
Cu1   O1    S    
C13   N1    A    
H6    O2    S    
Cu1   Cu2   S    
Cu1   O8    S    
C22   H2    S    
C26   C27   A    
H5    O12   S    
C7    C8    A    
C16   O10   A    
C13   C14   A    
C5    H1    S    
C25   C28   S    
C24   H8    S    
C10   H16   S    
C4    O6    A    
H15   O4    S    
C22   C31   S    
C1    O1    A    
H10   O3    S    
Cu1   O10   S    
C3    C9    A    
C23   C29   A    
C25   H11   S    
C13   C24   S    
C28   C29   A    
C24   H7    S    
Cu2   O9    S    
C26   C30   A    
Cu2   O7    S    
C5    C6    A    
C17   C31   A    
C11   O2    S    
C29   H21   S    
C18   C30   A    
C15   O8    A    
C19   H18   S    
C27   C28   A    
C10   N2    A    
C1    C9    S    
C20   C21   A    
C24   H9    S    
C1    O5    A    
C16   C18   S    
C15   O9    A    
C10   C11   A    
C30   O4    S    
C2    C23   A    
C14   N2    A    
C4    O7    A    
C8    H12   S    
Cu2   O5    S    
Cu2   N2    S    
C18   C31   A    
C6    C15   S    
C2    C19   A    
C22   H4    S    
C3    H22   S    
C12   C21   A    
Cu1   N1    S    
C21   H19   S    
C22   H3    S    
C11   N1    A    
Cu2   O11   S    
C12   C26   A    
C20   H20   S    
C3    C5    A    
C17   C27   A    
