data_mof_unit_15738.cif
_audit_creation_date              2012-12-10T16:58:29-0500
_audit_creation_method            fapswitch 2.2
_symmetry_space_group_name_H-M    P1
_symmetry_Int_Tables_number       1
_space_group_crystal_system       triclinic
_cell_length_a                    7.744139
_cell_length_b                    8.566946
_cell_length_c                    23.407927
_cell_angle_alpha                 91.025333
_cell_angle_beta                  85.759827
_cell_angle_gamma                 93.703523
_cell_volume                      1545.34742697

loop_
_atom_site_label
_atom_site_type_symbol
_atom_type_description
_atom_site_fract_x
_atom_site_fract_y
_atom_site_fract_z
_atom_type_partial_charge
C1    C     C_R   0.545911 0.794852 0.498510 0.962781
C2    C     C_R   0.648211 0.514786 0.291313 0.619600
C3    C     C_R   0.359216 0.480965 0.767603 -0.180304
C4    C     C_R   0.640689 0.517462 0.232351 -0.180377
C5    C     C_R   0.519657 0.490299 0.791365 0.213227
C6    C     C_R   0.480198 0.509280 0.208627 0.213512
C7    C     C_2   0.570167 0.958301 0.497646 -0.354334
C8    C     C_2   0.429833 0.041698 0.502354 -0.354308
C9    C     C_R   0.501878 0.499148 0.610715 0.917638
C10   C     C_R   0.498115 0.500815 0.389281 0.917508
C11   C     C_R   0.439322 0.369607 0.120434 0.521055
C12   C     C_R   0.454088 0.205147 0.501490 0.963009
C13   C     C_R   0.560379 0.629997 0.879571 0.520920
C14   C     C_R   0.517084 0.644572 0.119266 0.523218
C15   C     C_R   0.482712 0.355015 0.880738 0.523226
C16   C     C_R   0.527666 0.644143 0.059485 -0.021484
C17   C     C_R   0.472072 0.355456 0.940520 -0.021480
C18   C     C_R   0.493675 0.501763 0.030077 -0.018190
C19   C     C_R   0.506035 0.497839 0.969928 -0.018189
C20   C     C_R   0.447842 0.363210 0.060677 -0.020418
C21   C     C_R   0.551858 0.636392 0.939328 -0.020330
C22   C     C_R   0.573311 0.781500 0.028624 -0.165346
C23   C     C_R   0.673835 0.501948 0.756431 -0.063376
C24   C     C_R   0.426414 0.218100 0.971380 -0.165325
C25   C     C_R   0.585388 0.777641 0.969011 -0.162826
C26   C     C_R   0.414307 0.221963 0.030994 -0.162831
C27   C     C_R   0.326027 0.498873 0.243587 -0.063595
C28   C     C_R   0.667508 0.504483 0.697340 -0.259347
C29   C     C_R   0.332407 0.496463 0.302677 -0.259291
C30   C     C_R   0.506568 0.495986 0.672952 -0.199141
C31   C     C_R   0.493392 0.503842 0.327039 -0.199314
C32   C     C_R   0.351753 0.483751 0.708640 0.619405
F1    F     F_    0.193502 0.473278 0.686958 -0.660172
F2    F     F_    0.806539 0.524044 0.312953 -0.660388
H1    H     H_    0.600420 0.892046 0.050381 0.194591
H2    H     H_    0.759628 0.525133 0.204830 0.163800
H3    H     H_    0.702659 0.009460 0.493151 0.184434
H4    H     H_    0.297341 0.990540 0.506850 0.184411
H5    H     H_    0.014152 0.382786 0.456813 0.201006
H6    H     H_    0.985848 0.617214 0.543187 0.200832
H7    H     H_    0.399318 0.107552 0.949624 0.194595
H8    H     H_    0.620874 0.885424 0.946329 0.195694
H9    H     H_    0.378814 0.114182 0.053676 0.195671
H10   H     H_    0.797957 0.509438 0.775134 0.174922
H11   H     H_    0.201868 0.492283 0.224906 0.174937
H12   H     H_    0.788390 0.514145 0.670867 0.223225
H13   H     H_    0.211511 0.487817 0.329170 0.223631
H14   H     H_    0.240262 0.472330 0.795095 0.164032
N1    N     N_R   0.475140 0.508458 0.148091 -0.349562
N2    N     N_R   0.524629 0.491135 0.851909 -0.349487
N3    N     N_2   0.950330 0.457950 0.484560 -0.160140
N4    N     N_2   0.049670 0.542050 0.515440 -0.160189
O1    O     O_R   0.389250 0.738570 0.503790 -0.616534
O2    O     O_2   0.601165 0.761460 0.849217 -0.522024
O3    O     O_2   0.549348 0.779226 0.148537 -0.520695
O4    O     O_2   0.450561 0.220335 0.851469 -0.520701
O5    O     O_R   0.610750 0.261430 0.496210 -0.616448
O6    O     O_R   0.678390 0.711620 0.493890 -0.628341
O7    O     O_R   0.321610 0.288380 0.506110 -0.628148
O8    O     O_R   0.355400 0.513520 0.588790 -0.548447
O9    O     O_R   0.644600 0.486480 0.411210 -0.548319
O10   O     O_R   0.644550 0.486570 0.578900 -0.639571
O11   O     O_R   0.355450 0.513430 0.421100 -0.639684
O12   O     O_2   0.398459 0.238167 0.150794 -0.521858
Zn1   Zn    Zn3+2 0.306930 0.518000 0.506610 0.994790
Zn2   Zn    Zn3+2 0.693070 0.482000 0.493390 0.994847

loop_
_geom_bond_atom_site_label_1
_geom_bond_atom_site_label_2
_ccdc_geom_bond_type
C25   H8    S    
C26   H9    S    
H5    N3    S    
N4    Zn1   S    
C4    H2    S    
C11   N1    A    
C27   C29   A    
O1    Zn1   S    
C2    C4    A    
C6    C27   A    
C5    C23   A    
O5    Zn2   S    
C8    C12   S    
C9    O8    A    
C32   F1    S    
C27   H11   S    
C28   C30   A    
C14   O3    S    
C7    H3    S    
C13   C21   A    
C7    C8    D    
C29   C31   A    
C1    C7    S    
C1    O6    A    
C15   O4    S    
C30   C32   A    
C24   H7    S    
C28   H12   S    
C21   C25   A    
C20   C26   A    
C9    C30   S    
C29   H13   S    
C12   O5    A    
O9    Zn2   S    
C4    C6    A    
C13   N2    A    
C17   C19   A    
C24   C26   A    
O8    Zn1   S    
C11   O12   S    
C18   C20   A    
C8    H4    S    
C6    N1    S    
C3    C32   A    
O11   Zn1   S    
C14   C16   A    
C5    N2    S    
C17   C24   A    
C22   H1    S    
C23   C28   A    
O10   Zn2   S    
C9    O10   A    
C10   O9    A    
C3    H14   S    
N3    N4    D    
C14   N1    A    
C16   C18   A    
C13   O2    S    
C15   N2    A    
C15   C17   A    
C1    O1    A    
C18   C19   A    
C11   C20   A    
C19   C21   A    
C2    F2    S    
H6    N4    S    
C12   O7    A    
C10   C31   S    
C22   C25   A    
O7    Zn1   S    
C23   H10   S    
C10   O11   A    
C16   C22   A    
C2    C31   A    
C3    C5    A    
N3    Zn2   S    
O6    Zn2   S    
