data_mof_unit_41688.cif
_audit_creation_date              2012-12-10T16:51:33-0500
_audit_creation_method            fapswitch 2.2
_symmetry_space_group_name_H-M    P1
_symmetry_Int_Tables_number       1
_space_group_crystal_system       triclinic
_cell_length_a                    7.821745
_cell_length_b                    8.57261
_cell_length_c                    12.128021
_cell_angle_alpha                 92.739126
_cell_angle_beta                  101.108899
_cell_angle_gamma                 93.978007
_cell_volume                      794.502415011

loop_
_atom_site_label
_atom_site_type_symbol
_atom_type_description
_atom_site_fract_x
_atom_site_fract_y
_atom_site_fract_z
_atom_type_partial_charge
C1    C     C_R   0.041035 0.793590 0.489947 0.847509
C2    C     C_R   0.158993 0.505837 0.831876 -0.115006
C3    C     C_2   0.050672 0.951218 0.461265 0.262499
C4    C     C_R   0.105955 0.504053 0.710264 0.842387
C5    C     C_2   0.932120 0.040941 0.494276 -0.517984
C6    C     C_R   0.953186 0.205044 0.495601 0.990767
C7    C     C_R   0.892629 0.489349 0.289628 0.910624
C8    C     C_R   0.814531 0.296991 0.000260 -0.182112
C9    C     C_R   0.830625 0.460996 0.169714 -0.075908
C10   C     C_R   0.072820 0.597803 0.899231 -0.200046
C11   C     C_R   0.143826 0.629282 0.012621 -0.108975
C12   C     C_R   0.396039 0.487074 0.989878 0.076507
C13   C     C_R   0.305427 0.577102 0.057777 -0.171689
C14   C     C_R   0.310862 0.435888 0.879937 0.071983
C15   C     C_R   0.568971 0.447415 0.026783 0.087483
C16   C     C_R   0.644029 0.338818 0.961628 0.158129
C17   C     C_R   0.546785 0.271967 0.860080 -0.227026
C18   C     C_R   0.381660 0.319447 0.819672 -0.192837
C19   C     C_R   0.670670 0.515520 0.126155 -0.253986
C20   C     C_R   0.906816 0.355988 0.105515 -0.145649
H1    H     H_    0.033462 0.315358 0.138145 0.203850
H2    H     H_    0.076353 0.698852 0.064884 0.189250
H3    H     H_    0.309608 0.263602 0.740892 0.171985
H4    H     H_    0.352560 0.818259 0.328247 0.368455
H5    H     H_    0.830619 0.995020 0.536732 0.170654
H6    H     H_    0.469642 0.376815 0.414751 0.239357
H7    H     H_    0.530346 0.624182 0.584596 0.192262
H8    H     H_    0.599453 0.185059 0.810916 0.155245
H9    H     H_    0.873342 0.214543 0.951262 0.145079
H10   H     H_    0.625029 0.606884 0.174772 0.153792
H11   H     H_    0.953735 0.649664 0.863457 0.163122
H12   H     H_    0.354156 0.605950 0.146291 0.156027
N1    N     N_2   0.434800 0.456690 0.470850 -0.148735
N2    N     N_2   0.565200 0.543310 0.529150 -0.176641
O1    O     O_R   0.893060 0.738880 0.507150 -0.639692
O2    O     O_2   0.368500 0.073746 0.441508 -0.334365
O3    O     O_3   0.234089 0.846266 0.293905 -0.570217
O4    O     O_R   0.172250 0.711130 0.488470 -0.594079
O5    O     O_R   0.944700 0.520730 0.667600 -0.614065
O6    O     O_R   0.223890 0.492980 0.648920 -0.623969
O7    O     O_R   0.827750 0.288870 0.511530 -0.610372
O8    O     O_R   0.106940 0.261120 0.492850 -0.544350
O9    O     O_R   0.776110 0.507020 0.351080 -0.628559
O10   O     O_R   0.055300 0.479270 0.332400 -0.590112
O11   O     O_2   0.123307 0.123300 0.291621 -0.297747
S1    S     S_3+6 0.197961 0.004989 0.370964 0.030211
Zn1   Zn    Zn3+2 0.813580 0.518530 0.512470 0.960086
Zn2   Zn    Zn3+2 0.186420 0.481470 0.487530 1.016859

loop_
_geom_bond_atom_site_label_1
_geom_bond_atom_site_label_2
_ccdc_geom_bond_type
C2    C4    S    
C4    O5    A    
O2    S1    D    
C7    O9    A    
C14   C18   A    
C3    S1    S    
O4    Zn2   S    
C18   H3    S    
C12   C15   A    
O1    Zn1   S    
C17   C18   A    
O7    Zn1   S    
C19   H10   S    
C8    C16   A    
O8    Zn2   S    
C7    O10   A    
C12   C13   A    
C15   C19   A    
C11   C13   A    
C8    C20   A    
C1    O4    A    
C5    H5    S    
C8    H9    S    
C12   C14   A    
H4    O3    S    
H7    N2    S    
C5    C6    S    
C2    C14   A    
C9    C20   A    
C10   C11   A    
C15   C16   A    
C2    C10   A    
O10   Zn2   S    
N1    N2    D    
C20   H1    S    
C1    O1    A    
C11   H2    S    
O5    Zn1   S    
C6    O8    A    
C7    C9    S    
N1    Zn2   S    
O6    Zn2   S    
N2    Zn1   S    
C13   H12   S    
C3    C5    D    
O3    S1    S    
O11   S1    D    
C17   H8    S    
O9    Zn1   S    
C10   H11   S    
C9    C19   A    
C4    O6    A    
H6    N1    S    
C16   C17   A    
C1    C3    S    
C6    O7    A    
