data_mof_unit_47241.cif
_audit_creation_date              2012-12-11T17:12:49-0500
_audit_creation_method            fapswitch 2.2
_symmetry_space_group_name_H-M    P1
_symmetry_Int_Tables_number       1
_space_group_crystal_system       triclinic
_cell_length_a                    17.266396
_cell_length_b                    6.880653
_cell_length_c                    14.443945
_cell_angle_alpha                 89.553155
_cell_angle_beta                  110.317775
_cell_angle_gamma                 90.584602
_cell_volume                      1609.13191634

loop_
_atom_site_label
_atom_site_type_symbol
_atom_type_description
_atom_site_fract_x
_atom_site_fract_y
_atom_site_fract_z
_atom_type_partial_charge
O1    O     O_R   0.314130 0.635770 0.168990 -0.542359
O2    O     O_R   0.685870 0.364230 0.831010 -0.542359
O3    O     O_R   0.185870 0.135770 0.331010 -0.529139
O4    O     O_R   0.814130 0.864230 0.668990 -0.529139
O5    O     O_R   0.146800 0.302460 0.139760 -0.529928
O6    O     O_R   0.853200 0.697540 0.860240 -0.529927
O7    O     O_R   0.353200 0.802460 0.360240 -0.539520
O8    O     O_R   0.646800 0.197540 0.639760 -0.539520
C1    C     C_R   0.114143 0.475713 0.112507 0.752763
C2    C     C_R   0.885857 0.524287 0.887493 0.752763
C3    C     C_R   0.385923 0.976070 0.387358 0.749719
C4    C     C_R   0.614077 0.023929 0.612642 0.749719
O9    O     O_R   0.311100 0.305780 0.157130 -0.528960
O10   O     O_R   0.688900 0.694220 0.842870 -0.528960
O11   O     O_R   0.188900 0.805780 0.342870 -0.544335
O12   O     O_R   0.811100 0.194220 0.657130 -0.544334
O13   O     O_R   0.351340 0.139640 0.348510 -0.531205
O14   O     O_R   0.648660 0.860360 0.651490 -0.531204
O15   O     O_R   0.148660 0.639640 0.151490 -0.536761
O16   O     O_R   0.851340 0.360360 0.848510 -0.536761
C5    C     C_R   0.335293 0.476013 0.138857 0.740681
C6    C     C_R   0.664707 0.523986 0.861143 0.740681
C7    C     C_R   0.164428 0.973146 0.360880 0.741525
C8    C     C_R   0.835572 0.026854 0.639120 0.741525
C9    C     C_1   0.533609 0.008632 0.533008 -0.141293
C10   C     C_1   0.466391 0.991367 0.466992 -0.141292
C11   C     C_1   0.966380 0.509099 0.967082 -0.125993
C12   C     C_1   0.033620 0.490901 0.032918 -0.125993
O17   O     O_3   0.263010 0.470920 0.312770 -0.369349
O18   O     O_3   0.736990 0.529080 0.687230 -0.369349
O19   O     O_3   0.236990 0.970920 0.187230 -0.365325
O20   O     O_3   0.763010 0.029080 0.812770 -0.365325
V1    V     V_3+5 0.247590 0.194450 0.238360 1.520432
V2    V     V_3+5 0.752410 0.805550 0.761640 1.520432
V3    V     V_3+5 0.252410 0.694450 0.261640 1.498104
V4    V     V_3+5 0.747590 0.305550 0.738360 1.498105
C13   C     C_R   0.112752 0.975033 0.423881 -0.084105
C14   C     C_R   0.887248 0.024967 0.576119 -0.084105
C15   C     C_R   0.386902 0.495165 0.076150 -0.088853
C16   C     C_R   0.613098 0.504835 0.923849 -0.088854
C17   C     C_R   0.912451 0.160869 0.433400 -0.130086
C18   C     C_R   0.087549 0.839131 0.566600 -0.130086
C19   C     C_R   0.578485 0.306502 0.044100 -0.126087
C20   C     C_R   0.421515 0.693498 0.955900 -0.126086
C21   C     C_R   0.863621 0.143492 0.491948 -0.193598
C22   C     C_R   0.136379 0.856508 0.508052 -0.193599
C23   C     C_R   0.629430 0.348537 0.990389 -0.177069
C24   C     C_R   0.370570 0.651463 0.009610 -0.177070
C25   C     C_R   0.962388 0.921940 0.602469 0.083579
C26   C     C_R   0.037611 0.078060 0.397531 0.083579
C27   C     C_R   0.543845 0.623733 0.911926 0.083258
C28   C     C_R   0.456155 0.376267 0.088074 0.083258
C29   C     C_R   0.012561 0.939394 0.542747 0.092735
C30   C     C_R   0.987439 0.060606 0.457253 0.092735
C31   C     C_R   0.491378 0.580490 0.966701 0.093085
C32   C     C_R   0.508622 0.419510 0.033299 0.093085
H1    H     H_    0.193301 0.774997 0.528488 0.138602
H2    H     H_    0.806698 0.225003 0.471512 0.138602
H3    H     H_    0.318044 0.744606 0.999938 0.146991
H4    H     H_    0.681956 0.255394 0.000062 0.146991
H5    H     H_    0.890511 0.255763 0.369955 0.166276
H6    H     H_    0.109489 0.744237 0.630045 0.166276
H7    H     H_    0.594681 0.182567 0.093101 0.167864
H8    H     H_    0.405319 0.817432 0.906899 0.167863
I1    I     I_    0.997254 0.244213 0.263123 -0.446836
I2    I     I_    0.002746 0.755787 0.736877 -0.446836
I3    I     I_    0.484814 0.142695 0.194074 -0.444817
I4    I     I_    0.515186 0.857305 0.805926 -0.444816

loop_
_geom_bond_atom_site_label_1
_geom_bond_atom_site_label_2
_ccdc_geom_bond_type
C2    C11   S    
O10   V2    S    
C16   C23   A    
C8    C14   S    
C31   C32   A    
O19   V1    S    
O2    C6    A    
C17   H5    S    
C16   C27   A    
O17   V3    S    
O3    C7    A    
C5    C15   S    
O18   V4    S    
C4    C9    S    
O8    C4    A    
C6    C16   S    
O10   C6    A    
O11   C7    A    
C15   C28   A    
C9    C10   T    
O9    C5    A    
C20   C24   A    
O12   C8    A    
C14   C25   A    
O15   V3    S    
C29   C30   A    
C20   H8    S    
O1    C5    A    
C13   C26   A    
O14   V2    S    
C20   C31   A    
O7    V3    S    
O5    C1    A    
C26   C30   A    
C28   I3    S    
C28   C32   A    
C25   C29   A    
O20   V4    S    
O19   V3    S    
O11   V3    S    
O7    C3    A    
C27   C31   A    
C27   I4    S    
C18   C29   A    
C18   C22   A    
O4    C8    A    
C26   I1    S    
O4    V2    S    
C17   C30   A    
O6    C2    A    
O18   V2    S    
C19   H7    S    
C21   H2    S    
O16   V4    S    
O5    V1    S    
O17   V1    S    
C19   C32   A    
C23   H4    S    
O2    V4    S    
O1    V3    S    
C24   H3    S    
O9    V1    S    
O8    V4    S    
C4    O14   A    
C11   C12   T    
C18   H6    S    
O3    V1    S    
C3    O13   A    
C14   C21   A    
C17   C21   A    
C3    C10   S    
O13   V1    S    
C13   C22   A    
C7    C13   S    
C19   C23   A    
C22   H1    S    
C1    O15   A    
O12   V4    S    
O6    V2    S    
C1    C12   S    
C2    O16   A    
C25   I2    S    
C15   C24   A    
O20   V2    S    
