data_mof_unit_40872.cif
_audit_creation_date              2012-12-10T17:29:24-0500
_audit_creation_method            fapswitch 2.2
_symmetry_space_group_name_H-M    P1
_symmetry_Int_Tables_number       1
_space_group_crystal_system       triclinic
_cell_length_a                    12.001464
_cell_length_b                    12.890187
_cell_length_c                    13.083047
_cell_angle_alpha                 87.394547
_cell_angle_beta                  113.349109
_cell_angle_gamma                 93.399805
_cell_volume                      1854.41098769

loop_
_atom_site_label
_atom_site_type_symbol
_atom_type_description
_atom_site_fract_x
_atom_site_fract_y
_atom_site_fract_z
_atom_type_partial_charge
C1    C     C_R   0.477286 0.299471 0.497985 0.883721
C2    C     C_R   0.612397 0.502349 0.829551 -0.114760
C3    C     C_R   0.536033 0.811809 0.502789 -0.044410
C4    C     C_R   0.567202 0.499285 0.708724 0.871450
C5    C     C_R   0.464044 0.188126 0.497530 -0.053912
C6    C     C_R   0.357427 0.029165 0.515669 -0.210000
C7    C     C_R   0.364297 0.136706 0.510607 -0.196287
C8    C     C_R   0.555648 0.132804 0.487461 -0.274496
C9    C     C_R   0.549948 0.026029 0.493050 0.182692
C10   C     C_R   0.450236 0.973874 0.507546 0.187466
C11   C     C_R   0.444538 0.867093 0.513111 -0.264544
C12   C     C_R   0.570069 0.525913 0.993089 0.007670
C13   C     C_R   0.635763 0.863226 0.489707 -0.192680
C14   C     C_R   0.642722 0.970754 0.484845 -0.211536
C15   C     C_R   0.019637 0.616439 0.420155 -0.276046
C16   C     C_R   0.522726 0.700512 0.502084 0.890830
C17   C     C_R   0.137190 0.603112 0.425032 0.057104
C18   C     C_R   0.152362 0.447463 0.532165 -0.039332
C19   C     C_R   0.034065 0.457636 0.529380 0.089227
C20   C     C_R   0.967030 0.543503 0.472785 0.104902
C21   C     C_R   0.848584 0.553531 0.469680 0.042513
C22   C     C_R   0.863124 0.397287 0.575743 0.026228
C23   C     C_R   0.547616 0.551833 0.881065 0.039320
C24   C     C_R   0.981235 0.384524 0.581675 -0.313596
C25   C     C_R   0.433763 0.507755 0.291126 0.927437
C26   C     C_R   0.306441 0.649566 0.014202 -0.240142
C27   C     C_R   0.397450 0.533460 0.173065 -0.173498
C28   C     C_R   0.714857 0.446876 0.893850 -0.265658
C29   C     C_R   0.751427 0.438688 0.008459 -0.144203
C30   C     C_R   0.680554 0.477389 0.059299 0.366231
C31   C     C_R   0.480529 0.549933 0.032118 0.108272
C32   C     C_R   0.390661 0.621383 0.971960 0.098542
C33   C     C_R   0.385405 0.662484 0.869970 -0.214667
C34   C     C_R   0.461072 0.626282 0.823552 -0.166607
C35   C     C_R   0.472224 0.498759 0.124740 -0.257724
C36   C     C_R   0.311747 0.608564 0.116543 0.391950
Cl1   Cl    Cl    0.214052 0.657606 0.171848 -0.630625
Cl2   Cl    Cl    0.748326 0.480143 0.205872 -0.665257
H1    H     H_    0.706830 0.820584 0.481581 0.157426
H2    H     H_    0.177292 0.660492 0.385414 0.180815
H3    H     H_    0.319178 0.718956 0.823752 0.144541
H4    H     H_    0.205363 0.382367 0.576546 0.124587
H5    H     H_    0.239158 0.705754 0.969475 0.174262
H6    H     H_    0.526268 0.432633 0.162813 0.210238
H7    H     H_    0.767046 0.410190 0.855474 0.175516
H8    H     H_    0.835019 0.401226 0.057967 0.187716
H9    H     H_    0.452483 0.658490 0.743090 0.159121
H10   H     H_    0.367874 0.827268 0.524479 0.153496
H11   H     H_    0.280540 0.989432 0.526521 0.139015
H12   H     H_    0.719604 0.010489 0.473988 0.142955
H13   H     H_    0.293148 0.179362 0.518564 0.159521
H14   H     H_    0.632371 0.172599 0.476180 0.165220
H15   H     H_    0.795744 0.618799 0.425545 0.134298
H16   H     H_    0.823013 0.340061 0.615604 0.128834
H17   H     H_    0.970508 0.683408 0.375785 0.161434
H18   H     H_    0.030434 0.317664 0.626258 0.144047
N1    N     N_R   0.798200 0.480260 0.519790 -0.099752
N2    N     N_R   0.201820 0.519740 0.480210 -0.103571
O1    O     O_R   0.579910 0.341070 0.505280 -0.629546
O2    O     O_R   0.388440 0.353740 0.492580 -0.625162
O3    O     O_R   0.643280 0.490550 0.663120 -0.615937
O4    O     O_R   0.451810 0.503220 0.650420 -0.621582
O5    O     O_R   0.611560 0.646260 0.507420 -0.634594
O6    O     O_R   0.420090 0.658930 0.494720 -0.630178
O7    O     O_R   0.548190 0.496780 0.349580 -0.584752
O8    O     O_R   0.356720 0.509450 0.336880 -0.560589
Zn1   Zn    Zn3+2 0.627850 0.491540 0.508480 0.965103
Zn2   Zn    Zn3+2 0.372150 0.508460 0.491520 0.971942

loop_
_geom_bond_atom_site_label_1
_geom_bond_atom_site_label_2
_ccdc_geom_bond_type
C6    C10   A    
C5    C8    A    
O8    Zn2   S    
C9    C14   A    
C21   N1    A    
C6    C7    A    
C16   O5    A    
C27   C36   A    
C24   H18   S    
C27   C35   A    
C9    C10   A    
O3    Zn1   S    
C2    C4    S    
C31   C32   A    
C3    C13   A    
O4    Zn2   S    
C29   H8    S    
C23   C34   A    
C33   H3    S    
C32   C33   A    
C22   N1    A    
C18   H4    S    
C19   C24   A    
C7    H13   S    
C22   H16   S    
C14   H12   S    
C13   C14   A    
C17   N2    A    
C21   H15   S    
C35   H6    S    
C12   C23   A    
C30   Cl2   S    
C11   H10   S    
C29   C30   A    
N1    Zn1   S    
C1    C5    S    
O6    Zn2   S    
C22   C24   A    
C26   C36   A    
C28   C29   A    
C26   H5    S    
C33   C34   A    
C31   C35   A    
C1    O1    A    
C12   C31   A    
C15   C20   A    
O5    Zn1   S    
C28   H7    S    
C13   H1    S    
C25   C27   S    
C10   C11   A    
C25   O8    A    
C4    O4    A    
C3    C11   A    
C20   C21   A    
O2    Zn2   S    
C5    C7    A    
C18   C19   A    
C1    O2    A    
N2    Zn2   S    
C2    C23   A    
C15   C17   A    
C25   O7    A    
C8    H14   S    
C26   C32   A    
C36   Cl1   S    
C2    C28   A    
C34   H9    S    
C16   O6    A    
O1    Zn1   S    
C12   C30   A    
C4    O3    A    
C18   N2    A    
C6    H11   S    
C19   C20   A    
C3    C16   S    
C8    C9    A    
O7    Zn1   S    
C17   H2    S    
C15   H17   S    
