data_mof_unit_14673.cif
_audit_creation_date              2012-10-26T19:25:54-0400
_audit_creation_method            fapswitch 2.2
_symmetry_space_group_name_H-M    P1
_symmetry_Int_Tables_number       1
_space_group_crystal_system       triclinic
_cell_length_a                    15.005768
_cell_length_b                    13.738229
_cell_length_c                    11.68473
_cell_angle_alpha                 90.038131
_cell_angle_beta                  89.036246
_cell_angle_gamma                 90.199042
_cell_volume                      2408.48262898

loop_
_atom_site_label
_atom_site_type_symbol
_atom_type_description
_atom_site_fract_x
_atom_site_fract_y
_atom_site_fract_z
_atom_type_partial_charge
C1    C     C_R   0.329167 0.499953 0.503613 0.537448
C2    C     C_R   0.574730 0.207051 0.467610 0.028716
C3    C     C_R   0.574744 0.793404 0.467782 0.028563
C4    C     C_R   0.425149 0.206587 0.532212 0.028498
C5    C     C_R   0.578694 0.896663 0.470841 -0.018995
C6    C     C_R   0.422156 0.103119 0.534420 -0.019112
C7    C     C_R   0.421267 0.896066 0.530316 -0.017282
C8    C     C_R   0.578318 0.103707 0.468556 -0.018099
C9    C     C_R   0.500024 0.948345 0.500803 0.013867
C10   C     C_R   0.500126 0.051512 0.501131 0.014062
C11   C     C_R   0.659121 0.948349 0.445075 0.001031
C12   C     C_R   0.670869 0.500245 0.496534 0.537067
C13   C     C_R   0.343167 0.051019 0.567411 0.001344
C14   C     C_R   0.340858 0.947082 0.557296 0.002357
C15   C     C_R   0.658160 0.052308 0.439438 0.002407
C16   C     C_R   0.499537 0.499999 0.283921 0.539860
C17   C     C_R   0.500634 0.500053 0.716074 0.539990
C18   C     C_1   0.499692 0.500112 0.162317 -0.039801
C19   C     C_1   0.500820 0.500246 0.837672 -0.039491
C20   C     C_1   0.500070 0.500314 0.059842 -0.062781
C21   C     C_1   0.500649 0.500387 0.940146 -0.062949
C22   C     C_R   0.814895 0.505119 0.385494 -0.011447
C23   C     C_R   0.910152 0.516215 0.388435 0.046840
C24   C     C_R   0.185460 0.505160 0.615102 -0.009531
C25   C     C_R   0.767288 0.501913 0.490352 -0.014162
C26   C     C_R   0.232816 0.500984 0.510118 -0.014030
C27   C     C_R   0.809526 0.507212 0.593840 -0.153533
C28   C     C_R   0.190490 0.505423 0.406720 -0.153515
C29   C     C_R   0.901857 0.514729 0.600431 -0.006848
C30   C     C_R   0.098339 0.514086 0.400287 -0.008044
C31   C     C_R   0.953138 0.515519 0.497347 -0.015701
C32   C     C_R   0.047136 0.515252 0.503438 -0.017887
C33   C     C_3   0.762420 0.490373 0.275080 -0.215556
C34   C     C_R   0.090191 0.515810 0.612344 0.046078
C35   C     C_3   0.781602 0.390522 0.220944 -0.288778
C36   C     C_3   0.745018 0.383741 0.100169 -0.457053
C37   C     C_3   0.238290 0.492079 0.725474 -0.213810
C38   C     C_3   0.220134 0.392243 0.780393 -0.288145
C39   C     C_3   0.255342 0.387400 0.901941 -0.457015
C40   C     C_3   0.886601 0.533922 0.818885 -0.253931
C41   C     C_3   0.844829 0.635664 0.829775 -0.297343
C42   C     C_3   0.778636 0.640633 0.930204 -0.460898
C43   C     C_3   0.113881 0.534408 0.181995 -0.253754
C44   C     C_3   0.158015 0.635390 0.172726 -0.301148
C45   C     C_R   0.942823 0.524506 0.708359 0.015818
C46   C     C_3   0.222650 0.640903 0.070715 -0.459589
C47   C     C_3   0.746661 0.892400 0.431498 -0.261273
C48   C     C_3   0.761141 0.855872 0.308228 -0.305100
C49   C     C_3   0.842272 0.789430 0.299095 -0.450991
C50   C     C_3   0.262358 0.106596 0.614528 -0.255276
C51   C     C_3   0.200509 0.137166 0.517534 -0.296612
C52   C     C_3   0.122917 0.198901 0.561656 -0.457359
C53   C     C_3   0.253066 0.889929 0.571327 -0.261673
C54   C     C_3   0.221910 0.846634 0.457097 -0.303395
C55   C     C_3   0.138216 0.784337 0.474521 -0.451028
C56   C     C_R   0.057530 0.524763 0.292450 0.015414
C57   C     C_3   0.742100 0.108584 0.402882 -0.260499
C58   C     C_3   0.791207 0.149065 0.507257 -0.299352
C59   C     C_3   0.870825 0.212065 0.471311 -0.455496
C60   C     C_R   0.036678 0.528860 0.713225 0.105831
C61   C     C_R   0.963736 0.529697 0.287674 0.104740
C62   C     C_R   0.425433 0.792836 0.533224 0.027745
Cu1   Cu    Cu3+1 0.500000 0.597420 0.500000 0.915492
Cu2   Cu    Cu3+1 0.500000 0.402580 0.500000 0.917660
H1    H     H_    0.767192 0.505973 0.669477 0.114863
H2    H     H_    0.854115 0.375012 0.217644 0.171087
H3    H     H_    0.749210 0.333375 0.274562 0.148790
H4    H     H_    0.689491 0.492942 0.289826 0.135315
H5    H     H_    0.771952 0.551853 0.215092 0.176430
H6    H     H_    0.328002 0.402597 0.902040 0.164703
H7    H     H_    0.220317 0.441019 0.957521 0.153176
H8    H     H_    0.243517 0.313479 0.937531 0.137763
H9    H     H_    0.147872 0.374790 0.782490 0.170849
H10   H     H_    0.254155 0.335606 0.727986 0.149602
H11   H     H_    0.311164 0.495940 0.710494 0.134149
H12   H     H_    0.232662 0.503022 0.330981 0.115090
H13   H     H_    0.228429 0.553819 0.784999 0.176257
H14   H     H_    0.723405 0.587772 0.917918 0.158707
H15   H     H_    0.812504 0.624375 0.011612 0.161542
H16   H     H_    0.750041 0.714939 0.935977 0.145360
H17   H     H_    0.898354 0.690430 0.843003 0.152933
H18   H     H_    0.809564 0.655864 0.750533 0.169606
H19   H     H_    0.835279 0.475635 0.823231 0.127948
H20   H     H_    0.925186 0.520609 0.897070 0.131385
H21   H     H_    0.276895 0.586804 0.080172 0.158181
H22   H     H_    0.187098 0.626788 0.989885 0.162750
H23   H     H_    0.369303 0.750154 0.562094 0.139123
H24   H     H_    0.252842 0.714726 0.066147 0.145416
H25   H     H_    0.105657 0.691624 0.162727 0.151981
H26   H     H_    0.195393 0.653069 0.251204 0.169104
H27   H     H_    0.163920 0.475225 0.176628 0.128074
H28   H     H_    0.074910 0.522808 0.103675 0.132536
H29   H     H_    0.051070 0.619723 0.849983 0.226737
H30   H     H_    0.066244 0.498620 0.879497 0.217069
H31   H     H_    0.950686 0.621518 0.151855 0.224948
H32   H     H_    0.933478 0.500916 0.121226 0.218017
H33   H     H_    0.903316 0.828999 0.325290 0.146396
H34   H     H_    0.631520 0.249912 0.441807 0.137663
H35   H     H_    0.832670 0.724413 0.354462 0.172152
H36   H     H_    0.851276 0.764791 0.209150 0.145165
H37   H     H_    0.701807 0.814973 0.278832 0.159238
H38   H     H_    0.771110 0.918650 0.249544 0.155171
H39   H     H_    0.804754 0.936486 0.457872 0.138258
H40   H     H_    0.748214 0.830826 0.492947 0.130361
H41   H     H_    0.083930 0.158798 0.628216 0.145370
H42   H     H_    0.147801 0.268311 0.597739 0.155770
H43   H     H_    0.078362 0.216423 0.489706 0.143645
H44   H     H_    0.238590 0.179828 0.452270 0.163995
H45   H     H_    0.630964 0.751099 0.439189 0.139063
H46   H     H_    0.173301 0.071503 0.474917 0.159706
H47   H     H_    0.225692 0.064824 0.681291 0.128382
H48   H     H_    0.283229 0.170639 0.665059 0.118007
H49   H     H_    0.152667 0.721382 0.530752 0.171422
H50   H     H_    0.083650 0.828160 0.513786 0.145479
H51   H     H_    0.115359 0.756464 0.390805 0.141941
H52   H     H_    0.206874 0.906729 0.396888 0.155446
H53   H     H_    0.274257 0.800899 0.416276 0.168088
H54   H     H_    0.260354 0.832431 0.637170 0.124721
H55   H     H_    0.196893 0.933940 0.603640 0.142608
H56   H     H_    0.367503 0.249226 0.553734 0.137184
H57   H     H_    0.917962 0.169642 0.416753 0.143623
H58   H     H_    0.848208 0.276961 0.423571 0.158315
H59   H     H_    0.906240 0.237376 0.548595 0.146363
H60   H     H_    0.745620 0.193566 0.561612 0.167183
H61   H     H_    0.815241 0.087788 0.560368 0.154505
H62   H     H_    0.788598 0.063666 0.351000 0.140228
H63   H     H_    0.725090 0.167406 0.342261 0.117878
H64   H     H_    0.671994 0.396372 0.101521 0.164777
H65   H     H_    0.778070 0.438296 0.043588 0.152706
H66   H     H_    0.758105 0.310060 0.064747 0.137473
N1    N     N_R   0.500000 0.743810 0.500000 -0.242947
N2    N     N_R   0.500000 0.256190 0.500000 -0.242243
N3    N     N_3   0.077131 0.553964 0.819573 -0.678963
N4    N     N_3   0.923468 0.555975 0.181732 -0.681978
O1    O     O_R   0.370260 0.582280 0.500020 -0.514014
O2    O     O_R   0.629740 0.417720 0.499980 -0.512183
O3    O     O_R   0.629740 0.582280 0.499980 -0.513109
O4    O     O_R   0.370260 0.417720 0.500020 -0.512037
O5    O     O_R   0.500010 0.582270 0.337200 -0.491673
O6    O     O_R   0.499990 0.417730 0.662800 -0.490083
O7    O     O_R   0.499990 0.582270 0.662800 -0.490757
O8    O     O_R   0.500010 0.417730 0.337200 -0.490336

loop_
_geom_bond_atom_site_label_1
_geom_bond_atom_site_label_2
_ccdc_geom_bond_type
C59   H57   S    
Cu2   O2    S    
C45   C60   A    
C42   H16   S    
C27   C29   A    
Cu1   O3    S    
C41   C42   S    
C40   H20   S    
C11   C47   S    
C35   C36   S    
C4    N2    A    
Cu2   O4    S    
C53   C54   S    
Cu2   O8    S    
C3    N1    A    
C19   C21   T    
C24   C26   A    
C5    C11   A    
H29   N3    S    
Cu2   O6    S    
C38   C39   S    
C48   H37   S    
H30   N3    S    
C17   O7    A    
C17   C19   S    
C11   C15   A    
C7    C14   A    
Cu2   N2    S    
C52   H43   S    
C51   H44   S    
C22   C25   A    
C54   H52   S    
C2    N2    A    
C39   H8    S    
Cu1   N1    S    
C9    C10   A    
C33   H5    S    
C46   H21   S    
C59   H58   S    
C37   H11   S    
C52   H42   S    
C42   H15   S    
C13   C14   A    
C34   C60   A    
C15   C57   S    
C40   H19   S    
C36   H64   S    
C44   C46   S    
C61   N4    S    
C50   C51   S    
C46   H24   S    
C22   C23   A    
C59   H59   S    
C40   C45   S    
C47   H39   S    
C51   C52   S    
C4    C6    A    
C57   H62   S    
C53   H54   S    
H32   N4    S    
C8    C15   A    
C55   H49   S    
C35   H2    S    
C58   C59   S    
C37   H13   S    
H31   N4    S    
C43   H27   S    
C13   C50   S    
C29   C45   A    
Cu1   O1    S    
C16   O8    A    
C43   C44   S    
C7    C62   A    
C5    C9    A    
C37   C38   S    
C27   H1    S    
C36   H66   S    
C49   H35   S    
C47   C48   S    
C35   H3    S    
C41   H17   S    
C50   H48   S    
C24   C37   S    
Cu1   O7    S    
C16   C18   S    
C40   C41   S    
C52   H41   S    
C42   H14   S    
C51   H46   S    
C1    C26   S    
C16   O5    A    
C28   H12   S    
C44   H26   S    
C38   H10   S    
C7    C9    A    
C22   C33   S    
C54   C55   S    
C48   C49   S    
C47   H40   S    
C12   O3    A    
Cu1   O5    S    
C62   N1    A    
C31   C32   A    
C2    C8    A    
C48   H38   S    
C58   H60   S    
C3    C5    A    
C57   H63   S    
C53   H55   S    
C30   C56   A    
C55   H50   S    
C25   C27   A    
C62   H23   S    
C26   C28   A    
C43   H28   S    
C12   C25   S    
C28   C30   A    
C29   C31   A    
C36   H65   S    
C6    C13   A    
C30   C32   A    
C32   C34   A    
C57   C58   S    
C55   H51   S    
C3    H45   S    
C41   H18   S    
C50   H47   S    
C33   C35   S    
C39   H6    S    
C17   O6    A    
C18   C20   T    
C24   C34   A    
C6    C10   A    
C1    O4    A    
C49   H33   S    
Cu1   Cu2   S    
C43   C56   S    
C23   C61   A    
C14   C53   S    
C20   C21   S    
C2    H34   S    
C58   H61   S    
C8    C10   A    
C12   O2    A    
C54   H53   S    
C39   H7    S    
C56   C61   A    
C4    H56   S    
C46   H22   S    
C1    O1    A    
C60   N3    S    
C44   H25   S    
C33   H4    S    
C23   C31   A    
C49   H36   S    
C38   H9    S    
