data_mof_unit_49831.cif
_audit_creation_date              2012-12-10T18:46:21-0500
_audit_creation_method            fapswitch 2.2
_symmetry_space_group_name_H-M    P1
_symmetry_Int_Tables_number       1
_space_group_crystal_system       triclinic
_cell_length_a                    9.879866
_cell_length_b                    10.715239
_cell_length_c                    13.050159
_cell_angle_alpha                 90.46972
_cell_angle_beta                  71.443407
_cell_angle_gamma                 89.784704
_cell_volume                      1309.65573273

loop_
_atom_site_label
_atom_site_type_symbol
_atom_type_description
_atom_site_fract_x
_atom_site_fract_y
_atom_site_fract_z
_atom_type_partial_charge
C1    C     C_R   0.499756 0.740015 0.500324 0.878258
C2    C     C_R   0.445292 0.416638 0.980737 0.092027
C3    C     C_R   0.481894 0.413225 0.867095 0.083864
C4    C     C_R   0.556266 0.409276 0.026870 0.045160
C5    C     C_R   0.699986 0.415261 0.960345 0.153297
C6    C     C_R   0.733054 0.387071 0.850954 -0.237260
C7    C     C_R   0.622977 0.375809 0.806564 -0.190197
C8    C     C_R   0.528746 0.406382 0.137671 0.062377
C9    C     C_R   0.766389 0.482574 0.114857 -0.196936
C10   C     C_R   0.379827 0.455113 0.818455 -0.116848
C11   C     C_R   0.612368 0.935920 0.520339 -0.177718
C12   C     C_R   0.423097 0.486957 0.703217 0.856483
C13   C     C_R   0.612530 0.063772 0.520270 -0.168359
C14   C     C_R   0.499795 0.127507 0.500710 -0.010933
C15   C     C_R   0.386460 0.064133 0.481877 -0.154614
C16   C     C_R   0.386343 0.936325 0.481856 -0.182594
C17   C     C_R   0.499418 0.872550 0.500883 -0.027272
C18   C     C_R   0.957633 0.420097 0.434143 0.208751
C19   C     C_R   0.099619 0.419432 0.436022 -0.093634
C20   C     C_R   0.043874 0.580125 0.565484 -0.094521
C21   C     C_R   0.899992 0.579648 0.565896 -0.115874
C22   C     C_R   0.500019 0.259987 0.500184 0.886559
C23   C     C_R   0.578333 0.492066 0.296298 0.919296
C24   C     C_R   0.805844 0.449690 0.005299 -0.184160
C25   C     C_R   0.625616 0.462393 0.181314 -0.093180
C26   C     C_R   0.238633 0.478667 0.883050 -0.204275
C27   C     C_R   0.200311 0.470406 0.994883 -0.129097
C28   C     C_R   0.302865 0.443312 0.043771 -0.132403
H1    H     H_    0.845358 0.519632 0.148178 0.168974
H2    H     H_    0.700033 0.112272 0.536009 0.167859
H3    H     H_    0.298723 0.112860 0.466429 0.175277
H4    H     H_    0.298695 0.887892 0.466275 0.164891
H5    H     H_    0.175114 0.354029 0.386332 0.178155
H6    H     H_    0.075741 0.644333 0.617844 0.135504
H7    H     H_    0.823345 0.643390 0.618626 0.145401
H8    H     H_    0.842919 0.375814 0.799813 0.151730
H9    H     H_    0.915645 0.458566 0.954738 0.134539
H10   H     H_    0.159325 0.509246 0.847293 0.149851
H11   H     H_    0.270883 0.450171 0.130937 0.166819
H12   H     H_    0.092637 0.492762 0.044528 0.145571
H13   H     H_    0.651838 0.343999 0.723633 0.182693
H14   H     H_    0.699892 0.887133 0.536055 0.157931
N1    N     N_R   0.142790 0.500030 0.500030 -0.090386
N2    N     N_R   0.857180 0.499940 0.500010 -0.099043
O1    O     O_R   0.385370 0.683250 0.500010 -0.621934
O2    O     O_R   0.614700 0.683220 0.500010 -0.619926
O3    O     O_R   0.328400 0.499990 0.653620 -0.614036
O4    O     O_R   0.557730 0.499960 0.653620 -0.625214
O5    O     O_R   0.385300 0.316780 0.499990 -0.621835
O6    O     O_R   0.614630 0.316750 0.499990 -0.612793
O7    O     O_R   0.442270 0.500040 0.346380 -0.598084
O8    O     O_R   0.671600 0.500010 0.346380 -0.589584
Zn1   Zn    Zn3+2 0.346870 0.500020 0.500000 0.958898
Zn2   Zn    Zn3+2 0.653130 0.499980 0.500000 0.966320
I1    I     I_    0.912853 0.294940 0.323128 -0.350083
I2    I     I_    0.406061 0.252348 0.219006 -0.383690

loop_
_geom_bond_atom_site_label_1
_geom_bond_atom_site_label_2
_ccdc_geom_bond_type
C2    C4    A    
C6    H8    S    
C9    C24   A    
C15   H3    S    
C6    C7    A    
C21   H7    S    
C18   N2    A    
C16   H4    S    
C21   N2    A    
C4    C8    A    
C13   H2    S    
C1    C17   S    
O2    Zn2   S    
C9    H1    S    
C27   H12   S    
C12   O4    A    
C20   H6    S    
C8    I2    S    
C7    H13   S    
C24   H9    S    
C23   O8    A    
O1    Zn1   S    
C3    C10   A    
C13   C14   A    
O4    Zn2   S    
C8    C25   A    
C11   C13   A    
C1    O1    A    
C26   C27   A    
O6    Zn2   S    
C5    C24   A    
C10   C12   S    
C18   I1    S    
C12   O3    A    
O5    Zn1   S    
O3    Zn1   S    
C19   N1    A    
C2    C3    A    
C3    C7    A    
C23   C25   S    
C5    C6    A    
C1    O2    A    
C9    C25   A    
C15   C16   A    
N2    Zn2   S    
C22   O6    A    
C4    C5    A    
C20   N1    A    
C20   C21   A    
C11   H14   S    
C14   C22   S    
C18   C19   A    
C19   H5    S    
C22   O5    A    
C27   C28   A    
C14   C15   A    
C11   C17   A    
C2    C28   A    
C28   H11   S    
C23   O7    A    
N1    Zn1   S    
C10   C26   A    
C26   H10   S    
O8    Zn2   S    
C16   C17   A    
O7    Zn1   S    
