data_mof_unit_25956.cif
_audit_creation_date              2012-10-26T18:32:21-0400
_audit_creation_method            fapswitch 2.2
_symmetry_space_group_name_H-M    P1
_symmetry_Int_Tables_number       1
_space_group_crystal_system       triclinic
_cell_length_a                    12.486392
_cell_length_b                    13.123115
_cell_length_c                    15.841936
_cell_angle_alpha                 74.992563
_cell_angle_beta                  100.871535
_cell_angle_gamma                 117.254555
_cell_volume                      2221.540139

loop_
_atom_site_label
_atom_site_type_symbol
_atom_type_description
_atom_site_fract_x
_atom_site_fract_y
_atom_site_fract_z
_atom_type_partial_charge
C1    C     C_R   0.855165 0.285441 0.508912 0.543440
C2    C     C_R   0.226579 0.840531 0.473245 -0.040648
C3    C     C_R   0.808648 0.073117 0.566881 0.265336
C4    C     C_R   0.999944 0.499532 0.659391 0.556854
C5    C     C_R   0.723536 0.956713 0.585198 -0.139597
C6    C     C_R   0.602827 0.924890 0.555776 -0.138624
C7    C     C_R   0.562544 0.008966 0.506486 0.048912
C8    C     C_R   0.651274 0.123597 0.477397 -0.023125
C9    C     C_R   0.437994 0.981717 0.480684 -0.009622
C10   C     C_R   0.406830 0.063925 0.416140 -0.033735
C11   C     C_R   0.498278 0.168510 0.377725 -0.114837
C12   C     C_3   0.079949 0.438051 0.073186 -0.029954
C13   C     C_R   0.618010 0.198109 0.407996 -0.120381
C14   C     C_R   0.342728 0.875760 0.516603 0.181695
C15   C     C_R   0.195059 0.923982 0.412309 0.233019
C16   C     C_R   0.144564 0.714633 0.487668 0.584091
C17   C     C_R   0.772233 0.159199 0.515544 -0.016301
C18   C     C_R   0.314084 0.292509 0.616061 -0.172093
C19   C     C_R   0.762540 0.646978 0.379787 0.035004
C20   C     C_R   0.663102 0.668860 0.344235 -0.179610
C21   C     C_R   0.554520 0.604876 0.383373 -0.111140
C22   C     C_R   0.543835 0.520010 0.461261 -0.019278
C23   C     C_3   0.991625 0.487700 0.084496 0.127350
C24   C     C_R   0.644889 0.492486 0.491778 0.172606
C25   C     C_R   0.435369 0.459061 0.508179 -0.020630
C26   C     C_R   0.417003 0.353125 0.568279 -0.058432
C27   C     C_R   0.506664 0.313714 0.586017 0.072170
C28   C     C_R   0.000051 0.500318 0.340635 0.526750
C29   C     C_R   0.623240 0.390010 0.560539 0.168419
C30   C     C_R   0.346655 0.501235 0.501434 0.198907
C31   C     C_R   0.232865 0.339677 0.609180 0.404758
C32   C     C_3   0.065221 0.424600 0.976411 -0.177955
C33   C     C_3   0.857361 0.424309 0.944616 0.042930
C34   C     C_3   0.040996 0.614959 0.030151 -0.270039
C35   C     C_3   0.857561 0.414155 0.046753 0.271732
C36   C     C_1   0.997881 0.497176 0.251376 -0.030172
C37   C     C_3   0.990408 0.488110 0.917853 0.055654
C38   C     C_3   0.010172 0.916614 0.413627 -0.094570
C39   C     C_3   0.258932 0.203237 0.376555 -0.127032
C40   C     C_3   0.346629 0.844904 0.664294 -0.129065
C41   C     C_3   0.985722 0.070387 0.556454 -0.089233
C42   C     C_3   0.173186 0.290362 0.747019 -0.093067
C43   C     C_3   0.045599 0.615032 0.933345 -0.273079
C44   C     C_1   0.995417 0.493234 0.176304 -0.031441
C45   C     C_1   0.995214 0.492774 0.825286 -0.075699
C46   C     C_1   0.998189 0.496398 0.749403 -0.045293
C47   C     C_R   0.284385 0.038366 0.388276 0.274524
Cu1   Cu    Cu3+1 0.098280 0.475420 0.519630 1.012364
Cu2   Cu    Cu3+1 0.901720 0.524580 0.480370 0.960646
H1    H     H_    0.156440 0.461824 0.952287 0.086476
H2    H     H_    0.845276 0.694037 0.347120 0.164881
H3    H     H_    0.478146 0.618592 0.347917 0.153389
H4    H     H_    0.669166 0.733475 0.284536 0.109903
H5    H     H_    0.810625 0.479257 0.907255 0.100947
H6    H     H_    0.141171 0.662364 0.916146 0.123353
H7    H     H_    0.995551 0.663486 0.890221 0.116723
H8    H     H_    0.133793 0.668185 0.057225 0.112572
H9    H     H_    0.090617 0.343615 0.197811 0.232471
H10   H     H_    0.122429 0.298744 0.120608 0.241324
H11   H     H_    0.007316 0.873081 0.484080 0.101209
H12   H     H_    0.174731 0.502931 0.086631 0.121065
H13   H     H_    0.916324 0.883746 0.382976 0.126737
H14   H     H_    0.042648 0.012006 0.406666 0.124206
H15   H     H_    0.352657 0.272464 0.381787 0.124514
H16   H     H_    0.226239 0.163137 0.443438 0.081604
H17   H     H_    0.201310 0.246460 0.339058 0.138026
H18   H     H_    0.254973 0.841554 0.659596 0.098887
H19   H     H_    0.417622 0.934875 0.667597 0.133165
H20   H     H_    0.357168 0.786396 0.726522 0.140207
H21   H     H_    0.991224 0.119165 0.487311 0.104900
H22   H     H_    0.941811 0.974509 0.558967 0.073543
H23   H     H_    0.986117 0.659947 0.034474 0.131463
H24   H     H_    0.079319 0.092876 0.586581 0.143298
H25   H     H_    0.092747 0.259392 0.783474 0.149550
H26   H     H_    0.233209 0.382059 0.754930 0.109997
H27   H     H_    0.219179 0.232817 0.777152 0.084798
H28   H     H_    0.473355 0.200358 0.704226 0.222252
H29   H     H_    0.411599 0.136577 0.614255 0.224278
H30   H     H_    0.297020 0.614559 0.407318 0.264302
H31   H     H_    0.390261 0.671619 0.495839 0.276112
H32   H     H_    0.702250 0.281603 0.622699 0.258008
H33   H     H_    0.714120 0.379235 0.679221 0.205380
H34   H     H_    0.478013 0.228160 0.323191 0.152710
H35   H     H_    0.782879 0.321762 0.850438 0.221699
H36   H     H_    0.702783 0.272976 0.936371 0.241031
H37   H     H_    0.822618 0.284532 0.160607 0.248185
H38   H     H_    0.853272 0.246594 0.076530 0.286570
H39   H     H_    0.793257 0.541980 0.021119 0.198236
H40   H     H_    0.687205 0.404678 0.043354 0.238980
H41   H     H_    0.544463 0.832721 0.569132 0.181811
H42   H     H_    0.750969 0.890342 0.624264 0.124129
H43   H     H_    0.019999 0.330642 0.971732 0.169473
H44   H     H_    0.684619 0.278361 0.373629 0.147820
H45   H     H_    0.297051 0.210383 0.661280 0.099694
N1    N     N_R   0.246300 0.438200 0.549400 -0.214792
N2    N     N_R   0.754300 0.561180 0.451130 -0.228442
N3    N     N_3   0.063109 0.327477 0.134155 -0.661920
N4    N     N_3   0.487211 0.201461 0.640885 -0.667787
N5    N     N_3   0.369792 0.616109 0.452587 -0.649935
N6    N     N_3   0.716859 0.368201 0.616659 -0.521508
N7    N     N_3   0.791484 0.309636 0.918807 -0.637830
N8    N     N_3   0.810776 0.290580 0.092676 -0.585983
N9    N     N_3   0.776264 0.460254 0.061372 -0.616964
O1    O     O_R   0.972520 0.318130 0.524690 -0.411019
O2    O     O_3   0.251497 0.120571 0.330601 -0.541777
O3    O     O_3   0.360238 0.805127 0.594214 -0.575272
O4    O     O_3   0.925639 0.102855 0.604162 -0.503126
O5    O     O_3   0.133958 0.283212 0.658308 -0.487578
O6    O     O_R   0.806530 0.359650 0.491530 -0.500764
O7    O     O_R   0.083030 0.479240 0.637150 -0.458416
O8    O     O_R   0.917040 0.520750 0.603990 -0.473607
O9    O     O_R   0.193470 0.640350 0.508470 -0.481633
O10   O     O_R   0.027480 0.681870 0.475310 -0.485483
O11   O     O_R   0.082960 0.479250 0.396010 -0.530793
O12   O     O_R   0.916970 0.520760 0.362850 -0.500176
O13   O     O_3   0.080540 0.891555 0.369374 -0.527582

loop_
_geom_bond_atom_site_label_1
_geom_bond_atom_site_label_2
_ccdc_geom_bond_type
Cu1   O7    S    
C27   N4    S    
C8    C13   A    
Cu1   N1    S    
C27   C29   A    
C31   O5    S    
Cu2   O10   S    
C19   C20   A    
C18   C26   A    
C15   C47   A    
C35   N8    S    
C16   O10   A    
C7    C8    A    
C4    C46   S    
C45   C46   T    
C39   H15   S    
C12   C23   S    
C42   H26   S    
C33   N7    S    
Cu2   O6    S    
C35   N9    S    
C24   N2    A    
C5    C6    A    
C31   N1    A    
Cu1   O1    S    
C25   C30   A    
C39   O2    S    
C24   C29   A    
C1    O6    A    
Cu1   O11   S    
C47   O2    S    
C22   C25   A    
H29   N4    S    
C34   H8    S    
C42   H27   S    
C2    C16   S    
C9    C10   A    
C41   H22   S    
C21   C22   A    
C12   C32   S    
H35   N7    S    
C39   H16   S    
H9    N3    S    
C42   H25   S    
C40   H20   S    
C11   H34   S    
C25   C26   A    
C6    H41   S    
C30   N5    S    
C40   H18   S    
C33   C37   S    
C23   C44   S    
C13   H44   S    
C37   C43   S    
C9    C14   A    
C30   N1    A    
C28   O12   A    
H38   N8    S    
C38   O13   S    
C23   C34   S    
C26   C27   A    
H28   N4    S    
C32   C37   S    
C2    C15   A    
C1    O1    A    
C32   H1    S    
C12   N3    S    
C5    H42   S    
C28   O11   A    
C38   H11   S    
C43   H6    S    
Cu1   Cu2   S    
Cu2   O12   S    
C4    O8    A    
C23   C35   S    
H31   N5    S    
C18   H45   S    
C39   H17   S    
C22   C24   A    
C36   C44   T    
C37   C45   S    
H37   N8    S    
C34   H23   S    
H39   N9    S    
H36   N7    S    
C16   O9    A    
C40   O3    S    
C38   H14   S    
H30   N5    S    
C33   H5    S    
C7    C9    A    
C4    O7    A    
C41   O4    S    
C29   N6    S    
Cu1   O9    S    
H33   N6    S    
C34   C43   S    
C20   H4    S    
C3    C5    A    
C6    C7    A    
H32   N6    S    
C1    C17   S    
C8    C17   A    
Cu2   O8    S    
C3    O4    S    
C12   H12   S    
C11   C13   A    
C32   H43   S    
H10   N3    S    
C33   C35   S    
C3    C17   A    
Cu2   N2    S    
C2    C14   A    
C10   C11   A    
C41   H24   S    
C19   H2    S    
C43   H7    S    
C14   O3    S    
C20   C21   A    
C28   C36   S    
C40   H19   S    
C10   C47   A    
C15   O13   S    
C18   C31   A    
C42   O5    S    
C21   H3    S    
H40   N9    S    
C19   N2    A    
C41   H21   S    
C38   H13   S    
