data_mof_unit_19242.cif
_audit_creation_date              2012-12-10T19:00:16-0500
_audit_creation_method            fapswitch 2.2
_symmetry_space_group_name_H-M    P1
_symmetry_Int_Tables_number       1
_space_group_crystal_system       triclinic
_cell_length_a                    9.636874
_cell_length_b                    10.967923
_cell_length_c                    13.587912
_cell_angle_alpha                 91.925932
_cell_angle_beta                  73.846839
_cell_angle_gamma                 90.073855
_cell_volume                      1378.66786164

loop_
_atom_site_label
_atom_site_type_symbol
_atom_type_description
_atom_site_fract_x
_atom_site_fract_y
_atom_site_fract_z
_atom_type_partial_charge
C1    C     C_R   0.498857 0.737208 0.502710 0.870066
C2    C     C_R   0.429987 0.484252 0.978109 -0.087972
C3    C     C_R   0.480003 0.505713 0.872314 -0.142380
C4    C     C_R   0.534150 0.466046 0.032714 -0.117479
C5    C     C_R   0.674025 0.425864 0.977433 -0.193763
C6    C     C_R   0.723915 0.451214 0.872921 0.378446
C7    C     C_R   0.630019 0.516322 0.830322 0.384825
C8    C     C_R   0.514436 0.511918 0.133860 0.390515
C9    C     C_R   0.736567 0.405811 0.137016 0.245879
C10   C     C_R   0.379671 0.523399 0.814306 -0.183167
C11   C     C_R   0.365363 0.936169 0.538907 -0.014080
C12   C     C_R   0.423420 0.509608 0.699722 0.872920
C13   C     C_R   0.494514 0.870024 0.515925 -0.268132
C14   C     C_R   0.621304 0.937499 0.511162 0.395577
C15   C     C_R   0.610525 0.063967 0.534139 0.456667
C16   C     C_R   0.491179 0.129760 0.521627 -0.254470
C17   C     C_R   0.367983 0.059788 0.529065 -0.172031
C18   C     C_3   0.232674 0.060112 0.497046 0.065430
C19   C     C_3   0.220749 0.922290 0.519769 0.952759
C20   C     C_R   0.957132 0.439341 0.423885 0.308497
C21   C     C_R   0.902133 0.578954 0.560976 -0.106986
C22   C     C_R   0.048961 0.575274 0.564638 -0.018308
C23   C     C_R   0.497126 0.262710 0.506447 0.834057
C24   C     C_R   0.105453 0.446450 0.420549 0.050464
C25   C     C_3   0.137329 0.319766 0.386108 -0.567792
C26   C     C_3   0.977301 0.304518 0.402300 0.710818
C27   C     C_R   0.575948 0.497225 0.300545 0.881413
C28   C     C_R   0.767239 0.380638 0.030730 0.509736
C29   C     C_R   0.612652 0.474905 0.188164 -0.260443
C30   C     C_R   0.233342 0.546594 0.867397 0.278365
C31   C     C_R   0.183407 0.525646 0.973269 0.447645
C32   C     C_R   0.278915 0.479013 0.024451 0.308131
Cu1   Cu    Cu3+1 0.359330 0.500020 0.500010 0.973235
Cu2   Cu    Cu3+1 0.640670 0.499980 0.499990 1.037271
H1    H     H_    0.148778 0.121103 0.546916 0.108358
H2    H     H_    0.829867 0.647219 0.605398 0.196937
H3    H     H_    0.082565 0.634456 0.618828 0.213738
H4    H     H_    0.204414 0.310829 0.305243 0.199257
H5    H     H_    0.177329 0.274875 0.443086 0.245562
N1    N     N_R   0.852320 0.499070 0.499340 -0.206335
N2    N     N_R   0.148230 0.499110 0.499340 -0.189221
O1    O     O_R   0.381190 0.680360 0.500000 -0.547616
O2    O     O_R   0.618780 0.680320 0.499990 -0.555971
O3    O     O_R   0.323230 0.500000 0.650990 -0.543234
O4    O     O_R   0.560820 0.499960 0.650980 -0.561852
O5    O     O_R   0.381220 0.319680 0.500010 -0.613528
O6    O     O_R   0.618810 0.319640 0.500000 -0.496154
O7    O     O_R   0.439180 0.500040 0.349020 -0.613091
O8    O     O_R   0.676770 0.500000 0.349010 -0.530650
O9    O     O_3   0.829970 0.370610 0.191237 -0.648828
H6    H     H_    0.919260 0.335317 0.143969 0.407949
O10   O     O_3   0.706414 0.116576 0.580474 -0.528325
C33   C     C_3   0.640981 0.123960 0.687265 -0.310848
H7    H     H_    0.591027 0.036136 0.717523 0.148569
H8    H     H_    0.559573 0.199131 0.707465 0.156253
H9    H     H_    0.725257 0.144195 0.726261 0.164142
O11   O     O_3   0.259394 0.076280 0.390728 -0.749504
H10   H     H_    0.344507 0.129736 0.366701 0.343360
O12   O     O_3   0.124111 0.885926 0.613717 -0.628185
C34   C     C_3   0.978005 0.914133 0.623631 -0.357746
H11   H     H_    0.929327 0.842209 0.585469 0.215931
H12   H     H_    0.960520 0.004610 0.595424 0.180295
H13   H     H_    0.918404 0.914856 0.706215 0.196009
O13   O     O_3   0.231232 0.840667 0.434915 -0.576515
C35   C     C_3   0.111703 0.849298 0.394877 -0.270657
H14   H     H_    0.151415 0.850267 0.310160 0.169790
H15   H     H_    0.045051 0.933236 0.419328 0.194211
H16   H     H_    0.043997 0.767258 0.415677 0.171512
O14   O     O_3   0.939733 0.262364 0.315113 -0.681467
H17   H     H_    0.983672 0.179945 0.296959 0.310488
O15   O     O_3   0.870707 0.448912 0.824451 -0.541363
C36   C     C_3   0.899282 0.361461 0.742846 -0.186862
H18   H     H_    0.013135 0.370887 0.696636 0.208093
H19   H     H_    0.829353 0.373503 0.690971 0.179250
H20   H     H_    0.888147 0.268124 0.772754 0.149754
O16   O     O_3   0.915230 0.237428 0.488395 -0.693063
H21   H     H_    0.952534 0.152855 0.470985 0.331872
O17   O     O_3   0.891735 0.317715 0.978587 -0.505684
C37   C     C_3   0.859291 0.192320 0.978054 -0.352412
H22   H     H_    0.772728 0.173068 0.939968 0.140248
H23   H     H_    0.827719 0.157421 0.057128 0.166282
H24   H     H_    0.957594 0.141587 0.933811 0.200954
O18   O     O_3   0.454846 0.628274 0.155334 -0.570957
C38   C     C_3   0.315777 0.628740 0.224282 -0.213903
H25   H     H_    0.319897 0.679676 0.294857 0.233664
H26   H     H_    0.270817 0.537633 0.246351 0.189985
H27   H     H_    0.241658 0.678277 0.190087 0.143234
O19   O     O_3   0.141125 0.588275 0.813776 -0.680972
H28   H     H_    0.048921 0.616393 0.862251 0.375647
O20   O     O_3   0.219954 0.417760 0.113256 -0.734559
H29   H     H_    0.294414 0.362726 0.125484 0.310494
O21   O     O_3   0.036591 0.532179 0.021159 -0.529870
C39   C     C_3   0.007935 0.624568 0.099098 -0.283719
H30   H     H_    0.071814 0.708726 0.075313 0.116765
H31   H     H_    0.026050 0.589784 0.170333 0.208368
H32   H     H_    0.892160 0.650664 0.117182 0.185429
O22   O     O_3   0.679619 0.613112 0.768744 -0.729028
H33   H     H_    0.776119 0.636394 0.775563 0.330431
O23   O     O_3   0.756060 0.884594 0.472732 -0.579323
C40   C     C_3   0.791251 0.886355 0.364277 -0.347856
H34   H     H_    0.698217 0.866306 0.332585 0.161913
H35   H     H_    0.872259 0.814076 0.330777 0.165257
H36   H     H_    0.837955 0.976064 0.337513 0.173593

loop_
_geom_bond_atom_site_label_1
_geom_bond_atom_site_label_2
_ccdc_geom_bond_type
C27   O7    A    
C39   H30   S    
Cu1   O5    S    
C27   C29   S    
C8    O18   S    
C38   H27   S    
C4    C8    A    
O22   H33   S    
O20   H29   S    
C14   O23   S    
C21   H2    S    
C33   H7    S    
C11   C19   S    
C34   H13   S    
Cu2   N1    S    
Cu1   O1    S    
C34   H12   S    
C38   H26   S    
C3    C7    A    
C30   C31   A    
C20   N1    A    
C22   N2    A    
C15   C16   A    
C2    C32   A    
C18   C19   S    
O21   C39   S    
C38   H25   S    
C1    O2    A    
C32   O20   S    
C31   C32   A    
C16   C17   A    
C35   H15   S    
C26   O16   S    
C28   O17   S    
C18   H1    S    
C9    C29   A    
O12   C34   S    
C39   H31   S    
C23   O5    A    
C21   C22   A    
C24   N2    A    
C36   H20   S    
Cu1   Cu2   S    
C33   H8    S    
C6    O15   S    
C23   O6    A    
Cu2   O2    S    
C20   C24   A    
C24   C25   S    
C36   H19   S    
C37   H23   S    
O17   C37   S    
C36   H18   S    
O9    H6    S    
C25   C26   S    
C22   H3    S    
C40   H36   S    
C34   H11   S    
C2    C4    A    
C25   H4    S    
C5    C28   A    
C10   C30   A    
C18   O11   S    
O18   C38   S    
C19   O13   S    
C35   H16   S    
C40   H35   S    
C17   C18   S    
Cu2   O4    S    
C15   O10   S    
O16   H21   S    
C10   C12   S    
C31   O21   S    
C39   H32   S    
C1    C13   S    
C8    C29   A    
C30   O19   S    
O10   C33   S    
C33   H9    S    
C26   O14   S    
C11   C17   A    
Cu2   O8    S    
C7    O22   S    
Cu1   O3    S    
C9    O9    S    
C12   O4    A    
C37   H24   S    
C6    C7    A    
C16   C23   S    
O23   C40   S    
C19   O12   S    
O13   C35   S    
C2    C3    A    
Cu1   N2    S    
O15   C36   S    
C12   O3    A    
C3    C10   A    
C25   H5    S    
C11   C13   A    
O11   H10   S    
C5    C6    A    
C21   N1    A    
C20   C26   S    
C40   H34   S    
O14   H17   S    
C37   H22   S    
C1    O1    A    
C4    C5    A    
O19   H28   S    
C35   H14   S    
Cu1   O7    S    
C14   C15   A    
Cu2   O6    S    
C13   C14   A    
C27   O8    A    
C9    C28   A    
