data_mof_unit_20721.cif
_audit_creation_date              2013-03-05T15:51:49-0500
_audit_creation_method            fapswitch 2.2
_symmetry_space_group_name_H-M    P1
_symmetry_Int_Tables_number       1
_space_group_crystal_system       triclinic
_cell_length_a                    15.855594
_cell_length_b                    10.836533
_cell_length_c                    9.586007
_cell_angle_alpha                 90.491107
_cell_angle_beta                  90.050077
_cell_angle_gamma                 92.410535
_cell_volume                      1645.54536453

loop_
_atom_site_label
_atom_site_type_symbol
_atom_site_description
_atom_site_fract_x
_atom_site_fract_y
_atom_site_fract_z
_atom_type_partial_charge
O1    O     O_R   0.499990 0.319640 0.618810 -0.565689
O2    O     O_R   0.500000 0.319660 0.381240 -0.588010
C1    C     C_R   0.507910 0.263340 0.499957 0.839817
O3    O     O_R   0.379070 0.499980 0.618770 -0.584782
O4    O     O_R   0.379080 0.500000 0.381190 -0.575344
C2    C     C_R   0.339860 0.499623 0.499931 0.821967
Cu1   Cu    Cu3+1 0.499990 0.499990 0.640660 0.970387
Cu2   Cu    Cu3+1 0.500010 0.500010 0.359340 0.942165
O5    O     O_R   0.500000 0.680340 0.618760 -0.622114
O6    O     O_R   0.500010 0.680360 0.381190 -0.605703
O7    O     O_R   0.620920 0.500000 0.618810 -0.546563
O8    O     O_R   0.620930 0.500020 0.381230 -0.598722
C3    C     C_R   0.495815 0.737891 0.501470 0.765260
C4    C     C_R   0.660132 0.500936 0.500076 0.846966
C5    C     C_3   0.968918 0.401905 0.569564 -0.134435
C6    C     C_3   0.024777 0.397375 0.437309 -0.161695
H1    H     H_    0.046465 0.312343 0.385685 0.133163
H2    H     H_    0.942076 0.320624 0.626483 0.150562
H3    H     H_    0.947059 0.493371 0.259619 0.139165
C7    C     C_1   0.250018 0.499893 0.499867 -0.182616
C8    C     C_1   0.749938 0.501390 0.500223 -0.111304
C9    C     C_3   0.028262 0.505150 0.632369 -0.158452
C10   C     C_3   0.082590 0.500622 0.500107 0.186838
C11   C     C_3   0.975112 0.604561 0.563132 -0.163427
C12   C     C_3   0.917321 0.501313 0.500325 0.182109
C13   C     C_3   0.030978 0.600033 0.430872 -0.158918
C14   C     C_3   0.971638 0.496785 0.368073 -0.156830
C15   C     C_1   0.174376 0.500209 0.499956 -0.075342
C16   C     C_1   0.825565 0.501492 0.500316 -0.049013
H4    H     H_    0.057771 0.681334 0.373940 0.131872
H5    H     H_    0.953381 0.689571 0.614757 0.132921
H6    H     H_    0.052813 0.508572 0.740837 0.133235
H7    H     H_    0.498863 0.109741 0.277945 0.162220
C17   C     C_R   0.567236 0.121101 0.750811 0.355619
C18   C     C_R   0.550273 0.066575 0.880495 -0.217919
H8    H     H_    0.574813 0.108578 0.975888 0.176791
C19   C     C_R   0.503070 0.955948 0.887889 -0.222937
H9    H     H_    0.487768 0.916153 0.988453 0.157668
C20   C     C_R   0.479986 0.892430 0.765882 -0.167459
H10   H     H_    0.442641 0.807670 0.777837 0.174263
C21   C     C_R   0.501371 0.941546 0.633492 0.050903
C22   C     C_R   0.530819 0.065843 0.627935 -0.011549
C23   C     C_R   0.519235 0.129903 0.501091 -0.071759
C24   C     C_R   0.504803 0.063406 0.376965 -0.207203
H11   H     H_    0.490259 0.886987 0.280162 0.162812
C25   C     C_R   0.496825 0.936016 0.378832 -0.213546
C26   C     C_R   0.494236 0.873188 0.506005 -0.085462
H12   H     H_    0.406141 0.358215 0.127695 0.131731
C27   C     C_R   0.611407 0.665392 0.145576 -0.149831
H13   H     H_    0.617744 0.672412 0.255480 0.197369
C28   C     C_R   0.665132 0.746983 0.074000 -0.216622
H14   H     H_    0.707397 0.810437 0.130761 0.157424
C29   C     C_R   0.665118 0.746765 0.930329 -0.185827
H15   H     H_    0.707230 0.810304 0.874634 0.157996
C30   C     C_R   0.611319 0.665165 0.857384 -0.120133
H16   H     H_    0.616948 0.672462 0.747570 0.190600
C31   C     C_R   0.554598 0.581391 0.925934 0.223496
C32   C     C_R   0.554620 0.581415 0.075584 0.213419
N1    N     N_R   0.500800 0.501210 0.147910 -0.197092
C33   C     C_R   0.448402 0.422096 0.073094 -0.060230
H17   H     H_    0.406201 0.358235 0.869129 0.129460
C34   C     C_R   0.448413 0.422136 0.925127 -0.031088
N2    N     N_R   0.500830 0.501290 0.852040 -0.189322
N3    N     N_R   0.629362 0.221513 0.743440 0.131467
O9    O     O_R   0.644061 0.293253 0.851128 -0.365531
O10   O     O_R   0.679265 0.231215 0.636004 -0.397197

loop_
_geom_bond_atom_site_label_1
_geom_bond_atom_site_label_2
_geom_bond_distance
_ccdc_geom_bond_type
C5    H2    1.109854 S    
C28   C29   1.377215 A    
C23   C24   1.399419 A    
H12   C33   1.081644 S    
C34   N2    1.366998 A    
C12   C14   1.534850 S    
H3    C14   1.109748 S    
C21   C22   1.408360 A    
C18   H8    1.082639 S    
C17   C22   1.427250 A    
Cu2   O8    1.928520 S    
C1    C23   1.464717 S    
N3    O9    1.301885 A    
C6    C14   1.548710 S    
C17   N3    1.438943 S    
O2    C1    1.304373 A    
C31   C32   1.434536 A    
C11   H5    1.109700 S    
N1    C33   1.366789 A    
C19   C20   1.392795 A    
C30   C31   1.416818 A    
O1    Cu1   1.963775 S    
H11   C25   1.083662 S    
C31   N2    1.381363 A    
Cu1   O7    1.928999 S    
Cu1   N2    2.026248 S    
C13   C14   1.548675 S    
C19   H9    1.082994 S    
C24   C25   1.381204 A    
C9    H6    1.109713 S    
O3    Cu1   1.928522 S    
O4    C2    1.297481 A    
C4    C8    1.423738 S    
O3    C2    1.297211 A    
C3    C26   1.467693 S    
C18   C19   1.388670 A    
O8    C4    1.297079 A    
C13   H4    1.109802 S    
C6    C10   1.534814 S    
C9    C10   1.535021 S    
C29   C30   1.386867 A    
Cu2   N1    2.026969 S    
C12   C16   1.454918 S    
H17   C34   1.081492 S    
C17   C18   1.402391 A    
O7    C4    1.297310 A    
C9    C11   1.548826 S    
C30   H16   1.059880 S    
C5    C12   1.534836 S    
O4    Cu2   1.929001 S    
C22   C23   1.420884 A    
C5    C6    1.548773 S    
C21   C26   1.425558 A    
Cu1   Cu2   2.696738 S    
C2    C7    1.424629 S    
C11   C12   1.534671 S    
C20   C21   1.416335 A    
C33   C34   1.418420 A    
C27   H13   1.060011 S    
C5    C9    1.548697 S    
C10   C13   1.534969 S    
C20   H10   1.078689 S    
Cu1   O5    1.967393 S    
O5    C3    1.293394 A    
C25   C26   1.401201 A    
C7    C15   1.199491 T    
C27   C28   1.387888 A    
C32   N1    1.383218 A    
C10   C15   1.455522 S    
H7    C24   1.083501 S    
C8    C16   1.199060 T    
Cu2   O6    1.963775 S    
O2    Cu2   1.967394 S    
C27   C32   1.417227 A    
C28   H14   1.082661 S    
C29   H15   1.083155 S    
C11   C13   1.548878 S    
C6    H1    1.109663 S    
O1    C1    1.296468 A    
O6    C3    1.309123 A    
N3    O10   1.301570 A    
