data_mof_unit_20522.cif
_audit_creation_date              2012-10-26T20:21:16-0400
_audit_creation_method            fapswitch 2.2
_symmetry_space_group_name_H-M    P1
_symmetry_Int_Tables_number       1
_space_group_crystal_system       triclinic
_cell_length_a                    9.520538
_cell_length_b                    10.834006
_cell_length_c                    15.500524
_cell_angle_alpha                 89.879368
_cell_angle_beta                  74.499044
_cell_angle_gamma                 90.01025
_cell_volume                      1540.65131153

loop_
_atom_site_label
_atom_site_type_symbol
_atom_type_description
_atom_site_fract_x
_atom_site_fract_y
_atom_site_fract_z
_atom_type_partial_charge
C1    C     C_R   0.999927 0.262075 0.500071 0.551587
C2    C     C_R   0.127707 0.063890 0.499821 -0.139173
C3    C     C_R   0.000051 0.871781 0.499940 0.019991
C4    C     C_R   0.999934 0.128224 0.500096 0.020209
C5    C     C_R   0.548603 0.428148 0.559010 0.009284
C6    C     C_R   0.451392 0.571869 0.441005 0.009430
C7    C     C_R   0.399784 0.428255 0.559032 0.007187
C8    C     C_R   0.600210 0.571756 0.440979 0.007091
C9    C     C_R   0.918276 0.498294 0.672082 0.548310
C10   C     C_R   0.081726 0.500433 0.327852 0.548151
C11   C     C_R   0.872799 0.485593 0.769793 -0.000708
C12   C     C_R   0.000067 0.737926 0.499943 0.551774
C13   C     C_R   0.126624 0.502821 0.229628 -0.001402
C14   C     C_R   0.918000 0.417711 0.908431 -0.144350
C15   C     C_R   0.074943 0.539426 0.087425 -0.142186
C16   C     C_R   0.968981 0.442476 0.817229 -0.140784
C17   C     C_R   0.027030 0.529463 0.180193 -0.139238
C18   C     C_R   0.726634 0.506440 0.814584 -0.133926
C19   C     C_R   0.273244 0.482429 0.185313 -0.134903
C20   C     C_R   0.670962 0.477517 0.905778 0.033713
C21   C     C_R   0.323933 0.488644 0.091520 0.033336
C22   C     C_R   0.770282 0.434836 0.952960 0.049265
C23   C     C_R   0.576024 0.424987 0.089364 -0.140585
C24   C     C_R   0.222298 0.520411 0.042900 0.049884
C25   C     C_R   0.520081 0.489557 0.951104 0.034028
C26   C     C_R   0.473010 0.468088 0.045154 0.033101
C27   C     C_R   0.414285 0.519516 0.905243 -0.139347
C28   C     C_R   0.721295 0.408261 0.043847 -0.139972
C29   C     C_R   0.268570 0.534029 0.950433 -0.139912
C30   C     C_R   0.872206 0.063817 0.500326 -0.138486
C31   C     C_R   0.127776 0.936188 0.499720 -0.138593
C32   C     C_R   0.872274 0.936116 0.500224 -0.139141
Cu1   Cu    Cu3+1 0.140660 0.500020 0.500000 0.933258
Cu2   Cu    Cu3+1 0.859340 0.499980 0.500000 0.933565
H1    H     H_    0.796055 0.374283 0.080320 0.111603
H2    H     H_    0.227693 0.888195 0.499467 0.128696
H3    H     H_    0.772412 0.888066 0.500384 0.128539
H4    H     H_    0.227569 0.111941 0.499661 0.128397
H5    H     H_    0.583990 0.370356 0.606187 0.109822
H6    H     H_    0.415995 0.629683 0.393845 0.109429
H7    H     H_    0.323057 0.370693 0.606249 0.103069
H8    H     H_    0.676933 0.629331 0.393773 0.104020
H9    H     H_    0.993585 0.382767 0.943894 0.112029
H10   H     H_    0.997031 0.563938 0.050549 0.114287
H11   H     H_    0.191699 0.557647 0.912555 0.111518
H12   H     H_    0.346533 0.465407 0.226064 0.120371
H13   H     H_    0.658787 0.545694 0.776206 0.119621
H14   H     H_    0.913176 0.545974 0.213281 0.123957
H15   H     H_    0.082372 0.424961 0.783531 0.121029
H16   H     H_    0.547755 0.399507 0.159029 0.103833
H17   H     H_    0.439201 0.529763 0.833677 0.101445
H18   H     H_    0.772288 0.111811 0.500579 0.128600
N1    N     N_R   0.352080 0.500030 0.499980 -0.224049
N2    N     N_R   0.647920 0.499970 0.500020 -0.224225
O1    O     O_R   0.118740 0.319660 0.500000 -0.507737
O2    O     O_R   0.881260 0.680340 0.500000 -0.507387
O3    O     O_R   0.881170 0.319630 0.500010 -0.506393
O4    O     O_R   0.118830 0.680370 0.499990 -0.506102
O5    O     O_R   0.055570 0.500030 0.629830 -0.503148
O6    O     O_R   0.944430 0.499970 0.370170 -0.503510
O7    O     O_R   0.818000 0.500000 0.629840 -0.508603
O8    O     O_R   0.182000 0.500000 0.370160 -0.509569

loop_
_geom_bond_atom_site_label_1
_geom_bond_atom_site_label_2
_ccdc_geom_bond_type
Cu1   O1    S    
Cu2   O3    S    
C2    C4    A    
C21   C26   A    
C11   C18   A    
Cu2   O2    S    
Cu1   O4    S    
C1    O3    A    
C27   C29   A    
C20   C22   A    
C11   C16   A    
C2    H4    S    
C10   O6    A    
C17   H14   S    
C13   C17   A    
C3    C31   A    
C1    C4    S    
C12   O4    A    
C18   H13   S    
C14   C22   A    
C5    H5    S    
Cu1   Cu2   S    
C1    O1    A    
C19   H12   S    
C4    C30   A    
Cu1   O5    S    
C22   C28   A    
C23   C28   A    
C10   O8    A    
Cu2   O6    S    
C9    C11   S    
C12   O2    A    
C9    O7    A    
C2    C31   A    
C15   C24   A    
C19   C21   A    
C8    H8    S    
C15   H10   S    
Cu2   N2    S    
C18   C20   A    
C7    H7    S    
Cu1   N1    S    
C3    C32   A    
C14   C16   A    
C21   C24   A    
C25   C27   A    
C20   C25   A    
C7    N1    A    
C6    N1    A    
C30   C32   A    
C5    N2    A    
C6    H6    S    
C16   H15   S    
C5    C7    A    
C23   C26   A    
C8    N2    A    
C15   C17   A    
C13   C19   A    
C30   H18   S    
C31   H2    S    
Cu1   O8    S    
C23   H16   S    
C6    C8    A    
C3    C12   S    
C25   C26   A    
C24   C29   A    
C32   H3    S    
Cu2   O7    S    
C29   H11   S    
C28   H1    S    
C27   H17   S    
C14   H9    S    
C9    O5    A    
C10   C13   S    
