data_mof_unit_53438.cif
_audit_creation_date              2012-12-11T14:41:15-0500
_audit_creation_method            fapswitch 2.2
_symmetry_space_group_name_H-M    P1
_symmetry_Int_Tables_number       1
_space_group_crystal_system       triclinic
_cell_length_a                    6.938329
_cell_length_b                    18.336752
_cell_length_c                    18.778564
_cell_angle_alpha                 89.999971
_cell_angle_beta                  89.999955
_cell_angle_gamma                 89.853972
_cell_volume                      2389.1216765

loop_
_atom_site_label
_atom_site_type_symbol
_atom_type_description
_atom_site_fract_x
_atom_site_fract_y
_atom_site_fract_z
_atom_type_partial_charge
O1    O     O_R   0.377350 0.828520 0.186660 -0.546682
O2    O     O_R   0.622650 0.171480 0.813340 -0.521865
O3    O     O_R   0.122650 0.171480 0.686660 -0.546681
O4    O     O_R   0.877350 0.828520 0.313340 -0.521868
O5    O     O_R   0.877350 0.671480 0.313340 -0.536804
O6    O     O_R   0.122650 0.328520 0.686660 -0.537586
O7    O     O_R   0.622650 0.328520 0.813340 -0.536806
O8    O     O_R   0.377350 0.671480 0.186660 -0.537587
O9    O     O_R   0.707090 0.671930 0.178410 -0.533237
O10   O     O_R   0.292910 0.328070 0.821590 -0.534819
O11   O     O_R   0.792910 0.328070 0.678410 -0.533237
O12   O     O_R   0.207090 0.671930 0.321590 -0.534818
O13   O     O_R   0.207090 0.828070 0.321590 -0.512243
O14   O     O_R   0.792910 0.171930 0.678410 -0.513743
O15   O     O_R   0.292910 0.171930 0.821590 -0.512247
O16   O     O_R   0.707090 0.828070 0.178410 -0.513743
C1    C     C_R   0.538706 0.646305 0.161184 0.817818
C2    C     C_R   0.461260 0.353672 0.838827 0.812828
C3    C     C_R   0.961294 0.353695 0.661184 0.817820
C4    C     C_R   0.038739 0.646328 0.338828 0.812832
C5    C     C_R   0.038448 0.852836 0.339655 0.797456
C6    C     C_R   0.961533 0.147018 0.660553 0.806795
C7    C     C_R   0.461551 0.147164 0.839655 0.797459
C8    C     C_R   0.538467 0.852982 0.160553 0.806796
O17   O     O_3   0.543850 0.750000 0.294270 -0.360813
O18   O     O_3   0.456150 0.250000 0.705730 -0.372820
O19   O     O_3   0.956150 0.250000 0.794270 -0.360814
O20   O     O_3   0.043850 0.750000 0.205730 -0.372821
V1    V     V_3+5 0.818700 0.750000 0.241790 1.696870
V2    V     V_3+5 0.181300 0.250000 0.758210 1.690578
V3    V     V_3+5 0.681300 0.250000 0.741790 1.696871
V4    V     V_3+5 0.318700 0.750000 0.258210 1.690580
C9    C     C_R   0.964761 0.415152 0.608548 -0.364157
C10   C     C_R   0.035428 0.584978 0.391562 -0.364204
C11   C     C_R   0.535240 0.584848 0.108548 -0.364156
C12   C     C_R   0.464571 0.415022 0.891562 -0.364204
C13   C     C_R   0.464020 0.086063 0.892482 -0.321728
C14   C     C_R   0.535838 0.914270 0.108026 -0.332670
C15   C     C_R   0.035980 0.913937 0.392482 -0.321730
C16   C     C_R   0.964162 0.085730 0.608026 -0.332667
C17   C     C_R   0.194173 0.475331 0.435844 0.678092
C18   C     C_R   0.806321 0.524941 0.564394 0.674666
C19   C     C_R   0.305825 0.524668 0.935844 0.678090
C20   C     C_R   0.693681 0.475059 0.064393 0.674664
C21   C     C_R   0.710390 0.018009 0.059627 0.618510
C22   C     C_R   0.289604 0.982386 0.941272 0.648121
C23   C     C_R   0.789605 0.981992 0.559626 0.618515
C24   C     C_R   0.210401 0.017612 0.441274 0.648124
C25   C     C_R   0.176875 0.530686 0.385464 0.607370
C26   C     C_R   0.823508 0.469513 0.614726 0.607065
C27   C     C_R   0.323124 0.469313 0.885464 0.607375
C28   C     C_R   0.676493 0.530487 0.114726 0.607069
C29   C     C_R   0.683747 0.965939 0.112440 0.619784
C30   C     C_R   0.313445 0.035294 0.889131 0.628025
C31   C     C_R   0.816250 0.034061 0.612440 0.619783
C32   C     C_R   0.186561 0.964704 0.389133 0.628028
C33   C     C_R   0.899001 0.579772 0.447842 -0.117876
C34   C     C_R   0.101355 0.420477 0.552335 -0.115041
C35   C     C_R   0.600999 0.420228 0.947842 -0.117874
C36   C     C_R   0.398645 0.579523 0.052335 -0.115039
C37   C     C_R   0.405166 0.918200 0.049939 -0.227416
C38   C     C_R   0.597419 0.081435 0.949836 -0.213726
C39   C     C_R   0.094835 0.081800 0.549940 -0.227413
C40   C     C_R   0.902576 0.918566 0.449835 -0.213723
C41   C     C_R   0.924360 0.526301 0.502822 -0.199155
C42   C     C_R   0.075983 0.473953 0.497374 -0.199118
C43   C     C_R   0.575641 0.473699 0.002821 -0.199155
C44   C     C_R   0.424016 0.526047 0.997374 -0.199117
C45   C     C_R   0.422931 0.974873 0.997950 -0.147225
C46   C     C_R   0.578549 0.025200 0.002332 -0.185059
C47   C     C_R   0.077070 0.025126 0.497951 -0.147226
C48   C     C_R   0.921448 0.974801 0.502331 -0.185056
C49   C     C_2   0.273592 0.372737 0.553097 1.005295
O21   O     O_2   0.255173 0.306733 0.554959 -0.538056
O22   O     O_R   0.457407 0.403506 0.552072 -0.610192
H1    H     H_    0.563010 0.365189 0.551449 0.303875
C50   C     C_2   0.727197 0.627752 0.447139 0.998174
O23   O     O_2   0.746312 0.693717 0.444659 -0.550139
O24   O     O_R   0.543048 0.597267 0.448625 -0.608668
H2    H     H_    0.437810 0.635731 0.449043 0.300983
C51   C     C_2   0.226410 0.627263 0.053097 1.005298
O25   O     O_2   0.244830 0.693267 0.054957 -0.538056
O26   O     O_R   0.042594 0.596495 0.052075 -0.610191
H3    H     H_    0.936993 0.634812 0.051450 0.303876
C52   C     C_2   0.772801 0.372247 0.947138 0.998174
O27   O     O_2   0.753682 0.306282 0.944662 -0.550133
O28   O     O_R   0.956951 0.402732 0.948621 -0.608668
H4    H     H_    0.062186 0.364267 0.949039 0.300983
C53   C     C_2   0.742712 0.139609 0.959662 1.030697
O29   O     O_2   0.877738 0.144819 0.918346 -0.481849
O30   O     O_R   0.733421 0.185838 0.018795 -0.574711
H5    H     H_    0.614078 0.177619 0.048843 0.299694
C54   C     C_2   0.265176 0.858618 0.038726 1.036100
O31   O     O_2   0.287393 0.817642 0.988153 -0.444080
O32   O     O_R   0.102095 0.851379 0.081686 -0.615001
H6    H     H_    0.093151 0.891057 0.119049 0.309798
C55   C     C_2   0.757270 0.860396 0.459657 1.030695
O33   O     O_2   0.622245 0.855192 0.418339 -0.481843
O34   O     O_R   0.766546 0.814164 0.518789 -0.574713
H7    H     H_    0.885890 0.822379 0.548838 0.299696
C56   C     C_2   0.234826 0.141381 0.538726 1.036100
O35   O     O_2   0.212609 0.182357 0.488152 -0.444082
O36   O     O_R   0.397906 0.148621 0.581686 -0.614999
H8    H     H_    0.406849 0.108943 0.619050 0.309801
F1    F     F_    0.702095 0.470103 0.671541 -0.597644
F2    F     F_    0.298367 0.530082 0.328672 -0.597467
F3    F     F_    0.797907 0.529897 0.171540 -0.597643
F4    F     F_    0.201631 0.469918 0.828672 -0.597466
F5    F     F_    0.183351 0.037600 0.835024 -0.593759
F6    F     F_    0.808287 0.965264 0.168312 -0.624802
F7    F     F_    0.316660 0.962397 0.335027 -0.593755
F8    F     F_    0.691709 0.034737 0.668311 -0.624803
F9    F     F_    0.325230 0.422143 0.421945 -0.588186
F10   F     F_    0.675555 0.578205 0.578377 -0.592715
F11   F     F_    0.174766 0.577856 0.921946 -0.588187
F12   F     F_    0.824450 0.421796 0.078376 -0.592715
F13   F     F_    0.871504 0.059481 0.064922 -0.616587
F14   F     F_    0.128951 0.940573 0.936296 -0.596777
F15   F     F_    0.628488 0.940522 0.564920 -0.616588
F16   F     F_    0.371058 0.059423 0.436300 -0.596779

loop_
_geom_bond_atom_site_label_1
_geom_bond_atom_site_label_2
_ccdc_geom_bond_type
C29   F6    S    
C50   O23   D    
O28   H4    S    
C9    C34   A    
C31   F8    S    
C49   O21   D    
O13   V4    S    
O32   H6    S    
O14   V3    S    
C39   C56   S    
C12   C35   A    
C13   C38   A    
C24   F16   S    
O5    C4    A    
C52   O27   D    
C15   C40   A    
O11   C3    A    
C56   O35   D    
C16   C39   A    
O20   V1    S    
C37   C54   S    
C37   C45   A    
C38   C53   S    
C35   C43   A    
C38   C46   A    
C22   C45   A    
C19   F11   S    
C34   C42   A    
O34   H7    S    
C28   F3    S    
C19   C44   A    
C18   C41   A    
C8    C14   S    
C53   O30   S    
C32   F7    S    
O4    V1    S    
O9    V1    S    
C14   C37   A    
C4    C10   S    
C20   C28   A    
O17   V4    S    
O15   C7    A    
O11   V3    S    
O18   V3    S    
O16   C8    A    
O12   V4    S    
O19   V2    S    
C49   O22   S    
O12   C4    A    
C17   C25   A    
C51   O26   S    
C18   F10   S    
C55   O33   D    
O5    V1    S    
O2    C7    A    
C52   O28   S    
O17   V1    S    
O7    V3    S    
O19   V3    S    
C43   C44   A    
O8    V4    S    
C33   C50   S    
O20   V4    S    
C55   O34   S    
C17   F9    S    
O30   H5    S    
C27   F4    S    
C9    C26   A    
C7    C13   S    
O1    V4    S    
C51   O25   D    
C30   F5    S    
C11   C36   A    
O3    V2    S    
O22   H1    S    
C35   C52   S    
O6    C3    A    
C26   F1    S    
C36   C51   S    
O10   V2    S    
O26   H3    S    
C5    C15   S    
O7    C2    A    
C6    C16   S    
C22   C30   A    
C50   O24   S    
O13   C5    A    
C54   O31   D    
C20   F12   S    
C25   F2    S    
C12   C27   A    
C18   C26   A    
C13   C30   A    
O9    C1    A    
C40   C55   S    
O6    V2    S    
C39   C47   A    
O18   V2    S    
C3    C9    S    
C22   F14   S    
C24   C47   A    
C15   C32   A    
C11   C28   A    
O15   V2    S    
C23   C31   A    
C21   F13   S    
C24   C32   A    
C10   C25   A    
C21   C46   A    
C33   C41   A    
C20   C43   A    
C16   C31   A    
C17   C42   A    
O8    C1    A    
O14   C6    A    
O16   V1    S    
C47   C48   A    
O4    C5    A    
C19   C27   A    
C54   O32   S    
C14   C29   A    
O10   C2    A    
C10   C33   A    
C23   F15   S    
C40   C48   A    
C45   C46   A    
C23   C48   A    
C21   C29   A    
O24   H2    S    
C36   C44   A    
O1    C8    A    
C56   O36   S    
C41   C42   A    
O36   H8    S    
O2    V3    S    
O3    C6    A    
C1    C11   S    
C53   O29   D    
C2    C12   S    
C34   C49   S    
