data_mof_unit_36381.cif
_audit_creation_date              2012-10-26T19:46:56-0400
_audit_creation_method            fapswitch 2.2
_symmetry_space_group_name_H-M    P1
_symmetry_Int_Tables_number       1
_space_group_crystal_system       triclinic
_cell_length_a                    10.831979
_cell_length_b                    9.574876
_cell_length_c                    15.99198
_cell_angle_alpha                 89.994381
_cell_angle_beta                  90.15305
_cell_angle_gamma                 89.998346
_cell_volume                      1658.59997288

loop_
_atom_site_label
_atom_site_type_symbol
_atom_type_description
_atom_site_fract_x
_atom_site_fract_y
_atom_site_fract_z
_atom_type_partial_charge
C1    C     C_R   0.871714 0.499999 0.500043 0.027963
C2    C     C_R   0.500548 0.371859 0.956167 0.196588
C3    C     C_R   0.500260 0.499793 0.912588 -0.054965
C4    C     C_R   0.500224 0.499786 0.087413 -0.055384
C5    C     C_1   0.500221 0.499856 0.822616 0.138574
C6    C     C_1   0.500091 0.499878 0.177380 0.137881
C7    C     C_1   0.499993 0.499975 0.252448 0.093491
C8    C     C_1   0.500175 0.499939 0.747549 0.094197
C9    C     C_R   0.423928 0.074226 0.447689 0.028210
C10   C     C_R   0.576060 0.925780 0.552316 0.023161
C11   C     C_R   0.576049 0.074203 0.552326 0.024167
C12   C     C_R   0.128285 0.500001 0.499900 0.028003
C13   C     C_R   0.423917 0.925803 0.447700 0.026876
C14   C     C_R   0.063871 0.373093 0.499914 -0.118801
C15   C     C_R   0.936128 0.626907 0.500008 -0.119026
C16   C     C_R   0.936136 0.373091 0.500012 -0.118696
C17   C     C_R   0.063864 0.626909 0.499919 -0.118908
C18   C     C_R   0.262220 0.500001 0.499927 0.553685
C19   C     C_R   0.737780 0.499999 0.500053 0.553639
C20   C     C_R   0.499921 0.500001 0.341440 0.555412
C21   C     C_R   0.500107 0.499989 0.658559 0.555352
C22   C     C_R   0.500005 0.627697 0.956167 0.196349
C23   C     C_R   0.482231 0.373351 0.043820 0.197161
C24   C     C_R   0.518337 0.626175 0.043864 0.196699
Cu1   Cu    Cu3+1 0.500000 0.640660 0.500000 0.980880
Cu2   Cu    Cu3+1 0.500000 0.359340 0.500000 0.983622
H1    H     H_    0.362811 0.129764 0.405659 0.119480
H2    H     H_    0.623690 0.153331 0.787086 0.371163
H3    H     H_    0.375431 0.846548 0.787259 0.378743
H4    H     H_    0.336927 0.178889 0.215041 0.367601
H5    H     H_    0.637183 0.870247 0.594338 0.126577
H6    H     H_    0.637148 0.129722 0.594369 0.121436
H7    H     H_    0.362772 0.870286 0.405694 0.126049
H8    H     H_    0.111873 0.273840 0.499866 0.137199
H9    H     H_    0.888127 0.726160 0.500047 0.137054
H10   H     H_    0.888140 0.273839 0.500058 0.137474
H11   H     H_    0.111860 0.726162 0.499879 0.137136
H12   H     H_    0.666241 0.820530 0.214659 0.376184
N1    N     N_R   0.500000 0.852070 0.500000 -0.231394
N2    N     N_R   0.500000 0.147930 0.500000 -0.228805
O1    O     O_R   0.319640 0.618740 0.499990 -0.509875
O2    O     O_2   0.455687 0.853454 0.131719 -0.214133
O3    O     O_3   0.658078 0.733906 0.181232 -0.540781
O4    O     O_2   0.591662 0.110233 0.957483 -0.104620
O5    O     O_2   0.410101 0.155651 0.868963 -0.226420
O6    O     O_3   0.624961 0.241702 0.819295 -0.543770
O7    O     O_2   0.409024 0.889359 0.957333 -0.104536
O8    O     O_2   0.590134 0.843859 0.869051 -0.233147
O9    O     O_3   0.375005 0.757834 0.819139 -0.538100
O10   O     O_2   0.359693 0.126903 0.043779 -0.125699
O11   O     O_2   0.545550 0.145962 0.131581 -0.208900
O12   O     O_R   0.680360 0.381260 0.500010 -0.509233
O13   O     O_3   0.343322 0.265068 0.181043 -0.545810
O14   O     O_R   0.680360 0.618740 0.500010 -0.509998
O15   O     O_R   0.319640 0.381260 0.499990 -0.509643
O16   O     O_R   0.499970 0.618750 0.380310 -0.491572
O17   O     O_R   0.500030 0.381250 0.619690 -0.490131
O18   O     O_R   0.500030 0.618750 0.619690 -0.491033
O19   O     O_R   0.499970 0.381250 0.380310 -0.490559
O20   O     O_2   0.641045 0.872521 0.044082 -0.125463
S1    S     S_3+6 0.567566 0.777829 0.099701 0.107988
S2    S     S_3+6 0.530194 0.213856 0.900811 0.108405
S3    S     S_3+6 0.470187 0.785708 0.900760 0.107120
S4    S     S_3+6 0.433406 0.221545 0.099539 0.107882

loop_
_geom_bond_atom_site_label_1
_geom_bond_atom_site_label_2
_ccdc_geom_bond_type
C12   C17   A    
C14   H8    S    
C5    C8    T    
C13   H7    S    
C6    C7    T    
C1    C15   A    
Cu2   O12   S    
O10   S4    D    
Cu2   O19   S    
Cu1   O16   S    
C20   O16   A    
H2    O6    S    
Cu2   O15   S    
C2    C3    A    
Cu1   Cu2   S    
C21   O18   A    
C1    C16   A    
H3    O9    S    
H4    O13   S    
C16   H10   S    
C20   O19   A    
C21   O17   A    
O2    S1    D    
Cu2   N2    S    
C24   S1    S    
C18   O15   A    
O6    S2    S    
O9    S3    S    
C19   O12   A    
C19   O14   A    
C15   H9    S    
C23   S4    S    
Cu2   O17   S    
C12   C14   A    
C11   H6    S    
C8    C21   S    
C22   C24   A    
C9    N2    A    
O7    S3    D    
C11   N2    A    
C4    C24   A    
O13   S4    S    
C14   C16   A    
C1    C19   S    
C13   N1    A    
C10   C11   A    
Cu1   O1    S    
C3    C5    S    
O5    S2    D    
H12   O3    S    
Cu1   O14   S    
C9    H1    S    
C4    C6    S    
C7    C20   S    
Cu1   O18   S    
C18   O1    A    
C12   C18   S    
C2    C23   A    
C15   C17   A    
C4    C23   A    
C9    C13   A    
C10   N1    A    
C3    C22   A    
C17   H11   S    
O4    S2    D    
C22   S3    S    
C10   H5    S    
O3    S1    S    
Cu1   N1    S    
O11   S4    D    
C2    S2    S    
O20   S1    D    
O8    S3    D    
