data_mof_unit_56785.cif
_audit_creation_date              2012-10-26T20:03:01-0400
_audit_creation_method            fapswitch 2.2
_symmetry_space_group_name_H-M    P1
_symmetry_Int_Tables_number       1
_space_group_crystal_system       triclinic
_cell_length_a                    10.76553
_cell_length_b                    12.275368
_cell_length_c                    13.414474
_cell_angle_alpha                 116.44329
_cell_angle_beta                  77.226116
_cell_angle_gamma                 101.556663
_cell_volume                      1537.4070743

loop_
_atom_site_label
_atom_site_type_symbol
_atom_type_description
_atom_site_fract_x
_atom_site_fract_y
_atom_site_fract_z
_atom_type_partial_charge
Br1   Br    Br    0.039460 0.818497 0.600795 -0.516798
Br2   Br    Br    0.520916 0.439734 0.766591 -0.511955
Br3   Br    Br    0.148071 0.668709 0.792370 -0.429391
Br4   Br    Br    0.213247 0.146583 0.352933 -0.483403
Br5   Br    Br    0.842141 0.242883 0.689650 -0.415525
C1    C     C_R   0.514876 0.854475 0.287749 0.517847
C2    C     C_R   0.543209 0.560416 0.025109 0.049637
C3    C     C_R   0.488523 0.645369 0.130148 0.024342
C4    C     C_R   0.739838 0.998345 0.497791 0.563584
C5    C     C_R   0.487049 0.436976 0.983480 0.045640
C6    C     C_R   0.404205 0.393121 0.058611 0.023852
C7    C     C_R   0.352179 0.476644 0.163492 -0.121858
C8    C     C_R   0.385065 0.601691 0.193993 -0.110309
C9    C     C_R   0.499361 0.359926 0.867858 0.159843
C10   C     C_R   0.402848 0.186587 0.913012 -0.141240
C11   C     C_R   0.541896 0.770259 0.169366 0.009179
C12   C     C_3   0.122029 0.999079 0.496930 -0.006828
C13   C     C_R   0.708634 0.350408 0.333820 -0.121937
C14   C     C_R   0.327677 0.759460 0.645661 0.105572
C15   C     C_R   0.288199 0.660657 0.674469 0.165671
C16   C     C_R   0.480935 0.146281 0.712755 0.605938
C17   C     C_R   0.351310 0.555942 0.617306 -0.059094
C18   C     C_R   0.455783 0.549162 0.531024 -0.020368
C19   C     C_R   0.492028 0.652434 0.504049 0.166228
C20   C     C_R   0.527110 0.445312 0.472159 0.018451
C21   C     C_R   0.634143 0.448169 0.389626 0.046231
C22   C     C_R   0.666769 0.548761 0.363563 -0.157913
C23   C     C_3   0.062205 0.095833 0.613298 -0.035185
C24   C     C_R   0.597045 0.648153 0.419063 -0.088002
C25   C     C_R   0.498353 0.338464 0.492120 0.124720
C26   C     C_R   0.677656 0.250079 0.360265 0.070881
C27   C     C_R   0.260344 0.997976 0.496616 0.565760
C28   C     C_3   0.960840 0.042836 0.410068 -0.199671
C29   C     C_3   0.101068 0.021576 0.394709 0.024658
C30   C     C_3   0.914094 0.085207 0.617736 0.018902
C31   C     C_3   0.906015 0.867194 0.466101 -0.258071
C32   C     C_3   0.877192 0.999129 0.498443 -0.021985
C33   C     C_2   0.130364 0.225041 0.646341 0.636298
C34   C     C_3   0.045063 0.869548 0.479996 -0.020492
C35   C     C_R   0.367039 0.267392 0.024202 -0.121513
C36   C     C_R   0.463689 0.231736 0.832616 0.041830
C37   C     C_R   0.644081 0.808317 0.102191 -0.127218
C38   C     C_R   0.702940 0.722674 0.003123 -0.109670
C39   C     C_R   0.656784 0.599322 0.967588 -0.061469
Cu1   Cu    Cu3+1 0.529690 0.098270 0.475420 1.050005
Cu2   Cu    Cu3+1 0.470310 0.901730 0.524580 0.958336
H1    H     H_    0.954253 0.141804 0.438278 0.232995
H2    H     H_    0.925136 0.992552 0.327461 0.101970
H3    H     H_    0.329961 0.662402 0.269097 0.155144
H4    H     H_    0.735249 0.174626 0.318301 0.118257
H5    H     H_    0.747936 0.551251 0.299887 0.116411
H6    H     H_    0.790862 0.352096 0.270867 0.110932
H7    H     H_    0.416403 0.326458 0.550452 0.168947
H8    H     H_    0.279493 0.841069 0.690785 0.183079
H9    H     H_    0.317778 0.482465 0.643176 0.168561
H10   H     H_    0.630697 0.720432 0.393151 0.177347
H11   H     H_    0.118122 0.936117 0.316928 0.127278
H12   H     H_    0.866655 0.040142 0.674677 0.155730
H13   H     H_    0.838022 0.825384 0.518455 0.201146
H14   H     H_    0.891935 0.807588 0.377132 0.094471
H15   H     H_    0.090880 0.797619 0.402059 0.142484
H16   H     H_    0.235235 0.364181 0.755547 0.363017
H17   H     H_    0.075875 0.070170 0.679555 0.149036
H18   H     H_    0.373046 0.089560 0.888192 0.150905
H19   H     H_    0.280041 0.445657 0.218728 0.141277
H20   H     H_    0.308235 0.231987 0.082498 0.153919
H21   H     H_    0.686692 0.902963 0.131548 0.132499
H22   H     H_    0.711026 0.534182 0.894948 0.199078
H23   H     H_    0.787754 0.751410 0.955990 0.172273
N1    N     N_R   0.574690 0.246280 0.438200 -0.224776
N2    N     N_R   0.426100 0.754320 0.561190 -0.266318
O1    O     O_R   0.537340 0.972510 0.318130 -0.504312
O2    O     O_R   0.198146 0.276035 0.737667 -0.691684
O3    O     O_R   0.487200 0.806530 0.359650 -0.544782
O4    O     O_R   0.707380 0.082980 0.479220 -0.479665
O5    O     O_R   0.657240 0.917000 0.520740 -0.533441
O6    O     O_R   0.512800 0.193470 0.640350 -0.432393
O7    O     O_R   0.462660 0.027490 0.681870 -0.520812
O8    O     O_R   0.342760 0.083000 0.479260 -0.458745
O9    O     O_R   0.292620 0.917020 0.520780 -0.482687
O10   O     O_2   0.123868 0.285746 0.596516 -0.430652

loop_
_geom_bond_atom_site_label_1
_geom_bond_atom_site_label_2
_ccdc_geom_bond_type
C2    C5    A    
C3    C8    A    
C22   C24   A    
C14   N2    A    
C14   C15   A    
C13   C21   A    
C31   H13   S    
Cu2   O5    S    
C13   H6    S    
C2    C3    A    
Cu1   Cu2   S    
C1    O1    A    
C21   C22   A    
C30   H12   S    
C31   C32   S    
C30   C32   S    
C12   C34   S    
C19   C24   A    
C26   N1    A    
C23   C30   S    
C16   O7    A    
C29   H11   S    
C10   H18   S    
H16   O2    S    
C4    O5    A    
C38   H23   S    
C35   H20   S    
Cu1   O1    S    
C25   N1    A    
C22   H5    S    
C1    O3    A    
C34   H15   S    
C25   H7    S    
Br4   C29   S    
C10   C36   A    
C5    C9    A    
Cu2   O7    S    
C20   C21   A    
C28   C32   S    
C38   C39   A    
C27   O9    A    
C23   C33   S    
C18   C19   A    
C4    C32   S    
C28   C29   S    
Br3   C15   S    
Cu1   O8    S    
C2    C39   A    
Cu2   N2    S    
C9    C36   A    
C16   C36   S    
C14   H8    S    
C15   C17   A    
C33   O10   D    
C37   H21   S    
C28   H1    S    
C8    H3    S    
C39   H22   S    
C12   C29   S    
C26   H4    S    
C11   C37   A    
Cu2   O3    S    
C20   C25   A    
C28   H2    S    
Cu1   N1    S    
C12   C23   S    
C31   C34   S    
C31   H14   S    
C6    C7    A    
C17   H9    S    
C24   H10   S    
C7    H19   S    
Cu1   O4    S    
C27   O8    A    
Cu2   O9    S    
Br5   C30   S    
C18   C20   A    
C6    C35   A    
Br2   C9    S    
C10   C35   A    
C5    C6    A    
Br1   C34   S    
C1    C11   S    
C23   H17   S    
C7    C8    A    
C3    C11   A    
C37   C38   A    
C16   O6    A    
C12   C27   S    
C17   C18   A    
Cu1   O6    S    
C13   C26   A    
C4    O4    A    
C19   N2    A    
C33   O2    S    
