data_mof_unit_8510.cif
_audit_creation_date              2012-12-10T17:05:44-0500
_audit_creation_method            fapswitch 2.2
_symmetry_space_group_name_H-M    P1
_symmetry_Int_Tables_number       1
_space_group_crystal_system       triclinic
_cell_length_a                    15.870364
_cell_length_b                    10.856106
_cell_length_c                    9.845952
_cell_angle_alpha                 110.578709
_cell_angle_beta                  97.883684
_cell_angle_gamma                 90.986831
_cell_volume                      1569.18697894

loop_
_atom_site_label
_atom_site_type_symbol
_atom_type_description
_atom_site_fract_x
_atom_site_fract_y
_atom_site_fract_z
_atom_type_partial_charge
C1    C     C_R   0.492495 0.253164 0.441728 0.767494
C2    C     C_3   0.963814 0.534332 0.663105 0.267014
C3    C     C_3   0.917564 0.500205 0.502824 0.075602
C4    C     C_3   0.947952 0.605162 0.443128 -0.509539
C5    C     C_3   0.045716 0.606750 0.445822 -0.535342
C6    C     C_1   0.824951 0.499506 0.499089 -0.000750
C7    C     C_1   0.175614 0.502710 0.505279 0.045218
C8    C     C_1   0.251077 0.502129 0.504292 -0.152108
C9    C     C_2   0.484254 0.111735 0.412768 0.390278
C10   C     C_2   0.453253 0.068296 0.509413 -0.272863
C11   C     C_2   0.501139 0.887715 0.584228 0.363317
C12   C     C_R   0.340443 0.500686 0.501532 0.823362
C13   C     C_2   0.448069 0.927744 0.491290 0.379281
C14   C     C_2   0.518891 0.477886 0.067912 0.510891
C15   C     C_2   0.493224 0.484910 0.917010 -0.019649
C16   C     C_R   0.503703 0.746724 0.558191 0.787803
C17   C     C_R   0.659619 0.499760 0.498710 0.828707
C18   C     C_3   0.063096 0.534688 0.666090 0.860584
C19   C     C_3   0.039819 0.365158 0.404484 0.433899
C20   C     C_3   0.942314 0.363447 0.405338 -0.394820
C21   C     C_1   0.749193 0.499271 0.497264 -0.164012
C22   C     C_3   0.083452 0.502101 0.506481 0.052287
Cu1   Cu    Cu3+1 0.514650 0.521810 0.644910 0.978301
Cu2   Cu    Cu3+1 0.485350 0.478190 0.355090 0.995922
H1    H     H_    0.947009 0.636273 0.726273 0.077088
H2    H     H_    0.915706 0.583332 0.328670 0.202746
H3    H     H_    0.434861 0.137807 0.609019 0.133597
H4    H     H_    0.434470 0.430933 0.851837 0.066902
H5    H     H_    0.401475 0.424456 0.083634 0.139278
H6    H     H_    0.051990 0.345434 0.290231 0.089337
H7    H     H_    0.921767 0.285961 0.446056 0.250730
H8    H     H_    0.908618 0.337349 0.290955 0.132724
H9    H     H_    0.075407 0.706858 0.514374 0.259697
H10   H     H_    0.060050 0.586086 0.332600 0.187690
H11   H     H_    0.930545 0.704606 0.510497 0.213659
N1    N     N_2   0.463320 0.445430 0.137380 -0.336583
N2    N     N_2   0.536720 0.554500 0.862620 -0.005941
O1    O     O_R   0.507820 0.332330 0.577400 -0.605696
O2    O     O_R   0.483070 0.295500 0.332660 -0.542357
O3    O     O_R   0.391820 0.518430 0.622420 -0.597098
O4    O     O_R   0.367070 0.481600 0.377680 -0.572116
O5    O     O_R   0.516930 0.704500 0.667340 -0.598705
O6    O     O_R   0.492180 0.667670 0.422600 -0.554797
O7    O     O_R   0.632930 0.518400 0.622320 -0.559483
O8    O     O_R   0.608180 0.481570 0.377580 -0.530051
O9    O     O_3   0.934900 0.441381 0.721410 -0.546402
C23   C     C_3   0.933975 0.500938 0.874038 0.109381
H12   H     H_    0.875023 0.554331 0.893059 0.137478
H13   H     H_    0.990491 0.571421 0.931147 0.141397
C24   C     C_3   0.934788 0.394294 0.941036 -0.761933
H14   H     H_    0.993581 0.340577 0.923757 0.263081
H15   H     H_    0.933421 0.439607 0.060813 0.177620
H16   H     H_    0.878370 0.323198 0.888773 0.258176
F1    F     F_    0.097637 0.662047 0.752431 -0.751968
O10   O     O_3   0.377595 0.844135 0.407128 -0.613710
C25   C     C_3   0.368207 0.836753 0.259993 0.169312
H17   H     H_    0.428434 0.809864 0.213772 0.196112
H18   H     H_    0.347979 0.931423 0.250710 0.177877
C26   C     C_3   0.299385 0.729152 0.168839 -0.823696
H19   H     H_    0.237501 0.753095 0.209241 0.259028
H20   H     H_    0.292245 0.720866 0.052115 0.205186
H21   H     H_    0.317104 0.633055 0.176481 0.249779
F2    F     F_    0.558082 0.974677 0.693354 -0.693546
F3    F     F_    0.509445 0.026917 0.289046 -0.697721
O11   O     O_3   0.602986 0.507920 0.133292 -0.509087
C27   C     C_3   0.649819 0.397411 0.071228 0.184265
H22   H     H_    0.632369 0.350529 0.949552 0.147964
H23   H     H_    0.639104 0.321945 0.120834 0.152585
C28   C     C_3   0.744269 0.440865 0.103345 -0.793056
H24   H     H_    0.762671 0.503012 0.220478 0.250870
H25   H     H_    0.782267 0.352907 0.077576 0.193868
H26   H     H_    0.758593 0.499195 0.035535 0.260887
O12   O     O_3   0.614556 0.604961 0.938216 -0.476900
C29   C     C_3   0.625043 0.736074 0.945315 0.249107
H27   H     H_    0.564460 0.786934 0.956183 0.164435
H28   H     H_    0.650413 0.738458 0.846651 0.169836
C30   C     C_3   0.689808 0.812039 0.079427 -0.788008
H29   H     H_    0.751760 0.765869 0.071717 0.227983
H30   H     H_    0.699503 0.915690 0.086116 0.220965
H31   H     H_    0.666442 0.811655 0.180618 0.280058
O13   O     O_3   0.095784 0.436917 0.721597 -0.523903
C31   C     C_3   0.165726 0.485799 0.835867 0.141029
H32   H     H_    0.144829 0.557764 0.935168 0.162423
H33   H     H_    0.217474 0.533307 0.801630 0.168624
C32   C     C_3   0.201683 0.371831 0.875366 -0.786016
H34   H     H_    0.225268 0.299893 0.779213 0.267086
H35   H     H_    0.255352 0.409573 0.967395 0.178315
H36   H     H_    0.151626 0.321425 0.909620 0.255487
F4    F     F_    0.073313 0.264844 0.447026 -0.615767

loop_
_geom_bond_atom_site_label_1
_geom_bond_atom_site_label_2
_ccdc_geom_bond_type
C10   H3    S    
C27   H23   S    
O10   C25   S    
C2    C18   S    
C9    F3    S    
O12   C29   S    
C19   C20   S    
C3    C6    S    
Cu2   O2    S    
O13   C31   S    
C7    C8    T    
C23   H13   S    
C30   H29   S    
C2    O9    S    
H5    N1    S    
Cu2   N1    S    
Cu1   O5    S    
C29   H28   S    
C31   C32   S    
Cu2   O8    S    
C17   O8    A    
C11   F2    S    
C14   N1    D    
C30   H31   S    
C27   C28   S    
Cu1   O3    S    
C18   O13   S    
C25   H17   S    
C28   H25   S    
C15   N2    D    
C5    C22   S    
C29   C30   S    
C5    H9    S    
C24   H15   S    
Cu1   Cu2   S    
C9    C10   D    
C32   H35   S    
C27   H22   S    
C4    H11   S    
C26   H19   S    
Cu2   O4    S    
C23   C24   S    
C30   H30   S    
C26   H20   S    
C24   H16   S    
C29   H27   S    
C19   C22   S    
C1    C9    S    
C18   F1    S    
Cu1   N2    S    
C6    C21   T    
C17   C21   S    
Cu1   O7    S    
C12   O3    A    
C28   H26   S    
C12   O4    A    
C19   F4    S    
C11   C16   S    
C23   H12   S    
C8    C12   S    
C5    H10   S    
C24   H14   S    
C3    C20   S    
C16   O6    A    
C32   H34   S    
C1    O1    A    
C31   H32   S    
C31   H33   S    
C3    C4    S    
Cu1   O1    S    
C16   O5    A    
C20   H8    S    
C32   H36   S    
N2    O12   S    
O9    C23   S    
C26   H21   S    
C18   C22   S    
C4    C5    S    
C10   C13   S    
C4    H2    S    
C7    C22   S    
C25   C26   S    
C2    C3    S    
C17   O7    A    
C11   C13   D    
C15   H4    S    
C14   O11   S    
C25   H18   S    
C2    H1    S    
C28   H24   S    
C1    O2    A    
O11   C27   S    
Cu2   O6    S    
C14   C15   S    
C19   H6    S    
C13   O10   S    
C20   H7    S    
