data_mof_unit_55833.cif
_audit_creation_date              2012-12-10T17:02:05-0500
_audit_creation_method            fapswitch 2.2
_symmetry_space_group_name_H-M    P1
_symmetry_Int_Tables_number       1
_space_group_crystal_system       triclinic
_cell_length_a                    10.750127
_cell_length_b                    11.008249
_cell_length_c                    9.955063
_cell_angle_alpha                 111.058974
_cell_angle_beta                  98.509036
_cell_angle_gamma                 93.654741
_cell_volume                      1078.53957983

loop_
_atom_site_label
_atom_site_type_symbol
_atom_type_description
_atom_site_fract_x
_atom_site_fract_y
_atom_site_fract_z
_atom_type_partial_charge
C1    C     C_R   0.492354 0.254204 0.440352 0.920105
C2    C     C_2   0.501395 0.930465 0.484068 -0.151076
C3    C     C_2   0.515364 0.505189 0.077569 -0.124559
C4    C     C_R   0.262680 0.498156 0.499634 0.874497
C5    C     C_2   0.486101 0.484797 0.916926 0.491189
C6    C     C_R   0.510577 0.745950 0.559596 0.803228
C7    C     C_R   0.737023 0.502059 0.500270 0.768997
C8    C     C_R   0.162708 0.744038 0.609750 -0.154108
C9    C     C_R   0.114178 0.863343 0.662432 -0.092083
C10   C     C_R   0.984890 0.865201 0.662418 -0.109723
C11   C     C_R   0.903560 0.747762 0.609778 -0.170670
C12   C     C_R   0.082051 0.623526 0.555703 0.072890
C13   C     C_R   0.951087 0.625896 0.556094 0.099848
C14   C     C_2   0.089918 0.249815 0.386535 0.884770
C15   C     C_R   0.128631 0.500916 0.499876 -0.148097
C16   C     C_R   0.046212 0.381539 0.445046 -0.024824
C17   C     C_R   0.917708 0.386538 0.447203 -0.241324
C18   C     C_R   0.870890 0.506121 0.501179 -0.091879
C19   C     C_2   0.488138 0.114151 0.406988 -0.352554
C20   C     C_2   0.507136 0.070000 0.515844 -0.091350
C21   C     C_2   0.516884 0.886141 0.592960 -0.340840
Cu1   Cu    Cu3+1 0.521920 0.521810 0.644910 1.018727
Cu2   Cu    Cu3+1 0.478080 0.478190 0.355090 0.998791
H1    H     H_    0.468889 0.046829 0.293237 0.151709
H2    H     H_    0.483853 0.863544 0.370114 0.187588
H3    H     H_    0.526689 0.137004 0.629760 0.217085
H4    H     H_    0.534079 0.953371 0.706706 0.171754
H5    H     H_    0.210965 0.136936 0.277550 0.332840
H6    H     H_    0.159671 0.340516 0.857042 0.372371
H7    H     H_    0.599363 0.570498 0.145592 0.128224
H8    H     H_    0.629132 0.620916 0.934258 0.157741
H9    H     H_    0.359175 0.392526 0.083187 0.294102
H10   H     H_    0.263491 0.747392 0.611431 0.126776
H11   H     H_    0.177143 0.954674 0.703101 0.178884
H12   H     H_    0.947429 0.957943 0.703050 0.151583
H13   H     H_    0.803534 0.753260 0.610888 0.125069
H14   H     H_    0.852603 0.296278 0.405674 0.164543
N1    N     N_2   0.445130 0.445430 0.137370 -0.255052
N2    N     N_2   0.554930 0.554500 0.862630 -0.353850
O1    O     O_R   0.511700 0.332330 0.577400 -0.532290
O2    O     O_R   0.192268 0.231295 0.312808 -0.749456
O3    O     O_2   0.313403 0.310907 0.653201 -0.260633
O4    O     O_2   0.373998 0.239801 0.851062 -0.365508
O5    O     O_3   0.222951 0.418554 0.882950 -0.558515
O6    O     O_R   0.474680 0.295500 0.332650 -0.555624
O7    O     O_R   0.338160 0.518420 0.622400 -0.515111
O8    O     O_R   0.301140 0.481590 0.377650 -0.551732
O9    O     O_R   0.525320 0.704500 0.667350 -0.584689
O10   O     O_R   0.488300 0.667670 0.422600 -0.580196
O11   O     O_R   0.698860 0.518410 0.622350 -0.577174
O12   O     O_R   0.661840 0.481580 0.377600 -0.580491
O13   O     O_2   0.033664 0.155860 0.400010 -0.586779
S1    S     S_3+6 0.350866 0.359357 0.815773 0.006877

loop_
_geom_bond_atom_site_label_1
_geom_bond_atom_site_label_2
_ccdc_geom_bond_type
C3    H7    S    
Cu1   O9    S    
C10   H12   S    
Cu2   O6    S    
H9    N1    S    
Cu2   N1    S    
C9    C10   A    
Cu2   O12   S    
C19   C20   D    
C12   C15   A    
Cu1   O11   S    
C8    C12   A    
C7    C18   S    
Cu1   O1    S    
C2    C21   D    
C17   C18   A    
C21   H4    S    
C7    O12   A    
H6    O5    S    
C17   H14   S    
C6    C21   S    
C11   C13   A    
C1    O6    A    
C6    O9    A    
C13   C18   A    
C4    C15   S    
C14   O2    S    
Cu1   N2    S    
C5    S1    S    
C11   H13   S    
Cu1   O7    S    
H8    N2    S    
C19   H1    S    
C2    H2    S    
C8    H10   S    
C5    N2    D    
O3    S1    D    
C9    H11   S    
C14   C16   S    
Cu2   O10   S    
Cu2   O8    S    
C10   C11   A    
C2    C20   S    
C15   C16   A    
H5    O2    S    
C12   C13   A    
C3    N1    D    
Cu1   Cu2   S    
C16   C17   A    
C4    O7    A    
C1    O1    A    
C3    C5    S    
C1    C19   S    
O5    S1    S    
O4    S1    D    
C14   O13   D    
C6    O10   A    
C7    O11   A    
C8    C9    A    
C20   H3    S    
C4    O8    A    
