data_mof_unit_13299.cif
_audit_creation_date              2013-03-05T15:47:47-0500
_audit_creation_method            fapswitch 2.2
_symmetry_space_group_name_H-M    P1
_symmetry_Int_Tables_number       1
_space_group_crystal_system       triclinic
_cell_length_a                    21.570288
_cell_length_b                    7.199645
_cell_length_c                    18.877156
_cell_angle_alpha                 90.330662
_cell_angle_beta                  95.365699
_cell_angle_gamma                 89.959733
_cell_volume                      2918.6979133

loop_
_atom_site_label
_atom_site_type_symbol
_atom_site_description
_atom_site_fract_x
_atom_site_fract_y
_atom_site_fract_z
_atom_type_partial_charge
O1    O     O_R   0.449650 0.506500 0.414480 -0.593105
O2    O     O_R   0.550350 0.006500 0.585520 -0.592348
O3    O     O_R   0.432010 0.173150 0.560250 -0.583215
O4    O     O_R   0.567990 0.673150 0.439750 -0.579291
C1    C     C_R   0.418164 0.344290 0.583353 1.016617
C2    C     C_R   0.581888 0.843453 0.416366 1.012259
O5    O     O_R   0.442320 0.176650 0.413480 -0.571524
O6    O     O_R   0.557680 0.676650 0.586520 -0.570027
O7    O     O_R   0.560730 0.008380 0.437700 -0.581972
O8    O     O_R   0.439270 0.508380 0.562300 -0.581538
C3    C     C_R   0.427145 0.345240 0.388861 0.963184
C4    C     C_R   0.572784 0.846101 0.611164 0.959182
O9    O     O_3   0.538840 0.339860 0.508120 -0.273725
O10   O     O_3   0.461160 0.839860 0.491880 -0.275380
V1    V     V_3+5 0.492800 0.064220 0.498490 1.237638
V2    V     V_3+5 0.507200 0.564220 0.501510 1.240374
C5    C     C_R   0.879258 0.896995 0.694241 -0.104238
C6    C     C_R   0.122151 0.454807 0.306426 -0.092074
H1    H     H_    0.965790 0.909341 0.758796 0.197925
H2    H     H_    0.035363 0.472272 0.242255 0.189319
H3    H     H_    0.803619 0.864332 0.578826 0.186266
H4    H     H_    0.198185 0.436657 0.421984 0.186071
H5    H     H_    0.902282 0.883500 0.645815 0.159424
H6    H     H_    0.099744 0.468048 0.355280 0.157801
C7    C     C_R   0.887697 0.935018 0.821627 -0.132133
C8    C     C_R   0.112496 0.441571 0.178357 -0.129409
C9    C     C_R   0.585307 0.863911 0.741095 -0.166672
C10   C     C_R   0.413673 0.334434 0.258853 -0.169050
C11   C     C_R   0.619337 0.882983 0.806834 -0.057254
C12   C     C_R   0.379422 0.342878 0.192974 -0.053150
C13   C     C_R   0.683895 0.897609 0.811923 -0.126636
C14   C     C_R   0.315293 0.369512 0.187877 -0.120913
C15   C     C_R   0.716912 0.892346 0.750704 0.068367
C16   C     C_R   0.282902 0.387678 0.249271 0.065993
C17   C     C_R   0.681824 0.870142 0.682299 -0.076877
C18   C     C_R   0.318245 0.378274 0.317911 -0.072616
C19   C     C_R   0.783805 0.906320 0.755569 0.104898
C20   C     C_R   0.216387 0.413338 0.244411 0.101500
C21   C     C_R   0.814146 0.893569 0.692290 0.073984
C22   C     C_R   0.186885 0.432643 0.308057 0.071944
C23   C     C_R   0.779832 0.874098 0.626912 -0.251170
C24   C     C_R   0.221528 0.425573 0.373627 -0.254090
C25   C     C_R   0.715293 0.862459 0.621142 0.332769
C26   C     C_R   0.285453 0.395517 0.379368 0.332367
C27   C     C_R   0.822269 0.930668 0.820663 -0.231057
C28   C     C_R   0.177493 0.419235 0.179022 -0.217673
C29   C     C_R   0.915605 0.913972 0.758445 -0.039996
C30   C     C_R   0.085338 0.457904 0.242177 -0.036241
C31   C     C_R   0.614894 0.857619 0.678310 -0.149191
C32   C     C_R   0.384784 0.352500 0.321817 -0.149810
H7    H     H_    0.803258 0.944213 0.871238 0.103091
H8    H     H_    0.195826 0.406216 0.128053 0.109080
H9    H     H_    0.534998 0.855046 0.739147 0.101737
H10   H     H_    0.463631 0.314544 0.260726 0.102332
H11   H     H_    0.706685 0.911846 0.864901 0.118440
H12   H     H_    0.292381 0.375424 0.134767 0.125181
H13   H     H_    0.595274 0.887383 0.854651 0.133106
H14   H     H_    0.402979 0.329176 0.145017 0.135935
C33   C     C_R   0.630216 0.004021 0.316782 -0.192546
C34   C     C_R   0.367073 0.511481 0.679628 -0.181721
C35   C     C_R   0.629311 0.852434 0.363571 -0.124434
C36   C     C_R   0.370327 0.355160 0.634989 -0.122844
C37   C     C_R   0.674685 0.712728 0.360377 -0.106814
C38   C     C_R   0.326258 0.212907 0.638239 -0.119858
C39   C     C_R   0.722757 0.730454 0.315275 0.085975
C40   C     C_R   0.277621 0.230493 0.682192 0.098362
C41   C     C_R   0.723856 0.884108 0.269514 0.088053
C42   C     C_R   0.274593 0.386484 0.727120 0.096872
C43   C     C_R   0.676261 0.018344 0.268887 0.117130
C44   C     C_R   0.320195 0.526401 0.726319 0.107157
C45   C     C_R   0.769296 0.595251 0.314815 -0.307343
C46   C     C_R   0.230688 0.097281 0.679350 -0.270315
C47   C     C_R   0.818994 0.614300 0.272216 0.424008
C48   C     C_R   0.179636 0.117570 0.719171 0.376032
C49   C     C_R   0.823199 0.777100 0.230147 -0.104793
C50   C     C_R   0.177571 0.267664 0.768866 -0.128625
C51   C     C_R   0.772610 0.904028 0.224748 -0.028540
C52   C     C_R   0.225871 0.403182 0.772219 0.015000
C53   C     C_R   0.771041 0.051857 0.175273 0.031377
C54   C     C_R   0.225229 0.557288 0.819492 0.023532
C55   C     C_R   0.721685 0.183331 0.173331 0.342959
C56   C     C_R   0.272723 0.694112 0.819986 0.360801
C57   C     C_R   0.675589 0.165903 0.220847 -0.334087
C58   C     C_R   0.318410 0.679369 0.772034 -0.326507
C59   C     C_R   0.876777 0.819901 0.194566 0.391456
C60   C     C_R   0.129652 0.286813 0.815410 0.369995
C61   C     C_R   0.869955 0.942793 0.135590 -0.290829
C62   C     C_R   0.130261 0.437384 0.864372 -0.308406
C63   C     C_R   0.817231 0.058129 0.127111 -0.128731
C64   C     C_R   0.176705 0.573021 0.864076 -0.112787
H15   H     H_    0.594688 0.110538 0.317224 0.125161
H16   H     H_    0.401361 0.621227 0.678456 0.126088
H17   H     H_    0.673932 0.592795 0.394647 0.178333
H18   H     H_    0.328194 0.091319 0.604411 0.176284
H19   H     H_    0.766392 0.472143 0.347124 0.188146
H20   H     H_    0.231884 0.980533 0.642919 0.178789
H21   H     H_    0.813034 0.153303 0.082831 0.175638
H22   H     H_    0.174655 0.690675 0.899570 0.197911
H23   H     H_    0.638995 0.269309 0.220402 0.175710
H24   H     H_    0.354015 0.785612 0.772090 0.173789
O11   O     O_R   0.060820 0.290050 0.937800 -0.556165
O12   O     O_R   0.939180 0.790050 0.062200 -0.565221
O13   O     O_R   0.057690 0.616620 0.086540 -0.559794
O14   O     O_R   0.942310 0.116620 0.913460 -0.566277
C65   C     C_R   0.071961 0.448770 0.111385 0.940882
C66   C     C_R   0.928012 0.947732 0.888664 0.961731
O15   O     O_R   0.068010 0.619890 0.939770 -0.576985
O16   O     O_R   0.931990 0.119890 0.060230 -0.582928
O17   O     O_R   0.949640 0.787940 0.914460 -0.591026
O18   O     O_R   0.050360 0.287940 0.085540 -0.584132
C67   C     C_R   0.082979 0.450858 0.917268 0.975483
C68   C     C_R   0.916962 0.952054 0.082566 1.000471
O19   O     O_3   0.961210 0.453080 0.991940 -0.287150
O20   O     O_3   0.038790 0.953080 0.008060 -0.265859
V3    V     V_3+5 0.007200 0.728820 0.001500 1.276994
V4    V     V_3+5 0.992800 0.228820 0.998500 1.274143
N1    N     N_R   0.861215 0.460052 0.267787 0.253197
O21   O     O_R   0.870968 0.345492 0.320752 -0.356715
O22   O     O_R   0.883983 0.419760 0.208110 -0.379149
N2    N     N_R   0.129288 0.989345 0.704496 0.255171
O23   O     O_R   0.078087 0.046205 0.669307 -0.337860
O24   O     O_R   0.140023 0.811735 0.709252 -0.382647
N3    N     N_R   0.938194 0.771814 0.227501 0.240182
O25   O     O_R   0.945902 0.741781 0.295705 -0.360328
O26   O     O_R   0.987951 0.800815 0.195274 -0.410234
N4    N     N_R   0.078952 0.157945 0.812052 0.241562
O27   O     O_R   0.022976 0.215500 0.791588 -0.399397
O28   O     O_R   0.086832 0.994756 0.840831 -0.387525
N5    N     N_R   0.717842 0.337487 0.124937 0.227851
O29   O     O_R   0.663710 0.393908 0.096981 -0.397107
O30   O     O_R   0.766373 0.440641 0.118077 -0.406844
N6    N     N_R   0.276313 0.846913 0.869567 0.233991
O31   O     O_R   0.292498 0.010667 0.849052 -0.416535
O32   O     O_R   0.276592 0.815266 0.937394 -0.407687
N7    N     N_R   0.685756 0.834976 0.551560 0.198216
O33   O     O_R   0.691155 0.965256 0.505109 -0.422778
O34   O     O_R   0.676584 0.664917 0.529565 -0.420488
N8    N     N_R   0.314491 0.368760 0.449178 0.199487
O35   O     O_R   0.310707 0.501403 0.495656 -0.418306
O36   O     O_R   0.322189 0.198856 0.471200 -0.430017

loop_
_geom_bond_atom_site_label_1
_geom_bond_atom_site_label_2
_geom_bond_distance
_ccdc_geom_bond_type
C40   C42   1.408587 A    
C65   O18   1.321980 A    
C37   C39   1.408158 A    
N4    O27   1.301044 A    
C7    C27   1.410090 A    
C9    C11   1.387599 A    
C23   C25   1.388752 A    
O12   C68   1.329061 A    
O1    C3    1.329621 A    
C50   C60   1.423945 A    
O2    C4    1.328144 A    
C2    O7    1.344820 A    
O14   C66   1.326526 A    
C4    C31   1.490677 S    
C18   C32   1.442162 A    
N3    O25   1.301991 A    
C21   C23   1.384885 A    
O5    C3    1.331884 A    
C5    H5    1.084248 S    
C48   C50   1.430317 A    
C6    H6    1.084183 S    
C2    C35   1.495083 S    
C50   C52   1.424700 A    
C53   C63   1.411116 A    
O17   V3    2.012010 S    
N1    O22   1.301520 A    
C60   C62   1.419795 A    
N3    O26   1.299807 A    
C45   H19   1.083948 S    
C27   H7    1.077598 S    
C28   H8    1.077478 S    
C34   C36   1.407700 A    
C5    C21   1.401754 A    
C35   C37   1.407915 A    
C6    C22   1.402815 A    
C36   C38   1.403309 A    
O12   V3    1.991905 S    
O5    V1    2.025592 S    
O14   V4    2.018653 S    
C62   C67   1.495290 S    
C10   C32   1.398076 A    
C49   C59   1.424699 A    
C40   C46   1.392180 A    
N6    O31   1.301141 A    
C39   C41   1.409067 A    
C41   C51   1.417197 A    
C17   C31   1.441462 A    
C26   N8    1.419312 S    
C13   C15   1.413349 A    
C12   C14   1.390829 A    
C44   C58   1.397953 A    
C7    C29   1.392813 A    
C16   C18   1.442519 A    
C8    C30   1.392355 A    
O19   V4    1.752579 S    
C34   H16   1.084374 S    
O6    V2    2.018791 S    
C57   H23   1.084152 S    
C11   C13   1.390888 A    
C47   C49   1.427270 A    
C24   C26   1.389900 A    
C8    C65   1.469500 S    
C55   C57   1.406147 A    
N2    O24   1.301481 A    
C7    C66   1.469339 S    
O20   V3    1.752145 S    
C51   C53   1.418342 A    
C42   C52   1.417647 A    
C33   C35   1.409240 A    
C47   N1    1.442707 S    
C59   C61   1.422849 A    
C58   H24   1.084246 S    
N7    O33   1.300383 A    
C46   C48   1.397269 A    
C53   C55   1.422120 A    
C10   H10   1.084306 S    
C61   C68   1.491683 S    
C39   C45   1.398405 A    
C15   C19   1.440768 A    
O16   C68   1.332286 A    
C63   H21   1.081102 S    
C41   C43   1.408759 A    
C38   C40   1.402315 A    
O4    V2    1.997893 S    
O13   V3    2.025444 S    
C43   C57   1.399946 A    
C55   N5    1.438970 S    
C34   C44   1.405823 A    
O6    C4    1.332889 A    
H1    C29   1.082395 S    
O13   C65   1.324430 A    
O1    V2    2.006033 S    
C33   H15   1.084328 S    
C25   N7    1.418113 S    
O2    V1    2.009596 S    
C49   C51   1.419556 A    
O15   V3    1.991822 S    
H2    C30   1.082988 S    
N8    O36   1.299774 A    
C33   C43   1.408447 A    
H3    C23   1.085584 S    
C54   C56   1.421100 A    
C11   H13   1.082796 S    
C56   C58   1.402651 A    
C61   C63   1.405232 A    
C18   C26   1.418906 A    
O4    C2    1.348933 A    
C56   N6    1.437667 S    
O18   V4    2.008364 S    
C17   C25   1.418503 A    
N2    O23   1.301499 A    
C45   C47   1.406189 A    
N5    O29   1.301321 A    
N7    O34   1.299891 A    
O11   V4    1.995285 S    
N4    O28   1.301632 A    
C16   C20   1.440921 A    
O15   C67   1.335976 A    
C5    C29   1.385369 A    
C62   C64   1.399911 A    
O3    C1    1.347306 A    
C6    C30   1.386427 A    
C9    H9    1.084276 S    
O11   C67   1.326529 A    
C48   N2    1.432006 S    
C37   H17   1.082946 S    
C60   N4    1.431289 S    
O16   V4    1.997836 S    
C10   C12   1.387451 A    
O7    V1    1.983385 S    
C38   H18   1.083666 S    
C1    O8    1.341977 A    
C19   C21   1.417216 A    
C3    C32   1.491238 S    
O8    V2    1.986487 S    
N1    O21   1.301587 A    
C20   C22   1.417307 A    
H4    C24   1.085467 S    
C12   H14   1.082795 S    
C22   C24   1.385903 A    
C15   C17   1.442512 A    
C64   H22   1.080435 S    
C1    C36   1.485970 S    
C59   N3    1.452307 S    
C52   C54   1.420702 A    
C54   C64   1.407184 A    
C20   C28   1.426931 A    
N8    O35   1.300792 A    
C8    C28   1.409995 A    
C46   H20   1.084783 S    
N6    O32   1.301252 A    
O9    V2    1.753693 S    
C42   C44   1.409581 A    
O10   V1    1.753250 S    
O3    V1    1.991878 S    
C13   H11   1.076678 S    
C19   C27   1.426915 A    
C14   H12   1.076583 S    
C9    C31   1.398165 A    
C14   C16   1.413490 A    
N5    O30   1.300668 A    
C66   O17   1.319661 A    
