data_mof_unit_62467.cif
_audit_creation_date              2012-12-10T19:50:39-0500
_audit_creation_method            fapswitch 2.2
_symmetry_space_group_name_H-M    P1
_symmetry_Int_Tables_number       1
_space_group_crystal_system       triclinic
_cell_length_a                    18.288536
_cell_length_b                    18.275306
_cell_length_c                    18.256537
_cell_angle_alpha                 119.669895
_cell_angle_beta                  90.524716
_cell_angle_gamma                 119.611945
_cell_volume                      4341.55312167

loop_
_atom_site_label
_atom_site_type_symbol
_atom_type_description
_atom_site_fract_x
_atom_site_fract_y
_atom_site_fract_z
_atom_type_partial_charge
Br1   Br    Br    0.710442 0.271889 0.646681 -0.438345
Br2   Br    Br    0.044814 0.483966 0.659803 -0.420407
Br3   Br    Br    0.708111 0.560641 0.937394 -0.435492
Br4   Br    Br    0.078734 0.878121 0.354158 -0.382972
Br5   Br    Br    0.254316 0.879742 0.385780 -0.412051
Br6   Br    Br    0.210466 0.133154 0.483144 -0.338217
Br7   Br    Br    0.022945 0.676951 0.398136 -0.299974
Br8   Br    Br    0.894475 0.675786 0.524893 -0.318483
Br9   Br    Br    0.873907 0.881481 0.782157 -0.411054
Br10  Br    Br    0.274689 0.438571 0.046661 -0.435043
Br11  Br    Br    0.035130 0.413681 0.262791 -0.435842
Br12  Br    Br    0.377703 0.419115 0.763339 -0.367648
C1    C     C_R   0.639739 0.779683 0.639939 0.816341
C2    C     C_R   0.231500 0.945915 0.155972 -0.187007
C3    C     C_R   0.196737 0.891106 0.194894 -0.038284
C4    C     C_R   0.360461 0.220309 0.360044 0.828175
C5    C     C_R   0.219464 0.948590 0.287525 -0.006462
C6    C     C_3   0.204028 0.942459 0.364965 0.435089
C7    C     C_3   0.265560 0.061726 0.424425 0.067717
C8    C     C_R   0.787318 0.546885 0.341214 0.052457
C9    C     C_R   0.694979 0.491203 0.303448 -0.100990
C10   C     C_R   0.655995 0.423774 0.209652 -0.184733
C11   C     C_R   0.709971 0.424000 0.155995 -0.169501
C12   C     C_3   0.835939 0.569455 0.766998 -0.165497
C13   C     C_R   0.803564 0.491578 0.195485 -0.102927
C14   C     C_R   0.840704 0.546947 0.288229 0.049780
C15   C     C_3   0.912868 0.658039 0.355771 0.118308
C16   C     C_R   0.361712 0.501290 0.641509 0.853059
C17   C     C_3   0.853728 0.657822 0.414514 0.070900
C18   C     C_R   0.787129 0.947794 0.725572 0.064164
C19   C     C_R   0.694528 0.890905 0.696091 -0.070982
C20   C     C_R   0.655532 0.946128 0.723147 -0.191091
C21   C     C_R   0.709619 0.054210 0.777101 -0.179355
C22   C     C_R   0.803648 0.108955 0.804876 -0.046599
C23   C     C_3   0.766375 0.594068 0.792323 -0.166246
C24   C     C_R   0.839039 0.051581 0.777097 0.052829
C25   C     C_3   0.923986 0.058947 0.780437 -0.447871
C26   C     C_3   0.864742 0.940335 0.721379 0.140074
C27   C     C_R   0.270982 0.558920 0.340874 0.069162
C28   C     C_R   0.639865 0.499117 0.359854 0.809735
C29   C     C_R   0.313599 0.510793 0.304966 -0.090842
C30   C     C_R   0.316651 0.479455 0.218477 -0.225732
C31   C     C_R   0.264894 0.481057 0.163734 0.264405
C32   C     C_R   0.208133 0.511889 0.196453 -0.121436
C33   C     C_R   0.217815 0.557818 0.287006 0.029434
C34   C     C_3   0.732698 0.524555 0.826093 0.263774
C35   C     C_3   0.151239 0.545154 0.335025 0.149641
C36   C     C_3   0.210818 0.546340 0.394889 -0.472525
C37   C     C_R   0.261513 0.544989 0.709184 0.019971
C38   C     C_R   0.310605 0.504628 0.701809 -0.130269
C39   C     C_R   0.307007 0.466890 0.754852 0.280572
C40   C     C_R   0.359679 0.500944 0.358966 0.838095
C41   C     C_R   0.250852 0.465923 0.807026 -0.212082
C42   C     C_R   0.199242 0.503512 0.808745 -0.123402
C43   C     C_R   0.208586 0.544550 0.760053 0.069667
C44   C     C_3   0.171382 0.584516 0.728767 0.134320
C45   C     C_3   0.663510 0.430159 0.732469 -0.183931
C46   C     C_3   0.231616 0.584555 0.670186 -0.456793
C47   C     C_R   0.859923 0.499209 0.140063 0.836496
C48   C     C_R   0.139999 0.500148 0.860397 0.860740
C49   C     C_R   0.139887 0.779734 0.139854 0.827846
C50   C     C_R   0.860074 0.220209 0.860109 0.826050
C51   C     C_R   0.143643 0.502219 0.140936 0.880298
C52   C     C_R   0.641476 0.499796 0.641540 0.840268
C53   C     C_R   0.858492 0.500090 0.858361 0.893246
C54   C     C_3   0.767211 0.475001 0.672473 -0.152728
C55   C     C_3   0.733539 0.406924 0.707690 0.263669
C56   C     C_3   0.698486 0.499480 0.698773 -0.080939
C57   C     C_3   0.801465 0.500368 0.800995 -0.114515
C58   C     C_R   0.271732 0.052464 0.339280 -0.033291
C59   C     C_R   0.306265 0.109188 0.303700 -0.030419
C60   C     C_R   0.285709 0.054024 0.209893 -0.185179
H1    H     H_    0.331089 0.095109 0.468813 0.158640
H2    H     H_    0.194656 0.527441 0.597038 0.236859
H3    H     H_    0.592298 0.372963 0.717902 0.209499
H4    H     H_    0.310999 0.093840 0.178041 0.179464
H5    H     H_    0.584224 0.374812 0.177598 0.185668
H6    H     H_    0.678273 0.375154 0.084023 0.190194
H7    H     H_    0.920908 0.705027 0.330813 0.142728
H8    H     H_    0.780368 0.454102 0.608215 0.195226
H9    H     H_    0.677693 0.094300 0.796551 0.188623
H10   H     H_    0.961420 0.092612 0.745467 0.205882
H11   H     H_    0.963701 0.094584 0.849242 0.248589
H12   H     H_    0.829113 0.705491 0.423374 0.105427
H13   H     H_    0.248094 0.436194 0.846379 0.224173
H14   H     H_    0.190679 0.662455 0.783094 0.139704
H15   H     H_    0.286400 0.662873 0.690911 0.193105
H16   H     H_    0.778814 0.671058 0.826570 0.197438
H17   H     H_    0.216792 0.905823 0.084248 0.178778
H18   H     H_    0.583690 0.906412 0.702698 0.183810
H19   H     H_    0.868425 0.905366 0.652701 0.153862
H20   H     H_    0.356741 0.450892 0.192537 0.201852
H21   H     H_    0.148861 0.613408 0.370988 0.202801
H22   H     H_    0.242800 0.615542 0.465134 0.204428
H23   H     H_    0.907220 0.626546 0.781684 0.207232
H24   H     H_    0.180821 0.472349 0.387721 0.229429
O1    O     O_3   0.500000 0.500000 0.500000 -0.513707
O2    O     O_R   0.945260 0.268310 0.884540 -0.631760
O3    O     O_R   0.117230 0.560570 0.177940 -0.616502
O4    O     O_R   0.676910 0.731570 0.616180 -0.615255
O5    O     O_R   0.821960 0.439250 0.882690 -0.603554
O6    O     O_R   0.117230 0.439140 0.056500 -0.605792
O7    O     O_R   0.943400 0.560680 0.882690 -0.635396
O8    O     O_R   0.115380 0.731510 0.054650 -0.659761
O9    O     O_R   0.823040 0.268340 0.883770 -0.641092
O10   O     O_R   0.945260 0.560610 0.176860 -0.598604
O11   O     O_R   0.116150 0.439180 0.884540 -0.629237
O12   O     O_R   0.384580 0.439270 0.616180 -0.581333
O13   O     O_R   0.384580 0.268400 0.445300 -0.614054
O14   O     O_R   0.383810 0.560730 0.615410 -0.651091
O15   O     O_R   0.554700 0.439300 0.323100 -0.650791
O16   O     O_R   0.382730 0.560770 0.443450 -0.641498
O17   O     O_R   0.678000 0.560660 0.617260 -0.603920
O18   O     O_R   0.382730 0.439340 0.322020 -0.642803
O19   O     O_R   0.556550 0.439230 0.617260 -0.629236
O20   O     O_R   0.676910 0.560700 0.445300 -0.615561
O21   O     O_R   0.554700 0.731600 0.615410 -0.652214
O22   O     O_R   0.383810 0.268430 0.323100 -0.651911
O23   O     O_3   0.999960 0.499910 0.999960 -0.523560
O24   O     O_R   0.823040 0.439210 0.054650 -0.643023
O25   O     O_R   0.115380 0.560640 0.883770 -0.637096
O26   O     O_R   0.116150 0.731480 0.176860 -0.596107
Zn1   Zn    Zn3+2 0.457170 0.413230 0.543930 1.049875
Zn2   Zn    Zn3+2 0.456070 0.586770 0.542830 0.977678
Zn3   Zn    Zn3+2 0.456070 0.413270 0.369320 0.982198
Zn4   Zn    Zn3+2 0.630690 0.586730 0.543930 1.034216
Zn5   Zn    Zn3+2 0.042790 0.586680 0.956030 1.006028
Zn6   Zn    Zn3+2 0.043880 0.586640 0.130630 1.064617
Zn7   Zn    Zn3+2 0.043880 0.413140 0.957130 1.034922
Zn8   Zn    Zn3+2 0.869270 0.413190 0.956030 1.032788

loop_
_geom_bond_atom_site_label_1
_geom_bond_atom_site_label_2
_ccdc_geom_bond_type
C54   C56   S    
C43   C44   S    
C47   O24   A    
C15   C17   S    
C29   C30   A    
Br11  C35   S    
O6    Zn7   S    
C53   O5    A    
O11   Zn7   S    
C46   H15   S    
C27   C29   A    
C50   O9    A    
C42   C48   S    
C41   C42   A    
Br6   C7    S    
O8    Zn5   S    
C14   C15   S    
C36   H22   S    
O24   Zn8   S    
Br8   C17   S    
C52   C56   S    
C24   C25   S    
O21   Zn2   S    
O25   Zn5   S    
O1    Zn2   S    
C15   H7    S    
C18   C19   A    
O12   Zn1   S    
C40   O16   A    
O10   Zn6   S    
C22   C50   S    
O23   Zn8   S    
Br7   C15   S    
C18   C26   S    
C6    C7    S    
C34   C57   S    
C51   O3    A    
O14   Zn2   S    
C50   O2    A    
C16   C38   S    
C20   H18   S    
C35   C36   S    
C44   C46   S    
C12   C57   S    
O15   Zn3   S    
C58   C59   A    
O22   Zn3   S    
O7    Zn5   S    
C29   C40   S    
C30   H20   S    
C12   C54   S    
C27   C33   A    
Br4   C6    S    
O23   Zn6   S    
C54   C55   S    
Br1   C55   S    
C5    C58   A    
C52   O19   A    
O20   Zn4   S    
C9    C10   A    
C4    C59   S    
C45   C55   S    
C51   O6    A    
C4    O13   A    
C38   C39   A    
C28   O15   A    
C8    C17   S    
C33   C35   S    
C32   C51   S    
C3    C49   S    
C47   O10   A    
O19   Zn1   S    
C12   C23   S    
C7    H1    S    
C49   O8    A    
C17   H12   S    
O1    Zn3   S    
C12   H23   S    
O18   Zn3   S    
O13   Zn1   S    
Br5   C6    S    
C16   O14   A    
C13   C14   A    
C37   C43   A    
C26   H19   S    
C37   C46   S    
C49   O26   A    
C55   C57   S    
C31   C32   A    
C2    H17   S    
C25   C26   S    
C4    O22   A    
C23   H16   S    
C44   H14   S    
C19   C20   A    
C5    C6    S    
C35   H21   S    
C60   H4    S    
O9    Zn8   S    
C48   O11   A    
C34   C45   S    
O4    Zn4   S    
C25   H10   S    
C30   C31   A    
C53   O7    A    
C45   C56   S    
Br12  C39   S    
C32   C33   A    
C46   H2    S    
C3    C5    A    
C42   C43   A    
C52   O17   A    
C36   H24   S    
Br10  C31   S    
C2    C3    A    
C2    C60   A    
C1    C19   S    
C10   H5    S    
O1    Zn4   S    
C1    O21   A    
O16   Zn2   S    
O3    Zn6   S    
O17   Zn4   S    
C40   O18   A    
C54   H8    S    
Br3   C34   S    
C18   C24   A    
C20   C21   A    
C45   H3    S    
C1    O4    A    
C59   C60   A    
O1    Zn1   S    
Br2   C44   S    
O5    Zn8   S    
C28   O20   A    
C9    C28   S    
C8    C14   A    
C23   C56   S    
C16   O12   A    
C53   C57   S    
O2    Zn7   S    
Br9   C26   S    
O23   Zn7   S    
C21   C22   A    
C22   C24   A    
C11   C13   A    
C11   H6    S    
O26   Zn6   S    
C48   O25   A    
C8    C9    A    
C37   C38   A    
C10   C11   A    
C25   H11   S    
C7    C58   S    
C41   H13   S    
C13   C47   S    
C39   C41   A    
C23   C34   S    
C21   H9    S    
C27   C36   S    
O23   Zn5   S    
