data_mof_unit_62852.cif
_audit_creation_date              2012-12-10T19:05:05-0500
_audit_creation_method            fapswitch 2.2
_symmetry_space_group_name_H-M    P1
_symmetry_Int_Tables_number       1
_space_group_crystal_system       triclinic
_cell_length_a                    13.075298
_cell_length_b                    13.664385
_cell_length_c                    15.788451
_cell_angle_alpha                 90.007669
_cell_angle_beta                  92.643533
_cell_angle_gamma                 85.616045
_cell_volume                      2809.59520463

loop_
_atom_site_label
_atom_site_type_symbol
_atom_type_description
_atom_site_fract_x
_atom_site_fract_y
_atom_site_fract_z
_atom_type_partial_charge
C1    C     C_R   0.481112 0.684924 0.499099 0.899938
C2    C     C_2   0.544668 0.021433 0.502863 -0.037142
C3    C     C_2   0.455286 0.978559 0.497888 -0.036065
C4    C     C_R   0.499250 0.500021 0.661806 0.906681
C5    C     C_1   0.456887 0.874798 0.497949 -0.022876
C6    C     C_1   0.543078 0.125194 0.502575 -0.025733
C7    C     C_1   0.465855 0.787668 0.498371 -0.162203
C8    C     C_2   0.033271 0.473697 0.474782 0.118102
C9    C     C_2   0.966730 0.526341 0.525213 0.119165
C10   C     C_1   0.854474 0.519407 0.517807 0.144574
C11   C     C_1   0.145526 0.480613 0.482193 0.140562
C12   C     C_3   0.390742 0.571784 0.048301 0.340186
C13   C     C_R   0.518886 0.315074 0.500935 0.896536
C14   C     C_R   0.500656 0.500131 0.338185 0.902292
C15   C     C_3   0.393206 0.577566 0.946158 0.198843
C16   C     C_3   0.593818 0.548619 0.953222 -0.296840
C17   C     C_3   0.590853 0.558349 0.051095 -0.236038
C18   C     C_1   0.501031 0.503505 0.249728 -0.183509
C19   C     C_3   0.490123 0.509621 0.916571 0.154396
C20   C     C_3   0.380617 0.676113 0.089935 -0.897623
C21   C     C_3   0.290773 0.552322 0.899424 -0.887109
C22   C     C_3   0.294709 0.522142 0.078761 -0.844096
C23   C     C_3   0.493630 0.511006 0.082832 0.186611
C24   C     C_1   0.356120 0.033872 0.492258 0.204245
C25   C     C_1   0.643831 0.966115 0.508524 0.206872
C26   C     C_3   0.006655 0.594682 0.591748 -0.897559
C27   C     C_3   0.993350 0.405372 0.408235 -0.893827
C28   C     C_1   0.402750 0.679961 0.916642 0.177299
C29   C     C_1   0.623453 0.640181 0.914243 0.199393
C30   C     C_1   0.688081 0.514016 0.091567 0.185025
C31   C     C_3   0.410604 0.334960 0.915121 -0.886961
C32   C     C_3   0.496187 0.403292 0.049982 -0.442720
C33   C     C_3   0.492023 0.401523 0.951938 0.008226
C34   C     C_1   0.498655 0.507111 0.174677 -0.044157
C35   C     C_1   0.493924 0.505754 0.825020 -0.054077
C36   C     C_1   0.496933 0.502709 0.750181 -0.176965
C37   C     C_1   0.534128 0.212326 0.501912 -0.165686
H1    H     H_    0.568381 0.361757 0.073841 0.174447
H2    H     H_    0.226577 0.605633 0.916719 0.236649
H3    H     H_    0.295474 0.556926 0.829441 0.243364
H4    H     H_    0.287255 0.448155 0.052414 0.224264
H5    H     H_    0.297085 0.514752 0.148883 0.242935
H6    H     H_    0.222560 0.567101 0.060925 0.244276
H7    H     H_    0.942871 0.631557 0.626845 0.249891
H8    H     H_    0.059552 0.552789 0.638060 0.243074
H9    H     H_    0.048376 0.652146 0.561394 0.248200
H10   H     H_    0.057138 0.368492 0.373146 0.247308
H11   H     H_    0.951611 0.347912 0.438576 0.247012
H12   H     H_    0.657322 0.493555 0.937085 0.154256
H13   H     H_    0.940477 0.447282 0.361919 0.248737
H14   H     H_    0.340428 0.338372 0.951811 0.240182
H15   H     H_    0.389500 0.352013 0.847611 0.257636
H16   H     H_    0.442339 0.257178 0.918393 0.241204
H17   H     H_    0.587927 0.636646 0.069709 0.154056
H18   H     H_    0.565844 0.362973 0.933158 0.164083
H19   H     H_    0.434440 0.363028 0.076714 0.195572
H20   H     H_    0.308067 0.717208 0.066713 0.249597
H21   H     H_    0.378118 0.671413 0.160032 0.248932
H22   H     H_    0.443906 0.721869 0.075534 0.225652
H23   H     H_    0.267054 0.478999 0.913603 0.251498
N1    N     N_1   0.234540 0.484780 0.486630 -0.099159
N2    N     N_1   0.765460 0.515220 0.513370 -0.097524
N3    N     N_1   0.276944 0.078089 0.487761 -0.193150
N4    N     N_1   0.723003 0.921891 0.513048 -0.190169
N5    N     N_1   0.408811 0.759618 0.893456 -0.190170
N6    N     N_1   0.647379 0.711488 0.883750 -0.178809
N7    N     N_1   0.763942 0.479429 0.123193 -0.199641
O1    O     O_R   0.402510 0.634760 0.495110 -0.610011
O2    O     O_R   0.572960 0.644530 0.503690 -0.598535
O3    O     O_R   0.414740 0.495110 0.618560 -0.612633
O4    O     O_R   0.585180 0.504880 0.627150 -0.605558
O5    O     O_R   0.427040 0.355470 0.496310 -0.600292
O6    O     O_R   0.597490 0.365240 0.504890 -0.610078
O7    O     O_R   0.414820 0.495120 0.372850 -0.612370
O8    O     O_R   0.585260 0.504890 0.381440 -0.604811
Zn1   Zn    Zn3+2 0.386190 0.493480 0.494270 0.981880
Zn2   Zn    Zn3+2 0.613810 0.506520 0.505730 0.990444

loop_
_geom_bond_atom_site_label_1
_geom_bond_atom_site_label_2
_ccdc_geom_bond_type
C27   H11   S    
C33   H18   S    
C4    C36   S    
C13   O5    A    
C32   H1    S    
O1    Zn1   S    
O8    Zn2   S    
C9    C10   S    
C14   C18   S    
N2    Zn2   S    
C13   C37   S    
C30   N7    T    
C21   H2    S    
C12   C15   S    
O4    Zn2   S    
C31   H15   S    
O5    Zn1   S    
C23   C34   S    
C14   O8    A    
C12   C20   S    
C4    O3    A    
C28   N5    T    
C20   H20   S    
C6    C37   T    
C26   H7    S    
C22   H5    S    
C31   H16   S    
C20   H22   S    
C15   C19   S    
C17   C30   S    
C18   C34   T    
C12   C23   S    
C15   C28   S    
C17   C23   S    
C21   H3    S    
O7    Zn1   S    
C21   H23   S    
C16   C19   S    
C14   O7    A    
C25   N4    T    
C3    C24   S    
C13   O6    A    
C9    C26   S    
C2    C3    D    
C24   N3    T    
C8    C11   S    
N1    Zn1   S    
O3    Zn1   S    
C32   C33   S    
C22   H6    S    
C10   N2    T    
C22   H4    S    
C31   C33   S    
C26   H9    S    
C20   H21   S    
C29   N6    T    
C12   C22   S    
C2    C25   S    
C15   C21   S    
C1    O1    A    
C16   H12   S    
C27   H13   S    
C19   C33   S    
C27   H10   S    
C5    C7    T    
C8    C27   S    
O6    Zn2   S    
C16   C17   S    
C19   C35   S    
C26   H8    S    
C11   N1    T    
C16   C29   S    
C1    C7    S    
O2    Zn2   S    
C17   H17   S    
C32   H19   S    
C4    O4    A    
C1    O2    A    
C2    C6    S    
C23   C32   S    
C31   H14   S    
C8    C9    D    
C3    C5    S    
C35   C36   T    
