data_mof_unit_64713.cif
_audit_creation_date              2012-12-10T19:17:53-0500
_audit_creation_method            fapswitch 2.2
_symmetry_space_group_name_H-M    P1
_symmetry_Int_Tables_number       1
_space_group_crystal_system       triclinic
_cell_length_a                    15.994281
_cell_length_b                    14.80019
_cell_length_c                    10.643405
_cell_angle_alpha                 89.754313
_cell_angle_beta                  90.005177
_cell_angle_gamma                 90.000416
_cell_volume                      2519.46660414

loop_
_atom_site_label
_atom_site_type_symbol
_atom_type_description
_atom_site_fract_x
_atom_site_fract_y
_atom_site_fract_z
_atom_type_partial_charge
C1    C     C_R   0.340886 0.500000 0.500026 0.822701
C2    C     C_R   0.087227 0.499999 0.500014 0.152032
C3    C     C_R   0.499976 0.500229 0.258731 0.786811
C4    C     C_R   0.500024 0.499771 0.741269 0.786811
C5    C     C_1   0.251754 0.499999 0.500028 -0.169989
C6    C     C_1   0.748246 0.500001 0.499972 -0.169990
C7    C     C_R   0.499994 0.951508 0.614253 -0.053759
C8    C     C_R   0.500006 0.048491 0.385747 -0.053759
C9    C     C_R   0.500007 0.952222 0.385741 -0.052098
C10   C     C_R   0.499993 0.047778 0.614259 -0.052098
C11   C     C_R   0.500001 0.902815 0.499994 -0.073570
C12   C     C_R   0.659114 0.500000 0.499974 0.822701
C13   C     C_R   0.499999 0.097185 0.500006 -0.073570
C14   C     C_3   0.499986 0.586036 0.039857 -0.112849
C15   C     C_3   0.500014 0.413964 0.960143 -0.112849
C16   C     C_3   0.568698 0.542629 0.957753 -0.166439
C17   C     C_3   0.431302 0.457371 0.042247 -0.166439
C18   C     C_3   0.431303 0.542610 0.957698 -0.166436
C19   C     C_3   0.568697 0.457390 0.042301 -0.166436
C20   C     C_3   0.500015 0.499286 0.877879 0.004775
C21   C     C_3   0.499985 0.500714 0.122121 0.004775
C22   C     C_1   0.500000 0.802434 0.499993 0.164899
C23   C     C_1   0.823304 0.500001 0.499976 -0.064687
C24   C     C_1   0.499999 0.197566 0.500007 0.164899
C25   C     C_1   0.499984 0.096160 0.732447 0.249786
C26   C     C_1   0.500016 0.903840 0.267553 0.249786
C27   C     C_1   0.500007 0.097616 0.267568 0.251098
C28   C     C_1   0.499993 0.902384 0.732432 0.251098
C29   C     C_1   0.176695 0.499999 0.500024 -0.064687
C30   C     C_R   0.956371 0.581853 0.506583 -0.172347
C31   C     C_R   0.043629 0.418146 0.493417 -0.172347
C32   C     C_R   0.043630 0.581853 0.506597 -0.172349
C33   C     C_R   0.956370 0.418147 0.493403 -0.172349
C34   C     C_R   0.912773 0.500000 0.499986 0.152032
Cu1   Cu    Cu3+1 0.500000 0.589220 0.500000 0.989611
Cu2   Cu    Cu3+1 0.500000 0.410780 0.500000 0.989611
H1    H     H_    0.375129 0.577398 0.919878 0.142152
H2    H     H_    0.077029 0.354571 0.488303 0.142266
H3    H     H_    0.624871 0.422602 0.080122 0.142152
H4    H     H_    0.499973 0.656542 0.075071 0.171081
H5    H     H_    0.500026 0.343458 0.924928 0.171081
H6    H     H_    0.624873 0.577431 0.919978 0.142159
H7    H     H_    0.375126 0.422569 0.080022 0.142159
H8    H     H_    0.077032 0.645428 0.511721 0.142266
H9    H     H_    0.922968 0.354572 0.488279 0.142266
H10   H     H_    0.922971 0.645428 0.511697 0.142266
N1    N     N_1   0.500000 0.276710 0.500000 -0.150783
N2    N     N_1   0.500000 0.723290 0.500000 -0.150783
N3    N     N_1   0.499976 0.134821 0.826741 -0.262376
N4    N     N_1   0.500024 0.865179 0.173259 -0.262376
N5    N     N_1   0.500007 0.136879 0.173287 -0.252985
N6    N     N_1   0.499993 0.863121 0.826713 -0.252985
O1    O     O_R   0.380310 0.575320 0.500020 -0.569900
O2    O     O_R   0.619690 0.424680 0.499980 -0.569900
O3    O     O_R   0.619690 0.575320 0.499980 -0.569897
O4    O     O_R   0.380310 0.424680 0.500020 -0.569897
O5    O     O_R   0.499980 0.575330 0.316850 -0.579856
O6    O     O_R   0.500020 0.424670 0.683150 -0.579856
O7    O     O_R   0.500020 0.575330 0.683150 -0.571319
O8    O     O_R   0.499980 0.424670 0.316850 -0.571319

loop_
_geom_bond_atom_site_label_1
_geom_bond_atom_site_label_2
_ccdc_geom_bond_type
C17   C18   S    
C7    C10   A    
C22   N2    T    
C17   C21   S    
C17   H7    S    
C8    C13   A    
Cu2   O4    S    
C30   C32   A    
Cu1   O1    S    
C33   H9    S    
C14   C18   S    
C11   C22   S    
Cu2   O6    S    
Cu1   Cu2   S    
C31   H2    S    
Cu1   O5    S    
C16   C20   S    
C23   C34   S    
C3    O8    A    
C26   N4    T    
C31   C33   A    
C33   C34   A    
C32   H8    S    
C15   C19   S    
C30   H10   S    
C28   N6    T    
C19   H3    S    
C16   C19   S    
C1    C5    S    
C6    C23   T    
C3    O5    A    
C14   C21   S    
C2    C32   A    
C19   C21   S    
C1    O4    A    
C27   N5    T    
C9    C26   S    
C7    C11   A    
C25   N3    T    
C9    C11   A    
C6    C12   S    
C15   C20   S    
C14   C16   S    
C3    C21   S    
C12   O3    A    
Cu2   O2    S    
C30   C34   A    
C10   C25   S    
C14   H4    S    
C4    O7    A    
C5    C29   T    
C16   H6    S    
C2    C29   S    
C15   H5    S    
Cu2   N1    S    
Cu1   O7    S    
C18   C20   S    
C4    O6    A    
C15   C17   S    
C8    C27   S    
C1    O1    A    
C8    C9    A    
C24   N1    T    
Cu1   O3    S    
C18   H1    S    
C12   O2    A    
C7    C28   S    
C13   C24   S    
Cu1   N2    S    
C2    C31   A    
Cu2   O8    S    
C10   C13   A    
C4    C20   S    
