data_mof_unit_65997.cif
_audit_creation_date              2012-12-10T17:24:53-0500
_audit_creation_method            fapswitch 2.2
_symmetry_space_group_name_H-M    P1
_symmetry_Int_Tables_number       1
_space_group_crystal_system       triclinic
_cell_length_a                    10.115173
_cell_length_b                    10.842629
_cell_length_c                    19.133515
_cell_angle_alpha                 89.926437
_cell_angle_beta                  81.839042
_cell_angle_gamma                 95.294659
_cell_volume                      2068.13566587

loop_
_atom_site_label
_atom_site_type_symbol
_atom_type_description
_atom_site_fract_x
_atom_site_fract_y
_atom_site_fract_z
_atom_type_partial_charge
C1    C     C_R   0.556106 0.732521 0.493811 0.950589
C2    C     C_R   0.499946 0.503629 0.365700 0.898295
C3    C     C_R   0.434599 0.569695 0.752941 -0.208480
C4    C     C_R   0.560768 0.416912 0.249710 -0.208850
C5    C     C_R   0.429991 0.561746 0.825217 -0.158726
C6    C     C_R   0.559448 0.414749 0.177740 -0.160368
C7    C     C_R   0.489043 0.467000 0.855123 -0.011617
C8    C     C_R   0.496450 0.503895 0.145338 -0.011953
C9    C     C_R   0.549637 0.375686 0.812731 0.159795
C10   C     C_R   0.437755 0.599771 0.184761 0.161588
C11   C     C_R   0.553990 0.383367 0.739062 0.117961
C12   C     C_R   0.443806 0.267500 0.503014 0.954227
C13   C     C_R   0.438915 0.601933 0.258151 0.118603
C14   C     C_R   0.498236 0.482909 0.709711 -0.119873
C15   C     C_R   0.498959 0.508155 0.290171 -0.116738
C16   C     C_R   0.494036 0.493957 0.070098 0.320881
C17   C     C_R   0.489567 0.469059 0.930687 0.322466
C18   C     C_2   0.587837 0.864294 0.485101 -0.344551
C19   C     C_2   0.411738 0.135734 0.499654 -0.346810
C20   C     C_2   0.486892 0.934158 0.482936 -0.114239
C21   C     C_2   0.512053 0.065877 0.480713 -0.127220
C22   C     C_2   0.927362 0.510190 0.505725 -0.094642
C23   C     C_2   0.072652 0.489839 0.494253 -0.096179
C24   C     C_R   0.499776 0.495404 0.634262 0.903739
H1    H     H_    0.390212 0.645057 0.730510 0.169778
H2    H     H_    0.879843 0.385040 0.435739 0.169329
H3    H     H_    0.308585 0.095848 0.513190 0.158309
H4    H     H_    0.691311 0.904169 0.481323 0.158121
H5    H     H_    0.607882 0.345562 0.274184 0.168607
H6    H     H_    0.383061 0.631703 0.857902 0.177459
H7    H     H_    0.605462 0.341662 0.147318 0.176723
H8    H     H_    0.615496 0.105295 0.467245 0.192614
H9    H     H_    0.383140 0.894746 0.486798 0.199465
H10   H     H_    0.108588 0.422000 0.456236 0.165854
H11   H     H_    0.891438 0.578056 0.543727 0.165504
H12   H     H_    0.120141 0.614922 0.564281 0.170516
I1    I     I_    0.624400 0.222636 0.860684 -0.238283
I2    I     I_    0.357994 0.745422 0.132710 -0.236886
I3    I     I_    0.633841 0.239891 0.673317 -0.286112
I4    I     I_    0.360337 0.751183 0.319358 -0.298741
N1    N     N_R   0.606617 0.468086 0.957271 -0.125829
N2    N     N_R   0.376825 0.494104 0.043585 -0.126160
N3    N     N_R   0.608662 0.479327 0.026144 -0.143684
N4    N     N_R   0.374792 0.482956 0.974694 -0.143622
N5    N     N_2   0.842710 0.448880 0.471430 -0.187679
N6    N     N_2   0.157290 0.551120 0.528570 -0.188393
O1    O     O_R   0.431050 0.692470 0.505750 -0.606363
O2    O     O_R   0.568950 0.307530 0.494250 -0.603912
O3    O     O_R   0.651120 0.659650 0.487410 -0.611376
O4    O     O_R   0.348880 0.340350 0.512590 -0.612129
O5    O     O_R   0.389930 0.516430 0.611030 -0.607524
O6    O     O_R   0.610070 0.483570 0.388970 -0.611016
O7    O     O_R   0.610000 0.483610 0.592700 -0.592440
O8    O     O_R   0.390000 0.516390 0.407300 -0.594780
Zn1   Zn    Zn3+2 0.353060 0.521920 0.512240 0.977188
Zn2   Zn    Zn3+2 0.646940 0.478080 0.487760 0.977566

loop_
_geom_bond_atom_site_label_1
_geom_bond_atom_site_label_2
_ccdc_geom_bond_type
N6    Zn1   S    
C12   O4    A    
N2    N4    A    
H12   N6    S    
C22   H11   S    
O3    Zn2   S    
N1    N3    A    
O8    Zn1   S    
C18   C20   D    
C4    H5    S    
C10   I2    S    
C12   O2    A    
C23   H10   S    
C24   O5    A    
C9    I1    S    
C6    H7    S    
C17   N4    A    
C18   H4    S    
C8    C16   S    
C23   N6    D    
C11   I3    S    
C2    C15   S    
C9    C11   A    
C16   N3    A    
C1    C18   S    
C3    C14   A    
C2    O6    A    
C4    C15   A    
C20   H9    S    
C12   C19   S    
C8    C10   A    
C11   C14   A    
O5    Zn1   S    
C13   C15   A    
C21   H8    S    
C17   N1    A    
C4    C6    A    
O6    Zn2   S    
C16   N2    A    
C3    H1    S    
C22   N5    D    
C19   H3    S    
C20   C21   S    
C7    C9    A    
C5    H6    S    
C2    O8    A    
O7    Zn2   S    
C14   C24   S    
O2    Zn2   S    
O1    Zn1   S    
C5    C7    A    
C1    O1    A    
C13   I4    S    
C6    C8    A    
H2    N5    S    
C19   C21   D    
C24   O7    A    
C22   C23   S    
C1    O3    A    
O4    Zn1   S    
N5    Zn2   S    
C3    C5    A    
C10   C13   A    
C7    C17   S    
