data_mof_unit_28453.cif
_audit_creation_date              2012-10-26T19:42:42-0400
_audit_creation_method            fapswitch 2.2
_symmetry_space_group_name_H-M    P1
_symmetry_Int_Tables_number       1
_space_group_crystal_system       triclinic
_cell_length_a                    19.318884
_cell_length_b                    10.861413
_cell_length_c                    9.621901
_cell_angle_alpha                 89.82047
_cell_angle_beta                  90.027646
_cell_angle_gamma                 94.529272
_cell_volume                      2012.6521928

loop_
_atom_site_label
_atom_site_type_symbol
_atom_type_description
_atom_site_fract_x
_atom_site_fract_y
_atom_site_fract_z
_atom_type_partial_charge
C1    C     C_R   0.504219 0.262922 0.501330 0.538228
C2    C     C_R   0.854785 0.529102 0.498952 -0.025553
C3    C     C_R   0.523049 0.115838 0.765372 -0.056517
C4    C     C_R   0.367598 0.500741 0.499910 0.540067
C5    C     C_R   0.505171 0.053578 0.888667 -0.108164
C6    C     C_R   0.470336 0.936946 0.883900 -0.126731
C7    C     C_R   0.459957 0.877636 0.756566 -0.084417
C8    C     C_R   0.484652 0.934869 0.631413 0.028539
C9    C     C_R   0.505804 0.061900 0.634355 0.026214
C10   C     C_R   0.508297 0.128654 0.506354 -0.012808
C11   C     C_R   0.505576 0.064281 0.380335 -0.150022
C12   C     C_R   0.291785 0.505687 0.499245 0.009243
C13   C     C_R   0.499580 0.936686 0.379439 -0.164768
C14   C     C_R   0.489834 0.870468 0.503861 -0.008778
C15   C     C_R   0.585005 0.676051 0.150771 -0.096430
C16   C     C_R   0.494985 0.736687 0.500548 0.540825
C17   C     C_R   0.619804 0.776179 0.088277 -0.204238
C18   C     C_R   0.620580 0.784212 0.947011 -0.124619
C19   C     C_R   0.588714 0.689108 0.864843 0.304364
C20   C     C_R   0.542777 0.590722 0.926703 0.119392
C21   C     C_R   0.541798 0.588387 0.076450 0.053835
C22   C     C_R   0.461059 0.413455 0.075114 0.339716
C23   C     C_R   0.930938 0.530783 0.497372 0.323111
C24   C     C_R   0.459033 0.416289 0.925577 0.344446
C25   C     C_R   0.632356 0.498314 0.499969 0.531903
C26   C     C_R   0.257437 0.544369 0.617862 -0.146684
C27   C     C_R   0.185623 0.549607 0.617318 -0.116620
C28   C     C_R   0.146843 0.517396 0.497519 0.036688
C29   C     C_R   0.181400 0.480056 0.378186 -0.117456
C30   C     C_R   0.253245 0.474258 0.379069 -0.126505
C31   C     C_3   0.346066 0.356946 0.871467 -0.093878
C32   C     C_R   0.070806 0.522595 0.497275 0.339499
C33   C     C_R   0.818785 0.465643 0.607348 -0.075221
C34   C     C_R   0.746467 0.448675 0.607436 0.233383
C35   C     C_R   0.708666 0.501695 0.499343 -0.039457
C36   C     C_R   0.744772 0.565739 0.391311 -0.095010
C37   C     C_R   0.817091 0.581716 0.390533 0.241382
Cu1   Cu    Cu3+1 0.500000 0.499990 0.640660 1.033254
Cu2   Cu    Cu3+1 0.500000 0.500010 0.359340 0.994381
H1    H     H_    0.286131 0.572662 0.710434 0.111833
H2    H     H_    0.160658 0.579957 0.710495 0.141146
H3    H     H_    0.152988 0.454573 0.284228 0.141026
H4    H     H_    0.278539 0.444460 0.285943 0.145561
H5    H     H_    0.847213 0.423319 0.689520 0.175079
H6    H     H_    0.716599 0.608075 0.308860 0.155760
H7    H     H_    0.508900 0.112510 0.281538 0.150493
H8    H     H_    0.415143 0.248726 0.089617 0.315099
H9    H     H_    0.639604 0.764966 0.704756 0.300894
H10   H     H_    0.315924 0.322927 0.779250 0.153621
H11   H     H_    0.339029 0.457365 0.881954 0.096498
H12   H     H_    0.552489 0.203975 0.775424 0.149775
H13   H     H_    0.323267 0.306699 0.963149 0.121757
H14   H     H_    0.671252 0.336312 0.676840 0.324759
H15   H     H_    0.894878 0.685049 0.314644 0.346437
H16   H     H_    0.517091 0.097046 0.987866 0.112061
H17   H     H_    0.453252 0.890724 0.979161 0.110911
H18   H     H_    0.431205 0.788221 0.757898 0.134419
H19   H     H_    0.502223 0.889979 0.280480 0.138114
H20   H     H_    0.594764 0.671908 0.258603 0.194785
H21   H     H_    0.649522 0.844940 0.149935 0.136932
H22   H     H_    0.651756 0.860972 0.900775 0.120715
N1    N     N_R   0.033842 0.505044 0.377938 -0.222824
N2    N     N_R   0.965185 0.508765 0.378023 -0.190628
N3    N     N_R   0.967674 0.547238 0.616962 -0.215837
N4    N     N_R   0.036343 0.543757 0.616759 -0.222002
N5    N     N_R   0.500660 0.501210 0.147910 -0.236503
N6    N     N_R   0.500680 0.501290 0.852040 -0.247828
O1    O     O_R   0.499990 0.319640 0.618810 -0.479875
O2    O     O_3   0.608937 0.690277 0.728761 -0.632841
O3    O     O_3   0.416095 0.331461 0.852546 -0.549955
O4    O     O_3   0.715498 0.376716 0.712070 -0.673542
O5    O     O_3   0.848139 0.651906 0.284460 -0.665833
O6    O     O_R   0.500000 0.319660 0.381240 -0.448334
O7    O     O_R   0.400140 0.499970 0.618820 -0.494890
O8    O     O_R   0.400150 0.500000 0.381250 -0.463411
O9    O     O_R   0.500000 0.680340 0.618760 -0.465827
O10   O     O_R   0.500010 0.680360 0.381190 -0.538975
O11   O     O_R   0.599850 0.500000 0.618750 -0.418448
O12   O     O_R   0.599860 0.500030 0.381180 -0.539571
O13   O     O_3   0.423757 0.322261 0.149618 -0.675145

loop_
_geom_bond_atom_site_label_1
_geom_bond_atom_site_label_2
_ccdc_geom_bond_type
C21   N5    A    
C20   N6    A    
C35   C36   A    
H9    O2    S    
C24   O3    S    
C7    C8    A    
Cu1   O9    S    
C26   C27   A    
C29   C30   A    
Cu2   O10   S    
C28   C29   A    
C18   C19   A    
Cu1   Cu2   S    
C29   H3    S    
C1    O1    A    
C16   O10   A    
C22   N5    A    
C4    O8    A    
C24   N6    A    
C31   O3    S    
C19   C20   A    
C8    C9    A    
Cu2   O8    S    
C4    C12   S    
C9    C10   A    
C31   H13   S    
C4    O7    A    
C23   N2    A    
C16   O9    A    
C13   C14   A    
H8    O13   S    
C31   H10   S    
C34   C35   A    
C33   C34   A    
C25   O11   A    
C28   C32   S    
C3    H12   S    
C13   H19   S    
Cu1   O11   S    
C12   C26   A    
Cu2   O12   S    
N1    N2    A    
C3    C9    A    
C27   H2    S    
C17   C18   A    
C36   H6    S    
Cu1   N6    S    
C25   C35   S    
C2    C33   A    
C23   N3    A    
Cu1   O1    S    
Cu2   N5    S    
C14   C16   S    
C30   H4    S    
C19   O2    S    
C31   H11   S    
H14   O4    S    
C2    C23   S    
Cu1   O7    S    
C15   C17   A    
C36   C37   A    
C8    C14   A    
C12   C30   A    
C25   O12   A    
C33   H5    S    
C15   H20   S    
C5    H16   S    
C1    C10   S    
C6    H17   S    
C3    C5    A    
C18   H22   S    
C6    C7    A    
C1    O6    A    
N3    N4    A    
C22   O13   S    
C11   C13   A    
C2    C37   A    
C26   H1    S    
C5    C6    A    
C22   C24   A    
Cu2   O6    S    
C10   C11   A    
C17   H21   S    
C32   N1    A    
C15   C21   A    
H15   O5    S    
C20   C21   A    
C37   O5    S    
C27   C28   A    
C11   H7    S    
C34   O4    S    
C7    H18   S    
C32   N4    A    
