data_mof_unit_56024.cif
_audit_creation_date              2012-12-10T17:11:58-0500
_audit_creation_method            fapswitch 2.2
_symmetry_space_group_name_H-M    P1
_symmetry_Int_Tables_number       1
_space_group_crystal_system       triclinic
_cell_length_a                    11.648594
_cell_length_b                    13.014152
_cell_length_c                    15.683718
_cell_angle_alpha                 92.250303
_cell_angle_beta                  74.162373
_cell_angle_gamma                 101.188804
_cell_volume                      2243.63040724

loop_
_atom_site_label
_atom_site_type_symbol
_atom_type_description
_atom_site_fract_x
_atom_site_fract_y
_atom_site_fract_z
_atom_type_partial_charge
C1    C     C_R   0.523814 0.701568 0.498819 0.799478
C2    C     C_R   0.335552 0.008201 0.524338 0.433040
C3    C     C_R   0.657741 0.883346 0.471411 -0.097160
C4    C     C_R   0.342857 0.117266 0.528926 -0.110922
C5    C     C_R   0.436209 0.859346 0.513637 -0.242342
C6    C     C_R   0.564098 0.141090 0.482030 -0.264566
C7    C     C_R   0.442721 0.966697 0.507451 0.003757
C8    C     C_R   0.557583 0.033562 0.485776 -0.035709
C9    C     C_R   0.948199 0.609669 0.572494 -0.123169
C10   C     C_R   0.053624 0.393586 0.424199 -0.154508
C11   C     C_R   0.826894 0.594358 0.567715 0.127618
C12   C     C_R   0.476052 0.298633 0.501977 0.865176
C13   C     C_R   0.173823 0.406849 0.431037 0.156896
C14   C     C_R   0.855383 0.454397 0.468297 0.020011
C15   C     C_R   0.145191 0.546635 0.530666 -0.012875
C16   C     C_R   0.426367 0.492536 0.668838 0.918448
C17   C     C_R   0.573841 0.508072 0.330911 0.875714
C18   C     C_R   0.976945 0.461375 0.472472 -0.031166
C19   C     C_R   0.024009 0.540341 0.525838 -0.039998
C20   C     C_R   0.381279 0.472906 0.765563 -0.373102
C21   C     C_R   0.620022 0.517162 0.232776 -0.371146
C22   C     C_R   0.231983 0.383927 0.894339 0.419744
C23   C     C_R   0.386457 0.370813 0.073282 0.505524
C24   C     C_R   0.785952 0.555455 0.097406 0.463732
C25   C     C_R   0.264150 0.415109 0.804718 0.341177
C26   C     C_R   0.745768 0.544786 0.190242 0.317592
C27   C     C_R   0.462284 0.503098 0.817780 0.491275
C28   C     C_R   0.537202 0.500155 0.180453 0.456261
C29   C     C_R   0.440917 0.452896 0.900516 -0.112504
C30   C     C_R   0.579063 0.485237 0.088270 -0.139724
C31   C     C_R   0.322839 0.395087 0.940631 -0.301628
C32   C     C_R   0.704090 0.519969 0.045150 -0.259071
C33   C     C_R   0.532486 0.463136 0.946112 -0.131993
C34   C     C_R   0.658419 0.483977 0.902533 0.475698
C35   C     C_R   0.497580 0.441936 0.037674 -0.154647
C36   C     C_3   0.202247 0.177145 0.028193 -0.155842
C37   C     C_3   0.900539 0.609482 0.841187 -0.225143
C38   C     C_2   0.992700 0.700716 0.623407 0.271736
C39   C     C_2   0.011908 0.307630 0.367659 0.375951
C40   C     C_3   0.390053 0.598112 0.210052 -0.260584
C41   C     C_3   0.533071 0.677755 0.820925 -0.344905
C42   C     C_3   0.852559 0.658031 0.270271 -0.161982
C43   C     C_3   0.103651 0.443889 0.757806 -0.177294
C44   C     C_3   0.052906 0.410135 0.986233 -0.137428
C45   C     C_R   0.300498 0.346624 0.024404 0.412363
C46   C     C_3   0.919170 0.704440 0.042727 -0.279388
C47   C     C_3   0.441561 0.247011 0.146075 -0.265126
C48   C     C_3   0.705598 0.356307 0.803571 -0.308058
C49   C     C_2   0.227688 0.156681 0.563397 0.437581
C50   C     C_2   0.773355 0.843212 0.447136 0.370786
C51   C     C_3   0.812571 0.084021 0.526745 -0.309706
C52   C     C_3   0.189641 0.915352 0.466178 -0.342700
C53   C     C_R   0.744332 0.516087 0.951498 0.403392
C54   C     C_R   0.459022 0.184093 0.505072 -0.156924
C55   C     C_R   0.541355 0.816419 0.495591 -0.216095
C56   C     C_R   0.664764 0.992470 0.469247 0.514630
Cu1   Cu    Cu3+1 0.386820 0.492450 0.493500 0.985414
Cu2   Cu    Cu3+1 0.613180 0.507550 0.506500 0.957889
H1    H     H_    0.233639 0.356185 0.395221 0.178356
H2    H     H_    0.837841 0.666328 0.850755 0.174836
H3    H     H_    0.906733 0.570392 0.776446 0.206224
H4    H     H_    0.992352 0.655165 0.838588 0.153740
H5    H     H_    0.087181 0.722709 0.622986 0.102342
H6    H     H_    0.916615 0.280376 0.372256 0.090054
H7    H     H_    0.405800 0.618799 0.139060 0.139172
H8    H     H_    0.444922 0.659104 0.242206 0.134165
H9    H     H_    0.292783 0.597151 0.243647 0.191586
H10   H     H_    0.511019 0.677896 0.894611 0.151479
H11   H     H_    0.456479 0.696264 0.798448 0.139484
H12   H     H_    0.766973 0.644906 0.603533 0.181191
H13   H     H_    0.613242 0.740874 0.795523 0.205405
H14   H     H_    0.862360 0.653470 0.338365 0.185195
H15   H     H_    0.778447 0.702412 0.273875 0.119548
H16   H     H_    0.940065 0.702277 0.229132 0.171889
H17   H     H_    0.069817 0.432532 0.697879 0.176714
H18   H     H_    0.144751 0.528529 0.759765 0.097035
H19   H     H_    0.023714 0.421552 0.815484 0.204310
H20   H     H_    0.065892 0.484951 0.949620 0.166310
H21   H     H_    0.083680 0.426969 0.047282 0.197198
H22   H     H_    0.954013 0.377293 0.006860 0.198033
H23   H     H_    0.652300 0.192459 0.462221 0.200686
H24   H     H_    0.015920 0.737019 0.009869 0.177173
H25   H     H_    0.892023 0.747866 0.105004 0.136314
H26   H     H_    0.864403 0.719341 0.998193 0.156546
H27   H     H_    0.529308 0.287011 0.157235 0.157049
H28   H     H_    0.458691 0.206446 0.081186 0.102217
H29   H     H_    0.399732 0.185912 0.198601 0.189938
H30   H     H_    0.614241 0.305686 0.828123 0.150207
H31   H     H_    0.770126 0.335330 0.837825 0.164628
H32   H     H_    0.740085 0.340533 0.732010 0.191241
H33   H     H_    0.146463 0.119020 0.544987 0.081648
H34   H     H_    0.347867 0.808152 0.533024 0.201807
H35   H     H_    0.788632 0.784287 0.487295 0.084224
H36   H     H_    0.822568 0.012941 0.559133 0.172584
H37   H     H_    0.747403 0.125567 0.574014 0.143587
H38   H     H_    0.902496 0.137383 0.509792 0.190726
H39   H     H_    0.252054 0.868231 0.422797 0.160873
H40   H     H_    0.187061 0.985931 0.429365 0.168458
H41   H     H_    0.096903 0.866645 0.483020 0.217190
H42   H     H_    0.183853 0.601961 0.572839 0.108689
H43   H     H_    0.816611 0.398807 0.426329 0.130257
H44   H     H_    0.267890 0.144085 0.053360 0.127428
H45   H     H_    0.227982 0.176243 0.954421 0.149155
H46   H     H_    0.112192 0.124976 0.051917 0.188257
N1    N     N_R   0.216750 0.481110 0.483710 -0.192228
N2    N     N_R   0.783250 0.518890 0.516290 -0.212167
O1    O     O_R   0.419950 0.645670 0.495380 -0.596913
O2    O     O_3   0.868161 0.533284 0.909781 -0.587006
O3    O     O_2   0.923143 0.754883 0.666257 -0.554912
O4    O     O_2   0.084953 0.264192 0.314981 -0.480502
O5    O     O_3   0.414811 0.497977 0.219499 -0.500771
O6    O     O_3   0.562794 0.581694 0.786708 -0.512639
O7    O     O_3   0.831431 0.555115 0.237949 -0.547576
O8    O     O_3   0.186792 0.376889 0.752890 -0.489550
O9    O     O_3   0.113132 0.335924 0.933234 -0.548995
O10   O     O_3   0.907231 0.596302 0.058964 -0.537137
O11   O     O_3   0.361779 0.318083 0.153366 -0.482823
O12   O     O_R   0.580050 0.354330 0.504620 -0.606635
O13   O     O_3   0.699136 0.463338 0.813215 -0.531136
O14   O     O_2   0.220182 0.227012 0.617195 -0.487920
O15   O     O_2   0.855367 0.878886 0.382537 -0.531366
O16   O     O_3   0.777233 0.059128 0.448035 -0.549329
O17   O     O_3   0.222691 0.942322 0.545465 -0.595162
O18   O     O_R   0.611110 0.658410 0.506370 -0.624186
O19   O     O_R   0.388890 0.341590 0.493630 -0.562705
O20   O     O_R   0.350820 0.490050 0.621260 -0.547549
O21   O     O_R   0.649180 0.509950 0.378740 -0.557418
O22   O     O_R   0.541970 0.502800 0.632250 -0.535093
O23   O     O_R   0.458030 0.497200 0.367750 -0.538536
O24   O     O_3   0.192704 0.278282 0.061660 -0.508380

loop_
_geom_bond_atom_site_label_1
_geom_bond_atom_site_label_2
_ccdc_geom_bond_type
Cu1   N1    S    
C21   C26   A    
Cu2   O22   S    
C23   C45   A    
C27   C29   A    
C14   C18   A    
C2    C7    A    
C15   H42   S    
C8    C56   A    
C37   H4    S    
C11   H12   S    
C7    C8    A    
C2    O17   S    
C15   C19   A    
C39   H6    S    
C30   C35   A    
C36   H45   S    
C47   H27   S    
Cu1   O23   S    
C24   C26   A    
C43   O8    S    
Cu1   O19   S    
C52   O17   S    
C49   O14   D    
C20   C25   A    
C29   C33   A    
C52   H39   S    
Cu2   O12   S    
C36   H44   S    
C18   C19   A    
C52   H40   S    
C46   H24   S    
C3    C55   A    
C9    C19   A    
C39   O4    D    
C44   O9    S    
C40   H9    S    
C48   H30   S    
C40   O5    S    
C51   H38   S    
C41   H13   S    
C45   O24   S    
C6    H23   S    
C48   H32   S    
C50   O15   D    
C49   H33   S    
C3    C50   S    
C41   H10   S    
C28   O5    S    
C43   H17   S    
C42   H16   S    
C22   C31   A    
C17   O23   A    
C5    H34   S    
C47   H28   S    
C44   H22   S    
C37   O2    S    
C13   N1    A    
Cu1   O20   S    
C5    C7    A    
C17   O21   A    
C14   H43   S    
C6    C8    A    
C12   O19   A    
C22   C25   A    
C17   C21   S    
C10   C39   S    
Cu2   N2    S    
C47   H29   S    
C2    C4    A    
C24   C32   A    
C36   O24   S    
C9    C11   A    
C3    C56   A    
C42   O7    S    
C47   O11   S    
C16   C20   S    
C11   N2    A    
C42   H14   S    
C33   C34   A    
C38   O3    D    
C16   O22   A    
C1    O1    A    
C12   O12   A    
C22   O9    S    
Cu1   O1    S    
C21   C28   A    
C27   O6    S    
C6    C54   A    
C23   C35   A    
C40   H7    S    
C46   H26   S    
C32   C53   A    
C41   H11   S    
C38   H5    S    
C34   O13   S    
C42   H15   S    
C4    C54   A    
C5    C55   A    
C44   H21   S    
C10   C13   A    
C23   O11   S    
C37   H3    S    
C50   H35   S    
C24   O10   S    
C13   H1    S    
C20   C27   A    
C43   H19   S    
C52   H41   S    
Cu2   O18   S    
C46   O10   S    
C4    C49   S    
C36   H46   S    
C15   N1    A    
C44   H20   S    
C1    C55   S    
C1    O18   A    
C29   C31   A    
C25   O8    S    
C30   C32   A    
C53   O2    S    
Cu1   Cu2   S    
C10   C18   A    
C28   C30   A    
C9    C38   S    
C33   C35   A    
C41   O6    S    
C26   O7    S    
C37   H2    S    
C51   H36   S    
C46   H25   S    
Cu2   O21   S    
C34   C53   A    
C31   C45   A    
C14   N2    A    
C51   H37   S    
C51   O16   S    
C48   O13   S    
C43   H18   S    
C40   H8    S    
C16   O20   A    
C12   C54   S    
C48   H31   S    
C56   O16   S    
