data_mof_unit_44931.cif
_audit_creation_date              2012-12-11T14:52:31-0500
_audit_creation_method            fapswitch 2.2
_symmetry_space_group_name_H-M    P1
_symmetry_Int_Tables_number       1
_space_group_crystal_system       triclinic
_cell_length_a                    19.070335
_cell_length_b                    11.08951
_cell_length_c                    18.887709
_cell_angle_alpha                 90.027429
_cell_angle_beta                  90.759825
_cell_angle_gamma                 90.451715
_cell_volume                      3993.9093282

loop_
_atom_site_label
_atom_site_type_symbol
_atom_type_description
_atom_site_fract_x
_atom_site_fract_y
_atom_site_fract_z
_atom_type_partial_charge
C1    C     C_R   0.271677 0.041479 0.853524 0.555353
C2    C     C_R   0.728368 0.041306 0.146562 0.525987
C3    C     C_R   0.771678 0.541479 0.853524 0.555340
C4    C     C_R   0.228368 0.541306 0.146562 0.525952
C5    C     C_3   0.520988 0.732993 0.966016 0.151663
C6    C     C_3   0.479614 0.733571 0.033494 0.149738
C7    C     C_3   0.020987 0.232993 0.966016 0.151664
C8    C     C_3   0.979614 0.233571 0.033494 0.149739
C9    C     C_R   0.300033 0.526332 0.961402 -0.114573
C10   C     C_R   0.698616 0.526978 0.038417 -0.119910
C11   C     C_R   0.800033 0.026331 0.961402 -0.114573
C12   C     C_R   0.198616 0.026979 0.038417 -0.119911
C13   C     C_R   0.301416 0.513457 0.035919 0.139537
C14   C     C_R   0.697473 0.514561 0.963905 0.141769
C15   C     C_R   0.801415 0.013456 0.035918 0.139534
C16   C     C_R   0.197473 0.014561 0.963905 0.141769
C17   C     C_R   0.249424 0.577999 0.075189 0.043536
C18   C     C_R   0.751370 0.577141 0.925241 0.044051
C19   C     C_R   0.749424 0.077998 0.075189 0.043531
C20   C     C_R   0.251369 0.077141 0.925241 0.044049
C21   C     C_R   0.202711 0.656122 0.038556 0.004762
C22   C     C_R   0.800247 0.651787 0.962765 0.000691
C23   C     C_R   0.702710 0.156121 0.038556 0.004761
C24   C     C_R   0.300247 0.151789 0.962765 0.000689
C25   C     C_R   0.200888 0.656998 0.965594 -0.095872
C26   C     C_R   0.801710 0.651128 0.035747 -0.084934
C27   C     C_R   0.700888 0.156997 0.965594 -0.095858
C28   C     C_R   0.301710 0.151130 0.035746 -0.084929
C29   C     C_R   0.251609 0.599264 0.926403 0.017758
C30   C     C_R   0.748696 0.596870 0.074126 0.017105
C31   C     C_R   0.751609 0.099264 0.926403 0.017769
C32   C     C_R   0.248696 0.096871 0.074126 0.017105
C33   C     C_R   0.440917 0.767614 0.524047 -0.148303
C34   C     C_R   0.452620 0.771722 0.451761 -0.154007
C35   C     C_R   0.940897 0.267658 0.524043 -0.148279
C36   C     C_R   0.952599 0.271776 0.451756 -0.153987
C37   C     C_R   0.508997 0.838313 0.426337 0.037114
C38   C     C_R   0.485494 0.829583 0.571672 0.016624
C39   C     C_R   0.008995 0.338326 0.426337 0.037141
C40   C     C_R   0.985489 0.329589 0.571671 0.016634
C41   C     C_R   0.551877 0.905629 0.473598 -0.063144
C42   C     C_R   0.540334 0.900837 0.546376 -0.106476
C43   C     C_R   0.051885 0.405623 0.473601 -0.063185
C44   C     C_R   0.040341 0.400824 0.546378 -0.106510
C45   C     C_R   0.443850 0.818397 0.862637 0.552003
C46   C     C_R   0.557335 0.818480 0.137400 0.545364
C47   C     C_R   0.943850 0.318397 0.862637 0.552010
C48   C     C_R   0.057335 0.318480 0.137400 0.545361
C49   C     C_R   0.200587 0.659818 0.530871 -0.153023
C50   C     C_R   0.815107 0.561219 0.446465 -0.139832
C51   C     C_R   0.700387 0.159234 0.530980 -0.153121
C52   C     C_R   0.315102 0.061188 0.446459 -0.139884
C53   C     C_R   0.203830 0.666002 0.458694 -0.034428
C54   C     C_R   0.830855 0.553436 0.517640 -0.060319
C55   C     C_R   0.703650 0.165612 0.458809 -0.034525
C56   C     C_R   0.330854 0.053403 0.517633 -0.060353
C57   C     C_R   0.251969 0.592878 0.422817 -0.023476
C58   C     C_R   0.774558 0.543284 0.565998 -0.024811
C59   C     C_R   0.751886 0.092736 0.422886 -0.023560
C60   C     C_R   0.274559 0.043270 0.565994 -0.024854
C61   C     C_R   0.305975 0.532366 0.461639 -0.013895
C62   C     C_R   0.704976 0.567432 0.544159 -0.000093
C63   C     C_R   0.805939 0.032294 0.461681 -0.013845
C64   C     C_R   0.204980 0.067447 0.544161 -0.000162
C65   C     C_R   0.303639 0.531762 0.536076 0.072999
C66   C     C_R   0.690717 0.582467 0.472178 0.079779
C67   C     C_R   0.803631 0.031649 0.536120 0.073137
C68   C     C_R   0.190717 0.082493 0.472182 0.079795
C69   C     C_R   0.251387 0.598428 0.570258 0.008936
C70   C     C_R   0.747073 0.582039 0.424160 0.002785
C71   C     C_R   0.751319 0.098138 0.570333 0.008914
C72   C     C_R   0.247070 0.082039 0.424159 0.002745
C73   C     C_R   0.260916 0.638155 0.852456 0.572357
C74   C     C_R   0.739134 0.637236 0.147730 0.562297
C75   C     C_R   0.760916 0.138155 0.852456 0.572328
C76   C     C_R   0.239134 0.137237 0.147730 0.562291
C77   C     C_R   0.288487 0.005632 0.637854 0.562839
C78   C     C_R   0.729677 0.047496 0.353190 0.549050
C79   C     C_R   0.788486 0.505637 0.637857 0.562886
C80   C     C_R   0.229692 0.547521 0.353170 0.549008
C81   C     C_R   0.468484 0.823297 0.646380 0.561545
C82   C     C_R   0.531480 0.824209 0.353488 0.566149
C83   C     C_R   0.968483 0.323298 0.646380 0.561555
C84   C     C_R   0.031479 0.324211 0.353487 0.566166
C85   C     C_R   0.260092 0.637601 0.643293 0.564289
C86   C     C_R   0.738993 0.636692 0.355818 0.569137
C87   C     C_R   0.760076 0.137536 0.643320 0.564208
C88   C     C_R   0.238992 0.136693 0.355818 0.569119
C89   C     C_3   0.480555 0.929111 0.034509 -0.029936
C90   C     C_3   0.523124 0.928598 0.964937 -0.029937
C91   C     C_3   0.980554 0.429111 0.034509 -0.029937
C92   C     C_3   0.023124 0.428599 0.964937 -0.029938
C93   C     C_3   0.430592 0.830555 0.003821 -0.023940
C94   C     C_3   0.571562 0.829166 0.995718 -0.025901
C95   C     C_3   0.930592 0.330555 0.003821 -0.023942
C96   C     C_3   0.071561 0.329166 0.995718 -0.025908
C97   C     C_3   0.472989 0.829888 0.934774 -0.024632
C98   C     C_3   0.529125 0.829553 0.064779 -0.027368
C99   C     C_3   0.972988 0.329888 0.934774 -0.024627
C100  C     C_3   0.029125 0.329553 0.064779 -0.027366
Cr1   Cr    Cr6+3 0.229630 0.835900 0.747350 1.011539
Cr2   Cr    Cr6+3 0.770370 0.835900 0.252650 1.043966
Cr3   Cr    Cr6+3 0.729630 0.335900 0.747350 1.011573
Cr4   Cr    Cr6+3 0.270370 0.335900 0.252650 1.043967
Cr5   Cr    Cr6+3 0.387410 0.989850 0.750850 1.044521
Cr6   Cr    Cr6+3 0.612590 0.989850 0.249150 1.085814
Cr7   Cr    Cr6+3 0.887410 0.489850 0.750850 1.044516
Cr8   Cr    Cr6+3 0.112590 0.489850 0.249150 1.085906
Cr9   Cr    Cr6+3 0.385800 0.677120 0.749340 1.011197
Cr10  Cr    Cr6+3 0.614200 0.677120 0.250660 1.011250
Cr11  Cr    Cr6+3 0.885800 0.177120 0.749340 1.011156
Cr12  Cr    Cr6+3 0.114200 0.177120 0.250660 1.011246
H1    H     H_    0.160795 0.713289 0.556394 0.187180
H2    H     H_    0.857059 0.565701 0.408232 0.196241
H3    H     H_    0.660506 0.212447 0.556539 0.187362
H4    H     H_    0.357053 0.065657 0.408224 0.196227
H5    H     H_    0.335504 0.475507 0.929386 0.104591
H6    H     H_    0.661414 0.478268 0.069935 0.109305
H7    H     H_    0.835504 0.975507 0.929385 0.104587
H8    H     H_    0.161414 0.978268 0.069934 0.109305
H9    H     H_    0.161100 0.708779 0.939101 0.187289
H10   H     H_    0.842926 0.699886 0.062946 0.188801
H11   H     H_    0.661099 0.208777 0.939101 0.187294
H12   H     H_    0.342925 0.199888 0.062946 0.188806
H13   H     H_    0.396552 0.716720 0.543177 0.142788
H14   H     H_    0.418704 0.721820 0.415855 0.167961
H15   H     H_    0.896519 0.216787 0.543169 0.142789
H16   H     H_    0.918669 0.221909 0.415847 0.168007
H17   H     H_    0.596465 0.956598 0.454517 0.155994
H18   H     H_    0.574148 0.951004 0.582500 0.137109
H19   H     H_    0.096481 0.456580 0.454522 0.155972
H20   H     H_    0.074164 0.450970 0.582505 0.137156
O1    O     O_R   0.214270 0.709000 0.827470 -0.520793
O2    O     O_R   0.785730 0.709000 0.172530 -0.522515
O3    O     O_R   0.714270 0.209000 0.827470 -0.520806
O4    O     O_R   0.285730 0.209000 0.172530 -0.522513
O5    O     O_R   0.445950 0.919440 0.676520 -0.529719
O6    O     O_R   0.554050 0.919440 0.323480 -0.475907
O7    O     O_R   0.945950 0.419440 0.676520 -0.529700
O8    O     O_R   0.054050 0.419440 0.323480 -0.475885
O9    O     O_R   0.456730 0.717630 0.669840 -0.496712
O10   O     O_R   0.543270 0.717630 0.330160 -0.492430
O11   O     O_R   0.956730 0.217630 0.669840 -0.496701
O12   O     O_R   0.043270 0.217630 0.330160 -0.492429
O13   O     O_R   0.320620 0.625640 0.672920 -0.467418
O14   O     O_R   0.679380 0.625640 0.327080 -0.479505
O15   O     O_R   0.820620 0.125640 0.672920 -0.467444
O16   O     O_R   0.179380 0.125640 0.327080 -0.479546
O17   O     O_3   0.334280 0.834290 0.749180 -0.310661
O18   O     O_3   0.665720 0.834290 0.250820 -0.298778
O19   O     O_3   0.834280 0.334290 0.749180 -0.310637
O20   O     O_3   0.165720 0.334290 0.250820 -0.298783
O21   O     O_R   0.236160 0.958490 0.823130 -0.507815
O22   O     O_R   0.763840 0.958490 0.176870 -0.515341
O23   O     O_R   0.736160 0.458490 0.823130 -0.507816
O24   O     O_R   0.263840 0.458490 0.176870 -0.515355
O25   O     O_R   0.332080 0.075470 0.831280 -0.517451
O26   O     O_R   0.667920 0.075470 0.168720 -0.524611
O27   O     O_R   0.832080 0.575470 0.831280 -0.517463
O28   O     O_R   0.167920 0.575470 0.168720 -0.524624
O29   O     O_R   0.446300 0.918110 0.826620 -0.447955
O30   O     O_R   0.553700 0.918110 0.173380 -0.449220
O31   O     O_R   0.946300 0.418110 0.826620 -0.447945
O32   O     O_R   0.053700 0.418110 0.173380 -0.449217
O33   O     O_R   0.457110 0.716200 0.831760 -0.523982
O34   O     O_R   0.542890 0.716200 0.168240 -0.529291
O35   O     O_R   0.957110 0.216200 0.831760 -0.523985
O36   O     O_R   0.042890 0.216200 0.168240 -0.529290
O37   O     O_R   0.320980 0.624310 0.823030 -0.535629
O38   O     O_R   0.679020 0.624310 0.176970 -0.542401
O39   O     O_R   0.820980 0.124310 0.823030 -0.535656
O40   O     O_R   0.179020 0.124310 0.176970 -0.542405
O41   O     O_R   0.213890 0.710430 0.665540 -0.541882
O42   O     O_R   0.786110 0.710430 0.334460 -0.510156
O43   O     O_R   0.713890 0.210430 0.665540 -0.541891
O44   O     O_R   0.286110 0.210430 0.334460 -0.510120
O45   O     O_R   0.235810 0.959820 0.673020 -0.465841
O46   O     O_R   0.764190 0.959820 0.326980 -0.457912
O47   O     O_R   0.735810 0.459820 0.673020 -0.465776
O48   O     O_R   0.264190 0.459820 0.326980 -0.457980
O49   O     O_R   0.331700 0.076900 0.669350 -0.543838
O50   O     O_R   0.668300 0.076900 0.330650 -0.518757
O51   O     O_R   0.831700 0.576900 0.669350 -0.543876
O52   O     O_R   0.168300 0.576900 0.330650 -0.518514
C101  C     C_2   0.352657 0.831578 0.009378 0.232205
H21   H     H_    0.320156 0.832599 0.961895 0.082081
O53   O     O_2   0.325536 0.832720 0.067473 -0.497560
C102  C     C_2   0.649509 0.828384 0.990244 0.231513
H22   H     H_    0.681957 0.828555 0.037771 0.085195
O54   O     O_2   0.676728 0.828753 0.932188 -0.489476
C103  C     C_2   0.852657 0.331578 0.009379 0.232202
H23   H     H_    0.820155 0.332598 0.961895 0.082084
O55   O     O_2   0.825536 0.332720 0.067474 -0.497555
C104  C     C_2   0.149509 0.328385 0.990243 0.231507
H24   H     H_    0.181956 0.328555 0.037771 0.085197
O56   O     O_2   0.176728 0.328755 0.932187 -0.489473
C105  C     C_2   0.153315 0.746007 0.422153 0.244468
H25   H     H_    0.169536 0.797326 0.376181 0.105842
O57   O     O_2   0.092266 0.748895 0.440725 -0.498931
C106  C     C_2   0.905400 0.576549 0.538742 0.206448
H26   H     H_    0.923358 0.573135 0.592653 0.167259
O58   O     O_2   0.948483 0.607966 0.494990 -0.486462
C107  C     C_2   0.653102 0.245637 0.422323 0.244527
H27   H     H_    0.669287 0.296966 0.376343 0.105932
O59   O     O_2   0.592076 0.248587 0.440968 -0.498868
C108  C     C_2   0.405397 0.076526 0.538735 0.206472
H28   H     H_    0.423355 0.073099 0.592644 0.167249
O60   O     O_2   0.448473 0.107984 0.494986 -0.486303
C109  C     C_2   0.364264 0.468025 0.426251 0.234836
H29   H     H_    0.384971 0.385227 0.448495 0.143233
O61   O     O_2   0.390793 0.508455 0.372681 -0.526334
C110  C     C_2   0.648703 0.594799 0.595894 0.248603
H30   H     H_    0.595596 0.561982 0.587229 0.102540
O62   O     O_2   0.660773 0.659636 0.646993 -0.482862
C111  C     C_2   0.864261 0.968086 0.426263 0.234793
H31   H     H_    0.885018 0.885301 0.448480 0.143213
O63   O     O_2   0.890760 0.008607 0.372701 -0.526354
C112  C     C_2   0.148721 0.094856 0.595904 0.248551
H32   H     H_    0.095608 0.062061 0.587255 0.102540
O64   O     O_2   0.160813 0.159709 0.646991 -0.482911
N1    N     N_2   0.355145 0.469259 0.577098 -0.512140
H33   H     H_    0.405215 0.468350 0.557233 0.241619
C113  C     C_3   0.331604 0.354132 0.603869 -0.247299
H34   H     H_    0.374220 0.312266 0.635773 0.158060
H35   H     H_    0.317276 0.293661 0.559109 0.151361
H36   H     H_    0.285312 0.365851 0.638227 0.192068
N2    N     N_2   0.622191 0.617461 0.449768 -0.500908
H37   H     H_    0.600527 0.682368 0.481288 0.242401
C114  C     C_3   0.574225 0.518599 0.435753 -0.229368
H38   H     H_    0.570203 0.459016 0.482677 0.153187
H39   H     H_    0.591530 0.467443 0.388807 0.194872
H40   H     H_    0.521158 0.553649 0.423995 0.187345
N3    N     N_2   0.855225 0.969303 0.577114 -0.512148
H41   H     H_    0.905276 0.968446 0.557203 0.241588
C115  C     C_3   0.831794 0.854214 0.604007 -0.247271
H42   H     H_    0.874488 0.812439 0.635838 0.157824
H43   H     H_    0.817397 0.793647 0.559333 0.151473
H44   H     H_    0.785583 0.865962 0.638451 0.192015
N4    N     N_2   0.122198 0.117546 0.449783 -0.500927
H45   H     H_    0.100563 0.182474 0.481309 0.242383
C116  C     C_3   0.074198 0.018726 0.435784 -0.229277
H46   H     H_    0.070193 0.959116 0.482700 0.153135
H47   H     H_    0.091456 0.967591 0.388809 0.195165
H48   H     H_    0.021130 0.053817 0.424073 0.187224
C117  C     C_2   0.457737 0.038318 0.074468 0.284475
H49   H     H_    0.471488 0.127620 0.056039 0.158445
O65   O     O_2   0.423842 0.027093 0.128438 -0.453058
C118  C     C_2   0.547505 0.037374 0.925026 0.282833
H50   H     H_    0.536452 0.126940 0.944448 0.152184
O66   O     O_2   0.580035 0.025567 0.870300 -0.448671
C119  C     C_2   0.957737 0.538318 0.074469 0.284477
H51   H     H_    0.971482 0.627621 0.056035 0.158440
O67   O     O_2   0.923846 0.527093 0.128441 -0.453048
C120  C     C_2   0.047505 0.537376 0.925028 0.282840
H52   H     H_    0.036462 0.626939 0.944457 0.152180
O68   O     O_2   0.080025 0.525572 0.870296 -0.448659
N5    N     N_2   0.538046 0.622403 0.930592 -0.487343
H53   H     H_    0.565876 0.643580 0.886190 0.294951
C121  C     C_3   0.478752 0.539865 0.918525 -0.237802
H54   H     H_    0.485286 0.454004 0.946663 0.162324
H55   H     H_    0.472965 0.515562 0.861712 0.150472
H56   H     H_    0.429312 0.581195 0.935002 0.172776
N6    N     N_2   0.460961 0.623611 0.068999 -0.489825
H57   H     H_    0.433593 0.646085 0.113375 0.291055
C122  C     C_3   0.519408 0.541017 0.081269 -0.233596
H58   H     H_    0.513000 0.456285 0.051822 0.162643
H59   H     H_    0.523966 0.515209 0.137928 0.152990
H60   H     H_    0.569444 0.583151 0.066190 0.172037
N7    N     N_2   0.038046 0.122403 0.930592 -0.487341
H61   H     H_    0.065876 0.143580 0.886190 0.294950
C123  C     C_3   0.978751 0.039865 0.918525 -0.237804
H62   H     H_    0.985285 0.954004 0.946663 0.162324
H63   H     H_    0.972965 0.015562 0.861712 0.150464
H64   H     H_    0.929312 0.081195 0.935002 0.172779
N8    N     N_2   0.960961 0.123611 0.069000 -0.489825
H65   H     H_    0.933593 0.146085 0.113375 0.291059
C124  C     C_3   0.019408 0.041017 0.081270 -0.233596
H66   H     H_    0.013000 0.956285 0.051822 0.162644
H67   H     H_    0.023965 0.015208 0.137928 0.152992
H68   H     H_    0.069444 0.083152 0.066190 0.172037
N9    N     N_2   0.347735 0.421610 0.064117 -0.510843
H69   H     H_    0.379592 0.386703 0.026129 0.272867
C125  C     C_3   0.385655 0.420941 0.131863 -0.210200
H70   H     H_    0.438645 0.384617 0.125946 0.103854
H71   H     H_    0.366284 0.351742 0.167343 0.215464
H72   H     H_    0.383195 0.506576 0.161274 0.161822
N10   N     N_2   0.648047 0.426421 0.935282 -0.512167
H73   H     H_    0.614520 0.393007 0.972608 0.278145
C126  C     C_3   0.613330 0.423042 0.865874 -0.220514
H74   H     H_    0.559366 0.388888 0.869706 0.100374
H75   H     H_    0.633245 0.350890 0.832988 0.211161
H76   H     H_    0.617759 0.507902 0.835689 0.166852
N11   N     N_2   0.847733 0.921608 0.064117 -0.510843
H77   H     H_    0.879590 0.886701 0.026128 0.272866
C127  C     C_3   0.885655 0.920940 0.131863 -0.210206
H78   H     H_    0.938645 0.884616 0.125944 0.103859
H79   H     H_    0.866284 0.851742 0.167343 0.215456
H80   H     H_    0.883195 0.006576 0.161273 0.161826
N12   N     N_2   0.148047 0.926421 0.935282 -0.512166
H81   H     H_    0.114520 0.893007 0.972608 0.278144
C128  C     C_3   0.113330 0.923043 0.865874 -0.220520
H82   H     H_    0.059366 0.888889 0.869706 0.100374
H83   H     H_    0.133245 0.850890 0.832988 0.211162
H84   H     H_    0.117759 0.007902 0.835689 0.166845
C129  C     C_2   0.153959 0.737681 0.075416 0.235357
H85   H     H_    0.172420 0.788564 0.121192 0.145280
O69   O     O_2   0.092072 0.741592 0.058456 -0.603222
C130  C     C_2   0.851645 0.731444 0.926974 0.226072
H86   H     H_    0.835210 0.783770 0.881224 0.148335
O70   O     O_2   0.913280 0.732957 0.945154 -0.604868
C131  C     C_2   0.653958 0.237680 0.075416 0.235353
H87   H     H_    0.672419 0.288563 0.121192 0.145283
O71   O     O_2   0.592071 0.241591 0.058455 -0.603226
C132  C     C_2   0.351644 0.231445 0.926974 0.226073
H88   H     H_    0.335209 0.283771 0.881224 0.148351
O72   O     O_2   0.413279 0.232960 0.945154 -0.604871

loop_
_geom_bond_atom_site_label_1
_geom_bond_atom_site_label_2
_ccdc_geom_bond_type
C49   H1    S    
C55   C59   A    
C104  O56   D    
C113  H34   S    
C113  H36   S    
C128  H82   S    
C107  O59   D    
C16   N12   S    
C7    C99   S    
C5    C6    S    
C95   C99   S    
C123  H62   S    
C22   C130  S    
C105  O57   D    
C9    C13   A    
C120  O68   D    
C11   C15   A    
N8    H65   S    
Cr9   O37   S    
C66   N2    S    
C77   O49   A    
N10   C126  S    
C91   C100  S    
C46   C98   S    
C49   C69   A    
C117  H49   S    
C40   C83   S    
C51   C71   A    
C65   N1    S    
C118  O66   D    
C25   C29   A    
C48   C100  S    
Cr8   O52   S    
C27   C31   A    
C103  H23   S    
C28   C32   A    
C24   C132  S    
C108  H28   S    
C121  H55   S    
C132  H88   S    
C17   C21   A    
C86   O42   A    
C35   C36   A    
C15   C19   A    
C111  H31   S    
C114  H38   S    
C52   C72   A    
Cr8   O32   S    
C10   C30   A    
N2    H37   S    
C68   C72   A    
C55   C107  S    
C33   H13   S    
C88   O16   A    
C35   H15   S    
Cr4   O44   S    
C58   C79   S    
N7    C123  S    
C38   C81   S    
C79   O47   A    
Cr11  O35   S    
C128  H84   S    
N6    C122  S    
C1    C20   S    
C2    C19   S    
Cr9   O13   S    
Cr10  O18   S    
C57   C61   A    
C48   O32   A    
Cr1   O1    S    
C44   H20   S    
C59   C63   A    
C33   C38   A    
C60   C64   A    
C53   C105  S    
Cr4   O20   S    
C43   H19   S    
C35   C40   A    
C50   C70   A    
C82   O6    A    
C83   O11   A    
C66   C70   A    
C49   C53   A    
C74   O2    A    
C89   C117  S    
C51   C55   A    
C61   C65   A    
C110  H30   S    
C106  O58   D    
C62   C110  S    
N5    C121  S    
C25   H9    S    
Cr6   O18   S    
Cr1   O41   S    
C7    C8    S    
C127  H79   S    
N1    H33   S    
C64   C68   A    
C85   O13   A    
C39   C84   S    
C114  H40   S    
C30   C74   S    
C101  O53   D    
C84   O12   A    
C92   C96   S    
C47   C99   S    
C102  O54   D    
N5    H53   S    
C76   O40   A    
C45   O29   A    
C129  O69   D    
N3    H41   S    
Cr3   O47   S    
Cr11  O11   S    
Cr7   O19   S    
C2    O22   A    
C124  H66   S    
C125  H72   S    
C3    O27   A    
C57   C80   S    
C36   H16   S    
C8    C95   S    
C59   C78   S    
C130  O70   D    
C109  H29   S    
C62   C66   A    
C12   C16   A    
C10   C14   A    
C91   C92   S    
C77   O45   A    
C78   O50   A    
N11   H77   S    
N12   C128  S    
C112  O64   D    
C5    N5    S    
C126  H74   S    
N4    C116  S    
C122  H59   S    
N2    C114  S    
Cr7   O31   S    
C26   C30   A    
C131  O71   D    
Cr2   O46   S    
C115  H44   S    
Cr5   O29   S    
C67   N3    S    
C93   C97   S    
C69   C85   S    
C21   C25   A    
Cr4   O4    S    
C18   C22   A    
C36   C39   A    
C24   C28   A    
C5    C97   S    
C32   C76   S    
C113  H35   S    
N9    C125  S    
C87   O43   A    
C88   O44   A    
C13   C17   A    
C89   C98   S    
C116  H48   S    
C63   C111  S    
C8    C100  S    
C13   N9    S    
C96   C100  S    
C79   O51   A    
Cr11  O39   S    
C80   O52   A    
C37   C41   A    
C105  H25   S    
C91   C95   S    
C40   C44   A    
C56   C108  S    
C124  H68   S    
C125  H70   S    
Cr9   O9    S    
Cr5   O49   S    
Cr10  O14   S    
Cr7   O7    S    
C92   C99   S    
C92   C120  S    
C58   C62   A    
C123  H64   S    
C34   C37   A    
C41   C42   A    
N4    H45   S    
C82   O10   A    
C83   O7    A    
C5    C94   S    
N6    H57   S    
C91   C119  S    
C81   O5    A    
C7    C96   S    
C50   C54   A    
C87   O15   A    
C6    C98   S    
C75   O3    A    
C94   C98   S    
C132  O72   D    
C126  H76   S    
Cr8   O20   S    
Cr5   O25   S    
C28   H12   S    
C90   C118  S    
C115  H42   S    
Cr12  O20   S    
Cr2   O22   S    
C90   C97   S    
Cr3   O19   S    
C47   O31   A    
C96   C104  S    
C104  H24   S    
N7    H61   S    
C86   O14   A    
C90   C94   S    
C128  H83   S    
C119  H51   S    
C127  H78   S    
C53   C57   A    
C51   H3    S    
C56   C60   A    
N12   H81   S    
C103  O55   D    
C120  H52   S    
Cr11  O15   S    
C31   C75   S    
N10   H73   S    
C34   H14   S    
C6    C93   S    
Cr3   O43   S    
C61   C109  S    
C1    O21   A    
Cr9   O33   S    
Cr2   O18   S    
C71   C87   S    
C4    C17   S    
Cr10  O38   S    
Cr3   O23   S    
C4    O24   A    
C110  O62   D    
C117  O65   D    
C37   C82   S    
C73   O37   A    
C118  H50   S    
C52   H4    S    
C46   O34   A    
C78   O46   A    
C94   C102  S    
C68   N4    S    
C38   C42   A    
C64   C112  S    
C114  H39   S    
C101  H21   S    
Cr12  O40   S    
C65   C69   A    
C67   C71   A    
Cr6   O30   S    
C8    N8    S    
Cr1   O45   S    
N11   C127  S    
C129  H85   S    
C22   C26   A    
C26   H10   S    
C50   H2    S    
C89   C90   S    
C45   O33   A    
C93   C101  S    
C131  H87   S    
C125  H71   S    
C9    H5    S    
C14   C18   A    
C19   C23   A    
C43   C44   A    
C121  H56   S    
C11   H7    S    
C76   O4    A    
Cr4   O48   S    
C80   O48   A    
N8    C124  S    
C116  H46   S    
C111  O63   D    
C119  O67   D    
C29   C73   S    
Cr12  O36   S    
C54   C106  S    
C3    C18   S    
Cr10  O10   S    
Cr3   O3    S    
Cr6   O50   S    
C109  O61   D    
C12   H8    S    
C20   C24   A    
C106  H26   S    
C85   O41   A    
C23   C131  S    
C6    N6    S    
C23   C27   A    
C122  H58   S    
C16   C20   A    
C81   O9    A    
C11   C31   A    
C12   C32   A    
C89   C93   S    
C115  H43   S    
C3    O23   A    
C72   C88   S    
C127  H80   S    
C63   C67   A    
C60   C77   S    
C7    N7    S    
Cr8   O8    S    
C27   H11   S    
C39   C43   A    
N9    H69   S    
Cr6   O26   S    
Cr5   O5    S    
Cr12  O16   S    
Cr7   O51   S    
C102  H22   S    
C116  H47   S    
Cr9   O17   S    
Cr2   O2    S    
C10   H6    S    
C47   O35   A    
C48   O36   A    
Cr1   O21   S    
C14   N10   S    
C21   C129  S    
C33   C34   A    
C42   H18   S    
Cr4   O24   S    
N3    C115  S    
Cr6   O6    S    
C73   O1    A    
C124  H67   S    
C75   O39   A    
C121  H54   S    
C70   C86   S    
C130  H86   S    
C54   C58   A    
C123  H63   S    
C15   N11   S    
C95   C103  S    
Cr11  O19   S    
Cr7   O27   S    
Cr8   O28   S    
C9    C29   A    
Cr2   O42   S    
Cr5   O17   S    
Cr12  O12   S    
C1    O25   A    
N1    C113  S    
C45   C97   S    
C41   H17   S    
Cr10  O34   S    
C112  H32   S    
C4    O28   A    
Cr1   O17   S    
C126  H75   S    
C122  H60   S    
C74   O38   A    
C2    O26   A    
C84   O8    A    
C46   O30   A    
C107  H27   S    
C108  O60   D    
C52   C56   A    
