data_mof_unit_51341.cif
_audit_creation_date              2012-12-11T15:12:25-0500
_audit_creation_method            fapswitch 2.2
_symmetry_space_group_name_H-M    P1
_symmetry_Int_Tables_number       1
_space_group_crystal_system       triclinic
_cell_length_a                    8.355688
_cell_length_b                    17.431329
_cell_length_c                    19.072725
_cell_angle_alpha                 94.845317
_cell_angle_beta                  94.899605
_cell_angle_gamma                 95.211802
_cell_volume                      2744.43062922

loop_
_atom_site_label
_atom_site_type_symbol
_atom_type_description
_atom_site_fract_x
_atom_site_fract_y
_atom_site_fract_z
_atom_type_partial_charge
Ba1   Ba    Ba6+2 0.157360 0.537160 0.466280 1.622934
Ba2   Ba    Ba6+2 0.652820 0.462830 0.533660 1.633262
C1    C     C_3   0.398979 0.846687 0.242413 -0.347890
C2    C     C_R   0.862935 0.746769 0.509379 0.071737
C3    C     C_R   0.927075 0.825267 0.510371 -0.135843
C4    C     C_3   0.891690 0.742897 0.298427 0.374186
C5    C     C_R   0.831354 0.881428 0.483254 0.004131
C6    C     C_R   0.673809 0.856645 0.451826 -0.144992
C7    C     C_R   0.611988 0.778534 0.450193 -0.008059
C8    C     C_R   0.892871 0.173381 0.480331 -0.120510
C9    C     C_R   0.947619 0.253391 0.490079 0.064144
C10   C     C_R   0.197187 0.222977 0.551457 0.007646
C11   C     C_R   0.142759 0.143478 0.542636 -0.129679
C12   C     C_3   0.432242 0.779603 0.286422 0.373623
C13   C     C_R   0.989157 0.117606 0.507500 -0.003555
C14   C     C_1   0.934332 0.034101 0.497794 -0.001657
C15   C     C_1   0.889420 0.964561 0.490728 -0.001335
C16   C     C_3   0.919289 0.825017 0.276127 -0.097720
C17   C     C_R   0.096872 0.276991 0.527594 -0.289281
C18   C     C_R   0.608072 0.536892 0.298774 -0.223074
C19   C     C_R   0.460369 0.493220 0.276809 0.074863
C20   C     C_R   0.409401 0.480790 0.204273 -0.091523
C21   C     C_R   0.508512 0.508401 0.153541 -0.002821
C22   C     C_R   0.663781 0.545116 0.176612 -0.164722
C23   C     C_3   0.555160 0.695770 0.636905 0.293222
C24   C     C_R   0.715171 0.557680 0.248825 0.011130
C25   C     C_R   0.472666 0.562188 0.036274 -0.111740
C26   C     C_R   0.422308 0.555443 0.963982 -0.085531
C27   C     C_R   0.348381 0.485018 0.929818 0.040902
C28   C     C_3   0.763106 0.368311 0.320030 0.344265
C29   C     C_R   0.326067 0.421370 0.969674 -0.088904
C30   C     C_R   0.378955 0.427110 0.042357 0.142133
C31   C     C_R   0.452005 0.498609 0.076502 0.066088
C32   C     C_R   0.143718 0.439975 0.826203 -0.130635
C33   C     C_R   0.093633 0.435077 0.753712 0.016177
C34   C     C_3   0.630382 0.776985 0.663529 -0.396328
C35   C     C_R   0.346408 0.505489 0.732664 0.031074
C36   C     C_R   0.396739 0.510969 0.805036 -0.124142
C37   C     C_R   0.296458 0.477658 0.852599 -0.003097
C38   C     C_R   0.197903 0.465253 0.707170 -0.266303
C39   C     C_3   0.722035 0.342009 0.241632 -0.120466
C40   C     C_3   0.109913 0.682551 0.687145 0.347954
C41   C     C_3   0.189207 0.761654 0.722171 -0.109708
C42   C     C_3   0.266762 0.306135 0.380013 0.324471
C43   C     C_3   0.243154 0.219158 0.360466 -0.382385
C44   C     C_3   0.415414 0.703745 0.238640 -0.299763
C45   C     C_3   0.880540 0.250443 0.685719 0.351239
C46   C     C_3   0.061987 0.632406 0.745285 -0.374858
C47   C     C_3   0.655650 0.563552 0.374711 -0.254051
C48   C     C_3   0.857279 0.168532 0.707350 -0.364223
C49   C     C_3   0.409146 0.289266 0.723144 0.358546
C50   C     C_3   0.429155 0.261873 0.796647 -0.367144
C51   C     C_R   0.704208 0.726326 0.482223 -0.263050
H1    H     H_    0.689513 0.391867 0.213021 0.049495
H2    H     H_    0.200891 0.188869 0.405127 0.060358
H3    H     H_    0.359227 0.197879 0.347165 0.127686
H4    H     H_    0.557870 0.792486 0.310917 -0.037599
H5    H     H_    0.488379 0.852849 0.202892 0.078882
H6    H     H_    0.651355 0.663518 0.615384 0.064876
H7    H     H_    0.458360 0.699447 0.593991 0.034924
H8    H     H_    0.733758 0.773787 0.703472 0.140815
H9    H     H_    0.674138 0.807461 0.619049 0.068853
H10   H     H_    0.540769 0.810954 0.688269 0.134497
H11   H     H_    0.408601 0.901471 0.277447 0.105079
H12   H     H_    0.829575 0.320040 0.219117 0.090237
H13   H     H_    0.847782 0.863686 0.307483 0.058113
H14   H     H_    0.804943 0.252821 0.635248 0.088947
H15   H     H_    0.009883 0.263527 0.677530 -0.061754
H16   H     H_    0.728621 0.153130 0.715334 0.149474
H17   H     H_    0.893089 0.127243 0.665296 0.075101
H18   H     H_    0.933220 0.163923 0.757239 0.109873
H19   H     H_    0.281198 0.300577 0.711863 -0.063171
H20   H     H_    0.488867 0.343857 0.723003 0.090778
H21   H     H_    0.397544 0.307218 0.836093 0.068154
H22   H     H_    0.556204 0.250237 0.809825 0.147955
H23   H     H_    0.195359 0.652670 0.656025 0.045513
H24   H     H_    0.934752 0.744792 0.355417 0.030333
H25   H     H_    0.348299 0.208136 0.799045 0.110371
H26   H     H_    0.777743 0.154685 0.450557 0.083939
H27   H     H_    0.598432 0.897966 0.430242 0.070230
H28   H     H_    0.221058 0.102000 0.561726 0.081565
H29   H     H_    0.048582 0.843039 0.533707 0.088859
H30   H     H_    0.649272 0.669409 0.488867 0.036560
H31   H     H_    0.140237 0.337811 0.534053 0.067311
H32   H     H_    0.512203 0.542272 0.824198 0.079857
H33   H     H_    0.439243 0.605838 0.934889 0.067337
H34   H     H_    0.307268 0.754172 0.750781 0.109148
H35   H     H_    0.527091 0.617709 0.061113 0.071293
H36   H     H_    0.760648 0.723990 0.291029 -0.101789
H37   H     H_    0.292551 0.449584 0.187614 0.111033
H38   H     H_    0.271718 0.366392 0.943642 0.057825
H39   H     H_    0.061899 0.416923 0.862051 0.074963
H40   H     H_    0.745230 0.563080 0.138533 0.075949
H41   H     H_    0.157954 0.462695 0.651450 0.069082
H42   H     H_    0.048541 0.846972 0.288070 0.130605
H43   H     H_    0.653782 0.386664 0.342769 0.013534
H44   H     H_    0.858926 0.417535 0.325597 0.011528
H45   H     H_    0.112587 0.785312 0.762129 0.095956
H46   H     H_    0.433873 0.655164 0.271093 0.098790
H47   H     H_    0.292893 0.693076 0.209985 0.145512
H48   H     H_    0.506758 0.705275 0.199638 0.042136
H49   H     H_    0.563062 0.265567 0.177610 0.171067
H50   H     H_    0.623060 0.232531 0.254048 0.202856
H51   H     H_    0.998117 0.576828 0.720985 0.117183
H52   H     H_    0.169791 0.621961 0.779891 0.052369
H53   H     H_    0.977378 0.661002 0.778450 0.115577
H54   H     H_    0.265665 0.793814 0.627996 0.196333
H55   H     H_    0.101369 0.835073 0.653416 0.187048
H56   H     H_    0.149714 0.326620 0.391969 0.005503
H57   H     H_    0.299286 0.313432 0.049600 0.170974
H58   H     H_    0.482618 0.343753 0.090247 0.168278
H59   H     H_    0.697029 0.625629 0.376858 0.036723
H60   H     H_    0.567653 0.568145 0.411085 0.162117
H61   H     H_    0.738142 0.524304 0.398266 0.130214
H62   H     H_    0.947167 0.796430 0.171406 0.207765
H63   H     H_    0.753716 0.802042 0.189005 0.174473
H64   H     H_    0.355756 0.318357 0.427229 0.061692
H65   H     H_    0.275877 0.837043 0.214245 0.121254
H66   H     H_    0.152010 0.205319 0.314170 0.124382
N1    N     N_3   0.586659 0.281673 0.231762 -0.463708
N2    N     N_3   0.213804 0.818628 0.671237 -0.501778
N3    N     N_3   0.365846 0.359739 0.080662 -0.506633
N4    N     N_3   0.871636 0.828185 0.200945 -0.496448
O1    O     O_2   0.143190 0.684560 0.534150 -0.473373
O2    O     O_2   0.761062 0.444996 0.751331 -0.483643
O3    O     O_3   0.832999 0.302213 0.738804 -0.600719
O4    O     O_3   0.882350 0.590230 0.535560 -0.476562
O5    O     O_3   0.431150 0.462160 0.416880 -0.514779
O6    O     O_2   0.634060 0.535220 0.669530 -0.433814
O7    O     O_3   0.489749 0.660621 0.693081 -0.659007
O8    O     O_2   0.530058 0.224734 0.543967 -0.485667
O9    O     O_3   0.452779 0.232260 0.673685 -0.597443
O10   O     O_3   0.372640 0.639320 0.408320 -0.483291
O11   O     O_2   0.294322 0.772735 0.469374 -0.474960
O12   O     O_3   0.322721 0.341288 0.322335 -0.610180
O13   O     O_3   0.967135 0.692983 0.646810 -0.643264
O14   O     O_3   0.319527 0.775420 0.337070 -0.569549
O15   O     O_2   0.176230 0.464730 0.330450 -0.456203
O16   O     O_3   0.952380 0.601530 0.373300 -0.483303
O17   O     O_2   0.051052 0.549925 0.248899 -0.479623
O18   O     O_3   0.976794 0.692218 0.258024 -0.586467
O19   O     O_2   0.667110 0.315390 0.465830 -0.458295
O20   O     O_3   0.927950 0.409760 0.464380 -0.500270
O21   O     O_3   0.437660 0.360670 0.591630 -0.484931
O22   O     O_3   0.818485 0.306127 0.353277 -0.645890
O23   O     O_3   0.379150 0.537830 0.583060 -0.479547
O24   O     O_3   0.857920 0.398470 0.626650 -0.481959
P1    P     P_3+3 0.970290 0.672580 0.555000 0.981504
P2    P     P_3+3 0.347000 0.441860 0.341200 0.994257
P3    P     P_3+3 0.924560 0.598669 0.280524 0.969299
P4    P     P_3+3 0.840010 0.327410 0.444950 0.978886
P5    P     P_3+3 0.886803 0.396569 0.718424 0.954602
P6    P     P_3+3 0.403822 0.741679 0.414798 0.962269
P7    P     P_3+3 0.458916 0.560507 0.671399 0.941336
P8    P     P_3+3 0.403928 0.259485 0.588850 0.945591

loop_
_geom_bond_atom_site_label_1
_geom_bond_atom_site_label_2
_ccdc_geom_bond_type
C47   H60   S    
C44   H46   S    
Ba2   O20   S    
H63   N4    S    
C2    C51   A    
Ba2   O21   S    
C49   H19   S    
H50   N1    S    
Ba1   O5    S    
H55   N2    S    
C50   H22   S    
O9    P8    S    
C5    C6    A    
C12   C44   S    
C1    H11   S    
C25   C31   A    
O1    P1    D    
C28   H44   S    
C9    C17   A    
C35   C36   A    
C45   O3    S    
O10   P6    S    
C26   C27   A    
C1    H65   S    
C48   H16   S    
C22   C24   A    
C32   C33   A    
C35   C38   A    
C50   H21   S    
C8    C13   A    
C36   C37   A    
Ba1   O10   S    
O11   P6    D    
C13   C14   S    
C46   H51   S    
C11   H28   S    
Ba2   O6    S    
C50   H25   S    
C40   O13   S    
Ba1   Ba2   S    
C28   H43   S    
O3    P5    S    
C46   H53   S    
C29   C30   A    
C43   H3    S    
C14   C15   T    
C5    C15   S    
C21   C22   A    
C41   H45   S    
C28   C39   S    
Ba1   P2    S    
C23   H7    S    
C19   P2    S    
C34   H10   S    
C41   N2    S    
Ba1   O16   S    
O4    P1    S    
Ba2   O4    S    
C43   H66   S    
C42   O12   S    
O20   P4    S    
C47   H61   S    
C7    P6    S    
C19   C20   A    
H58   N3    S    
C16   H42   S    
Ba1   O4    S    
Ba1   O23   S    
C34   H9    S    
C23   O7    S    
C45   H14   S    
O18   P3    S    
C45   C48   S    
O15   P2    D    
C4    C16   S    
C44   H48   S    
H62   N4    S    
C36   H32   S    
C49   C50   S    
C30   N3    S    
C24   P3    S    
C3    C5    A    
C6    C7    A    
C4    H24   S    
C39   H12   S    
C21   C31   S    
Ba2   O24   S    
O12   P2    S    
C32   C37   A    
O22   P4    S    
O19   P4    D    
C48   H18   S    
C18   C47   S    
Ba1   O20   S    
O2    P5    D    
C46   H52   S    
O23   P7    S    
C12   O14   S    
C8    H26   S    
C27   C37   S    
C20   H37   S    
O14   P6    S    
O7    P7    S    
C40   C46   S    
C10   C11   A    
C4    O18   S    
O13   P1    S    
C1    C12   S    
C47   H59   S    
C9    P4    S    
C29   H38   S    
C11   C13   A    
C26   H33   S    
Ba2   O19   S    
C7    C51   A    
C33   P5    S    
H54   N2    S    
C10   P8    S    
C34   H8    S    
O17   P3    D    
C45   H15   S    
H49   N1    S    
C42   C43   S    
C28   O22   S    
Ba2   P4    S    
C12   H4    S    
C44   H47   S    
C16   H13   S    
C35   P7    S    
C49   H20   S    
C38   H41   S    
C2    C3    A    
C49   O9    S    
Ba2   O23   S    
C4    H36   S    
C16   N4    S    
O16   P3    S    
C40   H23   S    
C51   H30   S    
C41   H34   S    
C30   C31   A    
O21   P8    S    
O8    P8    D    
O24   P5    S    
C48   H17   S    
Ba1   O1    S    
C27   C29   A    
C22   H40   S    
C42   H56   S    
C3    H29   S    
O6    P7    D    
C18   C24   A    
C42   H64   S    
C10   C17   A    
C33   C38   A    
C39   N1    S    
C25   H35   S    
C32   H39   S    
C39   H1    S    
C8    C9    A    
C23   C34   S    
C1    H5    S    
O5    P2    S    
C18   C19   A    
C43   H2    S    
C40   C41   S    
C25   C26   A    
C6    H27   S    
C20   C21   A    
Ba1   P1    S    
C23   H6    S    
H57   N3    S    
Ba1   O15   S    
C17   H31   S    
Ba2   O5    S    
C2    P1    S    
