data_mof_unit_15188.cif
_audit_creation_date              2012-12-11T14:52:40-0500
_audit_creation_method            fapswitch 2.2
_symmetry_space_group_name_H-M    P1
_symmetry_Int_Tables_number       1
_space_group_crystal_system       triclinic
_cell_length_a                    20.647552
_cell_length_b                    7.265747
_cell_length_c                    20.279597
_cell_angle_alpha                 90.993723
_cell_angle_beta                  101.622281
_cell_angle_gamma                 91.289107
_cell_volume                      2978.4680296

loop_
_atom_site_label
_atom_site_type_symbol
_atom_type_description
_atom_site_fract_x
_atom_site_fract_y
_atom_site_fract_z
_atom_type_partial_charge
O1    O     O_R   0.673670 0.377510 0.185950 -0.513807
O2    O     O_R   0.326330 0.622490 0.814050 -0.516465
O3    O     O_R   0.826330 0.877510 0.314050 -0.540891
O4    O     O_R   0.173670 0.122490 0.685950 -0.541407
O5    O     O_R   0.806260 0.705340 0.185590 -0.538064
O6    O     O_R   0.193740 0.294660 0.814410 -0.538286
O7    O     O_R   0.693740 0.205340 0.314410 -0.530893
O8    O     O_R   0.306260 0.794660 0.685590 -0.529919
C1    C     C_R   0.825511 0.539016 0.170840 0.725350
C2    C     C_R   0.174453 0.460965 0.829078 0.725814
C3    C     C_R   0.674415 0.038507 0.329110 0.730695
C4    C     C_R   0.325707 0.961482 0.671015 0.726505
O9    O     O_R   0.672940 0.707120 0.178050 -0.539551
O10   O     O_R   0.327060 0.292880 0.821950 -0.544128
O11   O     O_R   0.827060 0.207120 0.321950 -0.518885
O12   O     O_R   0.172940 0.792880 0.678050 -0.517147
O13   O     O_R   0.692060 0.879040 0.306460 -0.537915
O14   O     O_R   0.307940 0.120960 0.693540 -0.538541
O15   O     O_R   0.807940 0.379040 0.193540 -0.530373
O16   O     O_R   0.192060 0.620960 0.806460 -0.529559
C5    C     C_R   0.648549 0.535518 0.161580 0.709405
C6    C     C_R   0.351450 0.464478 0.838395 0.724770
C7    C     C_R   0.851532 0.042266 0.338964 0.719755
C8    C     C_R   0.148349 0.957735 0.661227 0.720243
O17   O     O_3   0.756430 0.544390 0.292140 -0.378824
O18   O     O_3   0.243570 0.455610 0.707860 -0.376529
O19   O     O_3   0.743570 0.044390 0.207860 -0.374504
O20   O     O_3   0.256430 0.955610 0.792140 -0.376567
V1    V     V_3+5 0.748810 0.818610 0.242180 1.419573
V2    V     V_3+5 0.251190 0.181390 0.757820 1.402907
V3    V     V_3+5 0.751190 0.318610 0.257820 1.461542
V4    V     V_3+5 0.248810 0.681390 0.742180 1.451633
C9    C     C_R   0.087000 0.952781 0.607345 -0.062683
C10   C     C_R   0.912664 0.047464 0.393178 -0.058305
C11   C     C_R   0.413389 0.487751 0.890464 -0.056943
C12   C     C_R   0.586475 0.512240 0.109616 -0.073095
C13   C     C_R   0.013440 0.208754 0.453427 -0.233639
C14   C     C_R   0.985956 0.792031 0.547465 -0.234921
C15   C     C_R   0.481896 0.345126 0.065966 -0.203227
C16   C     C_R   0.518014 0.654570 0.934005 -0.225278
C17   C     C_R   0.959360 0.196154 0.398755 0.197647
C18   C     C_R   0.040104 0.804725 0.602111 0.197916
C19   C     C_R   0.536655 0.382976 0.118655 0.204718
C20   C     C_R   0.463050 0.617286 0.881714 0.198005
C21   C     C_R   0.922778 0.911264 0.442531 -0.293761
C22   C     C_R   0.076803 0.088973 0.558039 -0.292846
C23   C     C_R   0.579186 0.604904 0.048348 -0.273879
C24   C     C_R   0.420808 0.394584 0.951618 -0.288319
C25   C     C_R   0.976979 0.925103 0.497527 0.128176
C26   C     C_R   0.022492 0.075342 0.503200 0.127419
C27   C     C_R   0.524414 0.565632 0.995645 0.125156
C28   C     C_R   0.475615 0.433923 0.004333 0.120185
H1    H     H_    0.112251 0.202800 0.561249 0.135427
H2    H     H_    0.887381 0.797279 0.439211 0.132971
H3    H     H_    0.382723 0.296391 0.958999 0.128536
H4    H     H_    0.617328 0.702835 0.040906 0.127042
H5    H     H_    0.048386 0.323863 0.456823 0.122978
H6    H     H_    0.950913 0.677207 0.544220 0.120050
H7    H     H_    0.444151 0.245569 0.073082 0.115180
H8    H     H_    0.555464 0.754436 0.926355 0.119547
C29   C     C_3   0.555389 0.113073 0.531263 -0.437606
C30   C     C_3   0.450858 0.885906 0.473942 -0.369414
C31   C     C_3   0.939483 0.570933 0.963750 -0.456922
C32   C     C_3   0.055011 0.429178 0.031568 -0.369965
C33   C     C_3   0.532930 0.931555 0.561156 0.332887
C34   C     C_3   0.472491 0.068329 0.445019 0.421718
C35   C     C_3   0.971703 0.390291 0.945025 0.362241
C36   C     C_3   0.023386 0.610666 0.049042 0.416044
H9    H     H_    0.597310 0.206724 0.554417 0.146169
H10   H     H_    0.409597 0.790445 0.450465 0.162382
H11   H     H_    0.892956 0.631235 0.936627 0.141441
H12   H     H_    0.101086 0.368911 0.059768 0.148911
C37   C     C_1   0.371788 0.969740 0.625931 -0.203194
C38   C     C_1   0.629295 0.030107 0.375188 -0.187495
C39   C     C_1   0.128720 0.468192 0.874543 -0.200280
C40   C     C_1   0.870523 0.531590 0.124554 -0.197315
C41   C     C_3   0.481332 0.164891 0.514382 0.415607
C42   C     C_3   0.524813 0.835243 0.491604 0.453836
C43   C     C_3   0.009368 0.664358 0.974651 0.393515
C44   C     C_3   0.985206 0.335640 0.019487 0.456506
C45   C     C_3   0.459456 0.984448 0.544064 -0.114787
C46   C     C_3   0.545512 0.014365 0.461087 -0.064107
C47   C     C_3   0.041034 0.484341 0.956353 -0.105435
C48   C     C_3   0.954653 0.515097 0.038926 -0.065645
C49   C     C_1   0.411037 0.975815 0.588801 0.000375
C50   C     C_1   0.591430 0.023563 0.413750 0.049643
C51   C     C_1   0.089646 0.474441 0.911843 -0.003141
C52   C     C_1   0.908413 0.525182 0.085970 0.040226
N1    N     N_3   0.046630 0.667730 0.652882 -0.661952
H13   H     H_    0.003999 0.667527 0.673319 0.209975
H14   H     H_    0.049010 0.539073 0.629675 0.228825
N2    N     N_3   0.952695 0.334113 0.348333 -0.651317
H15   H     H_    0.995472 0.335882 0.328144 0.226240
H16   H     H_    0.949876 0.462148 0.371821 0.228004
N3    N     N_3   0.458042 0.710365 0.819225 -0.670688
H17   H     H_    0.499608 0.679522 0.799462 0.214534
H18   H     H_    0.459232 0.852193 0.829260 0.227727
N4    N     N_3   0.541911 0.290646 0.181617 -0.642645
H19   H     H_    0.502927 0.194819 0.179324 0.226937
H20   H     H_    0.536937 0.389665 0.218172 0.224057
O21   O     O_3   0.565837 0.844685 0.619713 -0.563651
C53   C     C_3   0.571287 0.964638 0.676014 0.106149
H21   H     H_    0.521844 0.987868 0.687917 0.129165
H22   H     H_    0.595001 0.099116 0.667815 0.110690
C54   C     C_3   0.614232 0.877074 0.736544 -0.744784
H23   H     H_    0.665143 0.860736 0.727600 0.220453
H24   H     H_    0.616444 0.965761 0.782141 0.176137
H25   H     H_    0.593311 0.739535 0.745133 0.217028
O22   O     O_3   0.444218 0.149024 0.383451 -0.532310
C55   C     C_3   0.374915 0.152111 0.376445 0.140763
H26   H     H_    0.360353 0.215084 0.421604 0.146086
H27   H     H_    0.353252 0.010056 0.367728 0.103140
C56   C     C_3   0.346205 0.266231 0.315859 -0.700246
H28   H     H_    0.359016 0.205808 0.269593 0.219149
H29   H     H_    0.291522 0.268323 0.309366 0.166931
H30   H     H_    0.366402 0.409759 0.323438 0.233220
O23   O     O_3   0.943363 0.264145 0.892951 -0.557345
C57   C     C_3   0.930967 0.353715 0.830646 0.096237
H31   H     H_    0.978200 0.391133 0.815320 0.126134
H32   H     H_    0.901490 0.479328 0.832551 0.110165
C58   C     C_3   0.891257 0.224504 0.776833 -0.748056
H33   H     H_    0.844243 0.181069 0.791376 0.221632
H34   H     H_    0.879625 0.296096 0.728087 0.179486
H35   H     H_    0.920023 0.100774 0.770284 0.211829
O24   O     O_3   0.046560 0.733798 0.103679 -0.534490
C59   C     C_3   0.113885 0.778961 0.106733 0.154962
H36   H     H_    0.123462 0.821476 0.056989 0.150629
H37   H     H_    0.144877 0.659466 0.124642 0.096969
C60   C     C_3   0.134337 0.939274 0.156330 -0.684119
H38   H     H_    0.126682 0.900960 0.207044 0.218765
H39   H     H_    0.187431 0.975677 0.159590 0.159087
H40   H     H_    0.104372 0.061068 0.139301 0.248439
O25   O     O_3   0.546104 0.658320 0.477397 -0.527258
C61   C     C_3   0.614222 0.640711 0.504952 0.147401
H41   H     H_    0.619794 0.567206 0.553249 0.135397
H42   H     H_    0.642508 0.774276 0.514949 0.106820
C62   C     C_3   0.645432 0.527728 0.456404 -0.705506
H43   H     H_    0.642413 0.601604 0.408434 0.227186
H44   H     H_    0.698185 0.504522 0.478820 0.161181
H45   H     H_    0.618982 0.392838 0.445728 0.242183
O26   O     O_3   0.455186 0.339449 0.522533 -0.534426
C63   C     C_3   0.474681 0.403733 0.589971 0.131739
H46   H     H_    0.515891 0.505922 0.593193 0.183709
H47   H     H_    0.491609 0.294678 0.627008 0.069959
C64   C     C_3   0.416609 0.496871 0.610978 -0.657898
H48   H     H_    0.377503 0.392667 0.614959 0.209753
H49   H     H_    0.433167 0.568275 0.660595 0.188143
H50   H     H_    0.395535 0.598391 0.572870 0.231479
O27   O     O_3   0.975509 0.160150 0.045139 -0.526366
C65   C     C_3   0.909471 0.095566 0.023022 0.180511
H51   H     H_    0.908241 0.987726 0.983307 0.160770
H52   H     H_    0.874030 0.203401 0.001851 0.092999
C66   C     C_3   0.885378 0.010501 0.082002 -0.687334
H53   H     H_    0.881049 0.118898 0.119997 0.218585
H54   H     H_    0.836225 0.941769 0.064195 0.164206
H55   H     H_    0.921017 0.907831 0.106141 0.259701
O28   O     O_3   0.025039 0.840591 0.953380 -0.534348
C67   C     C_3   0.003093 0.853355 0.882959 0.129755
H56   H     H_    0.954148 0.918466 0.872661 0.162731
H57   H     H_    0.997475 0.718876 0.855047 0.070318
C68   C     C_3   0.052734 0.970149 0.854743 -0.628742
H58   H     H_    0.101297 0.902333 0.863296 0.210937
H59   H     H_    0.035163 0.987201 0.799798 0.156492
H60   H     H_    0.059133 0.107374 0.880096 0.245791

loop_
_geom_bond_atom_site_label_1
_geom_bond_atom_site_label_2
_ccdc_geom_bond_type
O17   V3    S    
C24   H3    S    
C47   C51   S    
O1    C5    A    
O28   C67   S    
C16   H8    S    
O19   V1    S    
O13   V1    S    
C54   H23   S    
O3    C7    A    
N3    H17   S    
C19   N4    S    
C33   O21   S    
C44   C48   S    
O15   V3    S    
C68   H60   S    
C61   C62   S    
C64   H48   S    
C5    C12   S    
C31   C43   S    
O7    C3    A    
C6    C11   S    
C62   H44   S    
O21   C53   S    
C12   C23   A    
C9    C18   A    
C32   C36   S    
O9    V1    S    
C14   C18   A    
C24   C28   A    
C29   C46   S    
O4    C8    A    
O1    V3    S    
C30   H10   S    
C53   C54   S    
O2    V4    S    
O3    V1    S    
C57   H31   S    
C58   H35   S    
C67   C68   S    
C64   H49   S    
C55   H26   S    
O26   C63   S    
C1    O15   A    
C29   C41   S    
C65   C66   S    
O2    C6    A    
O14   V2    S    
C1    C40   S    
C41   C45   S    
C66   H54   S    
C40   C52   T    
C45   C49   S    
C56   H30   S    
C36   C43   S    
O11   C7    A    
C15   C28   A    
O12   C8    A    
C14   H6    S    
C4    C37   S    
C67   H57   S    
C9    C22   A    
C32   C44   S    
C63   C64   S    
C10   C17   A    
O10   V2    S    
C11   C24   A    
C68   H59   S    
C68   H58   S    
O5    V1    S    
C44   O27   S    
C54   H25   S    
C31   C35   S    
O7    V3    S    
C30   C34   S    
C27   C28   A    
O8    V4    S    
C2    O16   A    
C14   C25   A    
O18   V4    S    
C15   C19   A    
C59   C60   S    
C46   C50   S    
O4    V2    S    
C57   C58   S    
C36   C48   S    
C32   C47   S    
O5    C1    A    
C34   C46   S    
O25   C61   S    
C54   H24   S    
C2    C39   S    
C42   C46   S    
C33   C45   S    
C21   C25   A    
O8    C4    A    
C7    C10   S    
C15   H7    S    
N2    H16   S    
O9    C5    A    
C10   C21   A    
C35   C47   S    
C38   C50   T    
C66   H55   S    
C53   H22   S    
C11   C20   A    
C35   O23   S    
C55   C56   S    
C37   C49   T    
C58   H33   S    
C57   H32   S    
C39   C51   T    
O6    V2    S    
C30   C45   S    
C31   H11   S    
C21   H2    S    
C25   C26   A    
N4    H20   S    
C67   H56   S    
C63   H47   S    
N1    H14   S    
C4    O14   A    
N1    H13   S    
C64   H50   S    
C56   H28   S    
O16   V4    S    
C29   H9    S    
C34   C41   S    
C3    O13   A    
C59   H37   S    
C33   C42   S    
C63   H46   S    
C30   C42   S    
C35   C44   S    
C48   C52   S    
C3    C38   S    
C43   O28   S    
C23   C27   A    
N3    H18   S    
O11   V3    S    
C61   H41   S    
O12   V4    S    
C16   C27   A    
C62   H43   S    
C22   C26   A    
C8    C9    S    
C31   C48   S    
C18   N1    S    
C60   H40   S    
O20   V2    S    
C60   H38   S    
C20   N3    S    
O27   C65   S    
C43   C47   S    
C13   C26   A    
O10   C6    A    
O24   C59   S    
C59   H36   S    
C62   H45   S    
C22   H1    S    
N2    H15   S    
C61   H42   S    
C65   H52   S    
C32   H12   S    
C34   O22   S    
C13   C17   A    
C53   H21   S    
C42   O25   S    
C55   H27   S    
C58   H34   S    
O6    C2    A    
C29   C33   S    
C16   C20   A    
C17   N2    S    
C41   O26   S    
N4    H19   S    
O22   C55   S    
C65   H51   S    
C12   C19   A    
C60   H39   S    
C66   H53   S    
O23   C57   S    
C36   O24   S    
C13   H5    S    
C23   H4    S    
C56   H29   S    
