data_mof_unit_53589.cif
_audit_creation_date              2012-12-10T17:30:56-0500
_audit_creation_method            fapswitch 2.2
_symmetry_space_group_name_H-M    P1
_symmetry_Int_Tables_number       1
_space_group_crystal_system       triclinic
_cell_length_a                    18.301538
_cell_length_b                    18.306958
_cell_length_c                    60.015962
_cell_angle_alpha                 90.035151
_cell_angle_beta                  90.041225
_cell_angle_gamma                 90.223774
_cell_volume                      20107.9148616

loop_
_atom_site_label
_atom_site_type_symbol
_atom_type_description
_atom_site_fract_x
_atom_site_fract_y
_atom_site_fract_z
_atom_type_partial_charge
C1    C     C_R   0.499962 0.000039 0.189589 0.787193
C2    C     C_R   0.500116 0.000802 0.810313 0.797773
C3    C     C_R   0.999972 0.499979 0.189730 0.792287
C4    C     C_R   0.000023 0.500016 0.810410 0.787068
C5    C     C_R   0.999865 0.502334 0.689508 0.786975
C6    C     C_R   0.999961 0.499285 0.310325 0.797454
C7    C     C_R   0.499989 0.999977 0.689708 0.792990
C8    C     C_R   0.497712 0.000148 0.310489 0.786926
C9    C     C_R   0.497434 0.987566 0.382621 0.206162
C10   C     C_R   0.504484 0.992679 0.617927 0.213402
C11   C     C_R   0.010908 0.494553 0.382131 0.215732
C12   C     C_R   0.013440 0.502380 0.617399 0.206776
C13   C     C_R   0.000557 0.499176 0.882541 0.199567
C14   C     C_R   0.000144 0.499049 0.117969 0.209095
C15   C     C_R   0.493064 0.006292 0.882111 0.210615
C16   C     C_R   0.495519 0.001517 0.117478 0.201319
C17   C     C_R   0.504154 0.975621 0.453063 -0.053586
C18   C     C_R   0.506316 0.981561 0.547448 -0.051764
C19   C     C_R   0.023849 0.491850 0.452584 -0.051791
C20   C     C_R   0.027512 0.494972 0.546988 -0.053492
C21   C     C_R   0.000653 0.498307 0.953114 -0.053751
C22   C     C_R   0.000528 0.498299 0.047439 -0.052247
C23   C     C_R   0.486140 0.007415 0.952603 -0.052572
C24   C     C_R   0.489253 0.004424 0.046940 -0.053639
C25   C     C_R   0.439274 0.958909 0.441500 -0.020481
C26   C     C_R   0.562386 0.018670 0.558926 -0.021854
C27   C     C_R   0.987798 0.435144 0.441093 -0.022156
C28   C     C_R   0.042923 0.560205 0.558520 -0.020574
C29   C     C_R   0.567626 0.993246 0.440926 -0.025913
C30   C     C_R   0.449951 0.947661 0.559655 -0.021680
C31   C     C_R   0.056794 0.548800 0.440385 -0.022830
C32   C     C_R   0.010342 0.431446 0.559155 -0.025833
C33   C     C_R   0.934651 0.490967 0.941260 -0.021762
C34   C     C_R   0.060298 0.527444 0.059297 -0.021982
C35   C     C_R   0.461266 0.946052 0.940603 -0.024281
C36   C     C_R   0.494191 0.070207 0.059013 -0.021952
C37   C     C_R   0.066648 0.505808 0.941295 -0.021842
C38   C     C_R   0.940674 0.469300 0.059255 -0.022116
C39   C     C_R   0.511624 0.069097 0.940922 -0.022044
C40   C     C_R   0.486144 0.937694 0.058543 -0.021819
C41   C     C_R   0.376840 0.938898 0.453492 -0.142599
C42   C     C_R   0.619685 0.050314 0.546865 -0.143956
C43   C     C_R   0.957153 0.377284 0.453137 -0.143799
C44   C     C_R   0.062475 0.622732 0.546509 -0.142737
C45   C     C_R   0.631651 0.011632 0.452405 -0.142406
C46   C     C_R   0.393221 0.912375 0.548263 -0.143871
C47   C     C_R   0.091128 0.606058 0.451795 -0.143390
C48   C     C_R   0.993346 0.367017 0.547703 -0.142417
C49   C     C_R   0.869363 0.480725 0.952982 -0.143008
C50   C     C_R   0.120973 0.553755 0.047577 -0.143824
C51   C     C_R   0.438111 0.883883 0.952198 -0.143090
C52   C     C_R   0.499716 0.136392 0.047488 -0.143236
C53   C     C_R   0.131948 0.515840 0.953060 -0.142958
C54   C     C_R   0.880105 0.442794 0.047488 -0.143864
C55   C     C_R   0.533788 0.131095 0.952808 -0.143141
C56   C     C_R   0.478539 0.872467 0.046595 -0.143145
C57   C     C_R   0.491946 0.999692 0.335523 -0.144610
C58   C     C_R   0.502554 0.999529 0.664999 -0.108563
C59   C     C_R   0.000574 0.495980 0.335101 -0.109192
C60   C     C_R   0.000476 0.508240 0.664473 -0.144577
C61   C     C_R   0.000017 0.499962 0.835303 -0.137196
C62   C     C_R   0.000131 0.499883 0.165050 -0.110889
C63   C     C_R   0.499910 0.003813 0.835068 -0.112277
C64   C     C_R   0.499504 0.999650 0.164697 -0.135667
C65   C     C_R   0.936956 0.475996 0.012038 0.042954
C66   C     C_R   0.066260 0.513526 0.988515 0.043053
C67   C     C_R   0.475276 0.939454 0.011374 0.042983
C68   C     C_R   0.504439 0.071461 0.988150 0.042973
C69   C     C_R   0.064293 0.520302 0.012086 0.043000
C70   C     C_R   0.935037 0.482771 0.988468 0.042998
C71   C     C_R   0.498596 0.072145 0.011755 0.043064
C72   C     C_R   0.467742 0.941776 0.987823 0.042912
C73   C     C_R   0.445950 0.947429 0.512371 0.043185
C74   C     C_R   0.568780 0.999846 0.488188 0.042834
C75   C     C_R   0.005460 0.429539 0.511872 0.042832
C76   C     C_R   0.056530 0.552904 0.487677 0.043069
C77   C     C_R   0.566785 0.007393 0.511755 0.042791
C78   C     C_R   0.442804 0.951698 0.488742 0.043207
C79   C     C_R   0.051680 0.556200 0.511297 0.043147
C80   C     C_R   0.998542 0.431137 0.488281 0.042801
C81   C     C_R   0.000598 0.498185 0.023777 0.072873
C82   C     C_R   0.000653 0.498186 0.976777 0.073319
C83   C     C_R   0.487620 0.005354 0.023279 0.073175
C84   C     C_R   0.485966 0.006930 0.976271 0.073103
C85   C     C_R   0.506425 0.978656 0.523779 0.072261
C86   C     C_R   0.505329 0.975478 0.476745 0.073212
C87   C     C_R   0.028480 0.493486 0.523306 0.073177
C88   C     C_R   0.026495 0.491867 0.476259 0.072439
C89   C     C_R   0.877679 0.447078 0.024334 -0.219973
C90   C     C_R   0.131735 0.520813 0.976215 -0.220447
C91   C     C_R   0.472089 0.873284 0.023478 -0.220222
C92   C     C_R   0.529292 0.132769 0.975961 -0.219870
C93   C     C_R   0.123536 0.549247 0.024427 -0.220060
C94   C     C_R   0.869576 0.475516 0.976129 -0.220296
C95   C     C_R   0.502953 0.137397 0.024310 -0.220322
C96   C     C_R   0.442225 0.881279 0.975353 -0.219909
C97   C     C_R   0.390691 0.912920 0.525078 -0.219860
C98   C     C_R   0.632110 0.015774 0.475575 -0.219566
C99   C     C_R   0.990081 0.366163 0.524521 -0.219544
C100  C     C_R   0.090351 0.608616 0.474982 -0.219765
C101  C     C_R   0.622451 0.044047 0.523759 -0.219314
C102  C     C_R   0.378700 0.934402 0.476638 -0.220383
C103  C     C_R   0.067715 0.620657 0.523378 -0.220261
C104  C     C_R   0.963148 0.374737 0.476250 -0.219199
C105  C     C_R   0.639894 0.860134 0.250001 0.796655
C106  C     C_R   0.360160 0.139901 0.750010 0.790629
C107  C     C_R   0.139770 0.639868 0.250035 0.799586
C108  C     C_R   0.860074 0.360308 0.750036 0.800327
C109  C     C_R   0.360134 0.139913 0.249990 0.797508
C110  C     C_R   0.639808 0.860022 0.750017 0.791156
C111  C     C_R   0.860205 0.360157 0.250008 0.799198
C112  C     C_R   0.139874 0.639738 0.750030 0.796703
C113  C     C_R   0.639836 0.139803 0.750006 0.799319
C114  C     C_R   0.360186 0.860194 0.249998 0.796614
C115  C     C_R   0.139857 0.360093 0.749989 0.797231
C116  C     C_R   0.860220 0.639974 0.250019 0.790643
C117  C     C_R   0.360188 0.860171 0.749995 0.799497
C118  C     C_R   0.639769 0.139846 0.249987 0.800329
C119  C     C_R   0.860098 0.639873 0.749999 0.796933
C120  C     C_R   0.139842 0.360070 0.250014 0.790849
C121  C     C_R   0.232635 0.875537 0.277218 -0.169301
C122  C     C_R   0.767890 0.124421 0.722957 -0.147420
C123  C     C_R   0.105700 0.212932 0.263309 -0.157881
C124  C     C_R   0.894469 0.787184 0.736949 -0.146113
C125  C     C_R   0.768566 0.123512 0.276627 -0.163044
C126  C     C_R   0.232590 0.874880 0.722641 -0.145344
C127  C     C_R   0.895415 0.788251 0.262027 -0.156336
C128  C     C_R   0.105992 0.213195 0.736289 -0.144827
C129  C     C_R   0.213291 0.105860 0.736406 -0.158211
C130  C     C_R   0.787507 0.894847 0.262775 -0.143692
C131  C     C_R   0.124325 0.767358 0.722903 -0.168839
C132  C     C_R   0.875627 0.232228 0.277108 -0.147077
C133  C     C_R   0.787292 0.894593 0.737159 -0.157429
C134  C     C_R   0.213341 0.105963 0.263645 -0.145573
C135  C     C_R   0.876223 0.231871 0.723273 -0.162232
C136  C     C_R   0.125120 0.767253 0.277485 -0.149230
C137  C     C_R   0.731359 0.376479 0.776746 -0.166811
C138  C     C_R   0.267409 0.624595 0.222815 -0.144022
C139  C     C_R   0.604598 0.711714 0.761931 -0.156394
C140  C     C_R   0.394010 0.286787 0.236369 -0.146409
C141  C     C_R   0.268154 0.624139 0.776988 -0.165574
C142  C     C_R   0.732089 0.375669 0.222950 -0.144766
C143  C     C_R   0.394290 0.286970 0.763411 -0.157427
C144  C     C_R   0.605552 0.712776 0.236889 -0.145314
C145  C     C_R   0.712850 0.605477 0.236982 -0.156610
C146  C     C_R   0.286724 0.394021 0.763683 -0.144846
C147  C     C_R   0.623581 0.268395 0.223248 -0.164733
C148  C     C_R   0.375511 0.732577 0.777253 -0.148479
C149  C     C_R   0.286695 0.394103 0.236465 -0.156083
C150  C     C_R   0.712514 0.605130 0.762688 -0.145062
C151  C     C_R   0.375989 0.731792 0.223146 -0.164675
C152  C     C_R   0.624432 0.267632 0.777183 -0.144960
C153  C     C_R   0.171331 0.882915 0.290776 -0.159506
C154  C     C_R   0.829887 0.116685 0.709714 -0.151042
C155  C     C_R   0.088503 0.141880 0.269780 -0.145502
C156  C     C_R   0.911984 0.858509 0.730847 -0.139054
C157  C     C_R   0.830216 0.115916 0.290049 -0.166663
C158  C     C_R   0.170772 0.882329 0.709274 -0.147462
C159  C     C_R   0.912965 0.859625 0.268081 -0.143633
C160  C     C_R   0.088778 0.142091 0.729831 -0.139188
C161  C     C_R   0.142274 0.088592 0.729879 -0.143165
C162  C     C_R   0.859131 0.912744 0.268497 -0.139567
C163  C     C_R   0.116764 0.828785 0.709418 -0.162111
C164  C     C_R   0.883507 0.170177 0.290317 -0.150815
C165  C     C_R   0.858559 0.912070 0.730968 -0.146678
C166  C     C_R   0.142188 0.088575 0.269979 -0.138349
C167  C     C_R   0.883877 0.170240 0.709862 -0.165691
C168  C     C_R   0.117781 0.828900 0.290930 -0.148155
C169  C     C_R   0.669618 0.384098 0.790115 -0.165455
C170  C     C_R   0.329400 0.616692 0.209576 -0.148984
C171  C     C_R   0.587052 0.640324 0.767937 -0.143886
C172  C     C_R   0.411236 0.357896 0.229961 -0.139629
C173  C     C_R   0.329882 0.616590 0.790384 -0.163088
C174  C     C_R   0.669997 0.383562 0.209733 -0.149315
C175  C     C_R   0.411525 0.358021 0.769899 -0.144975
C176  C     C_R   0.588092 0.641467 0.230720 -0.140030
C177  C     C_R   0.641585 0.587976 0.230766 -0.145416
C178  C     C_R   0.357891 0.411373 0.770053 -0.138793
C179  C     C_R   0.615831 0.330184 0.209919 -0.164614
C180  C     C_R   0.383297 0.670728 0.790563 -0.147937
C181  C     C_R   0.357739 0.411387 0.230004 -0.144914
C182  C     C_R   0.640894 0.587214 0.768363 -0.140786
C183  C     C_R   0.383655 0.669979 0.209803 -0.166446
C184  C     C_R   0.616475 0.329688 0.790405 -0.149607
C185  C     C_R   0.187127 0.758371 0.263634 0.076154
C186  C     C_R   0.813379 0.241339 0.736717 0.076669
C187  C     C_R   0.232000 0.177520 0.256527 0.072210
C188  C     C_R   0.768218 0.822672 0.743826 0.078735
C189  C     C_R   0.813275 0.241332 0.263400 0.075559
C190  C     C_R   0.186884 0.758287 0.736523 0.075980
C191  C     C_R   0.768467 0.822942 0.256037 0.075260
C192  C     C_R   0.232028 0.177505 0.743448 0.075557
C193  C     C_R   0.177566 0.231962 0.743412 0.072809
C194  C     C_R   0.823112 0.768690 0.255822 0.071600
C195  C     C_R   0.241612 0.812805 0.736441 0.074701
C196  C     C_R   0.758875 0.186488 0.263263 0.076813
C197  C     C_R   0.822651 0.768203 0.743768 0.072323
C198  C     C_R   0.177444 0.231873 0.256437 0.076732
C199  C     C_R   0.758655 0.186820 0.736625 0.075433
C200  C     C_R   0.241640 0.813111 0.263549 0.075909
C201  C     C_R   0.686712 0.258647 0.763456 0.075734
C202  C     C_R   0.313243 0.741327 0.236629 0.076400
C203  C     C_R   0.731546 0.677045 0.755990 0.075214
C204  C     C_R   0.267962 0.322464 0.243478 0.076431
C205  C     C_R   0.313203 0.741517 0.763507 0.076135
C206  C     C_R   0.686461 0.258840 0.236692 0.075089
C207  C     C_R   0.268016 0.322452 0.756555 0.072550
C208  C     C_R   0.731850 0.677353 0.243748 0.078298
C209  C     C_R   0.677379 0.731792 0.243724 0.072746
C210  C     C_R   0.322553 0.268074 0.756482 0.076842
C211  C     C_R   0.741276 0.313276 0.236608 0.075443
C212  C     C_R   0.258728 0.686737 0.763442 0.076140
C213  C     C_R   0.322429 0.268018 0.243448 0.072303
C214  C     C_R   0.676906 0.731295 0.755775 0.071340
C215  C     C_R   0.258434 0.686891 0.236549 0.074899
C216  C     C_R   0.741041 0.313569 0.763334 0.075555
C217  C     C_R   0.195912 0.695933 0.250055 -0.157962
C218  C     C_R   0.803948 0.304254 0.750019 -0.160206
C219  C     C_R   0.304027 0.195998 0.249997 -0.167359
C220  C     C_R   0.695846 0.803867 0.749923 -0.170450
C221  C     C_R   0.804078 0.304070 0.250004 -0.157777
C222  C     C_R   0.195985 0.695806 0.750018 -0.155043
C223  C     C_R   0.696037 0.804068 0.249983 -0.167772
C224  C     C_R   0.304071 0.195993 0.749989 -0.163999
C225  C     C_R   0.195972 0.303990 0.749994 -0.166987
C226  C     C_R   0.804191 0.696137 0.249913 -0.169779
C227  C     C_R   0.304136 0.804006 0.749991 -0.157943
C228  C     C_R   0.695869 0.195925 0.249986 -0.160331
C229  C     C_R   0.803969 0.695926 0.749976 -0.168289
C230  C     C_R   0.195923 0.303971 0.249986 -0.164212
C231  C     C_R   0.695932 0.195919 0.750038 -0.157878
C232  C     C_R   0.304100 0.804094 0.250025 -0.155077
C233  C     C_R   0.438042 0.963948 0.418134 0.487862
C234  C     C_R   0.559568 0.023508 0.582290 0.484565
C235  C     C_R   0.982739 0.438026 0.417735 0.484826
C236  C     C_R   0.037118 0.561662 0.581870 0.487909
C237  C     C_R   0.565226 0.992908 0.417500 0.490053
C238  C     C_R   0.451670 0.950007 0.583065 0.484419
C239  C     C_R   0.054216 0.547254 0.416969 0.484560
C240  C     C_R   0.009778 0.434170 0.582579 0.489890
C241  C     C_R   0.935574 0.494299 0.917866 0.489450
C242  C     C_R   0.057808 0.529636 0.082692 0.485823
C243  C     C_R   0.460694 0.948234 0.917191 0.487416
C244  C     C_R   0.493398 0.068146 0.082424 0.489044
C245  C     C_R   0.065687 0.502945 0.917893 0.489187
C246  C     C_R   0.942941 0.467520 0.082656 0.485688
C247  C     C_R   0.515010 0.066937 0.917538 0.485570
C248  C     C_R   0.491039 0.937843 0.081915 0.489184
C249  C     C_R   0.503659 0.057252 0.372564 0.094778
C250  C     C_R   0.454476 0.039501 0.628786 0.098313
C251  C     C_R   0.960657 0.542150 0.371638 0.094721
C252  C     C_R   0.943576 0.495898 0.627344 0.094679
C253  C     C_R   0.484816 0.925444 0.369286 0.099631
C254  C     C_R   0.553998 0.949955 0.630409 0.097502
C255  C     C_R   0.054600 0.446754 0.369371 0.098314
C256  C     C_R   0.075277 0.515476 0.630821 0.099262
C257  C     C_R   0.023315 0.562051 0.870787 0.099203
C258  C     C_R   0.952371 0.546184 0.129605 0.099877
C259  C     C_R   0.444913 0.050065 0.869491 0.100973
C260  C     C_R   0.434547 0.976422 0.129688 0.098589
C261  C     C_R   0.977571 0.436717 0.870601 0.099604
C262  C     C_R   0.047898 0.452349 0.129769 0.099918
C263  C     C_R   0.546134 0.962442 0.871383 0.096114
C264  C     C_R   0.558707 0.025418 0.128907 0.098985
C265  C     C_R   0.511605 0.061884 0.348927 0.019434
C266  C     C_R   0.449291 0.038338 0.652429 0.022173
C267  C     C_R   0.958693 0.546374 0.347927 0.018087
C268  C     C_R   0.938499 0.488435 0.650995 0.019110
C269  C     C_R   0.466990 0.935277 0.346577 0.031381
C270  C     C_R   0.557862 0.958957 0.653884 0.024547
C271  C     C_R   0.044220 0.442555 0.345971 0.025017
C272  C     C_R   0.064983 0.533371 0.653503 0.031720
C273  C     C_R   0.036233 0.556499 0.847543 0.030593
C274  C     C_R   0.946687 0.540477 0.153136 0.022993
C275  C     C_R   0.454678 0.055437 0.846119 0.023377
C276  C     C_R   0.442716 0.962653 0.152799 0.030730
C277  C     C_R   0.963994 0.443118 0.847419 0.030682
C278  C     C_R   0.053665 0.459024 0.153273 0.023283
C279  C     C_R   0.544604 0.955482 0.847742 0.020043
C280  C     C_R   0.554834 0.036962 0.152270 0.030290
H1    H     H_    0.431535 0.663825 0.199404 0.135023
H2    H     H_    0.568939 0.335533 0.800950 0.131950
H3    H     H_    0.371240 0.466412 0.224851 0.138239
H4    H     H_    0.627165 0.531963 0.773232 0.137341
H5    H     H_    0.567949 0.336264 0.199499 0.134216
H6    H     H_    0.430881 0.664796 0.801102 0.126979
H7    H     H_    0.627924 0.532790 0.225785 0.138897
H8    H     H_    0.371428 0.466363 0.775251 0.135940
H9    H     H_    0.466618 0.371629 0.775000 0.138339
H10   H     H_    0.532920 0.627734 0.225730 0.137101
H11   H     H_    0.335896 0.568865 0.800853 0.134518
H12   H     H_    0.663915 0.431227 0.199272 0.131311
H13   H     H_    0.531557 0.626334 0.772510 0.138042
H14   H     H_    0.466235 0.371505 0.224810 0.136091
H15   H     H_    0.663401 0.432079 0.800480 0.135125
H16   H     H_    0.335356 0.569069 0.199077 0.131557
H17   H     H_    0.931698 0.164244 0.699432 0.131751
H18   H     H_    0.070435 0.834779 0.301551 0.127258
H19   H     H_    0.872247 0.967282 0.726043 0.139538
H20   H     H_    0.128717 0.033592 0.275188 0.136306
H21   H     H_    0.069002 0.834616 0.698931 0.133392
H22   H     H_    0.931126 0.164168 0.300819 0.133241
H23   H     H_    0.128803 0.033572 0.724680 0.138493
H24   H     H_    0.872869 0.967987 0.273396 0.137401
H25   H     H_    0.968460 0.873585 0.272701 0.138037
H26   H     H_    0.033790 0.128497 0.724636 0.136192
H27   H     H_    0.836409 0.067936 0.300398 0.132475
H28   H     H_    0.164728 0.929811 0.698746 0.129399
H29   H     H_    0.033410 0.128250 0.274847 0.138880
H30   H     H_    0.967147 0.872182 0.725848 0.137434
H31   H     H_    0.165627 0.930524 0.301327 0.133151
H32   H     H_    0.836083 0.068974 0.699280 0.133711
H33   H     H_    0.273055 0.918816 0.277752 0.113786
H34   H     H_    0.727332 0.081283 0.722269 0.113058
H35   H     H_    0.062167 0.252604 0.264003 0.132362
H36   H     H_    0.937812 0.747357 0.736027 0.132330
H37   H     H_    0.728315 0.080075 0.277086 0.117281
H38   H     H_    0.273165 0.917996 0.721954 0.113084
H39   H     H_    0.939150 0.748808 0.262619 0.142302
H40   H     H_    0.062616 0.253014 0.735446 0.130897
H41   H     H_    0.253109 0.062476 0.735615 0.133174
H42   H     H_    0.747537 0.938008 0.263879 0.131482
H43   H     H_    0.081042 0.726942 0.722368 0.113980
H44   H     H_    0.918596 0.272954 0.277863 0.112564
H45   H     H_    0.747549 0.938031 0.736353 0.133384
H46   H     H_    0.253285 0.062722 0.264579 0.130891
H47   H     H_    0.919506 0.272282 0.722743 0.117379
H48   H     H_    0.082023 0.726651 0.278170 0.113004
H49   H     H_    0.771561 0.419966 0.777221 0.114730
H50   H     H_    0.226693 0.581612 0.222095 0.112504
H51   H     H_    0.560860 0.751150 0.762524 0.142440
H52   H     H_    0.437391 0.246973 0.235529 0.131536
H53   H     H_    0.227790 0.580813 0.777532 0.114751
H54   H     H_    0.772774 0.418677 0.222245 0.112606
H55   H     H_    0.437792 0.247268 0.764128 0.131758
H56   H     H_    0.562157 0.752557 0.236012 0.132551
H57   H     H_    0.752643 0.562091 0.236135 0.132809
H58   H     H_    0.246817 0.437300 0.764590 0.131131
H59   H     H_    0.580236 0.228047 0.222708 0.115113
H60   H     H_    0.418549 0.773245 0.777941 0.112931
H61   H     H_    0.246872 0.437480 0.235666 0.131720
H62   H     H_    0.752487 0.561973 0.763798 0.132188
H63   H     H_    0.419375 0.772094 0.222626 0.114659
H64   H     H_    0.581578 0.226794 0.777944 0.111827
H65   H     H_    0.326057 0.926268 0.445014 0.186892
H66   H     H_    0.663203 0.079696 0.555266 0.187085
H67   H     H_    0.928632 0.333239 0.444721 0.187027
H68   H     H_    0.074133 0.673774 0.554961 0.186811
H69   H     H_    0.681548 0.024391 0.443495 0.186897
H70   H     H_    0.349715 0.884983 0.557241 0.187134
H71   H     H_    0.117833 0.650006 0.442828 0.187165
H72   H     H_    0.981012 0.317074 0.556638 0.186885
H73   H     H_    0.817712 0.475604 0.944281 0.186661
H74   H     H_    0.167400 0.577090 0.056281 0.186642
H75   H     H_    0.417875 0.836254 0.943389 0.186746
H76   H     H_    0.502736 0.187868 0.056360 0.186561
H77   H     H_    0.183598 0.521044 0.944387 0.186654
H78   H     H_    0.833633 0.419533 0.056159 0.186630
H79   H     H_    0.554178 0.179075 0.944238 0.186635
H80   H     H_    0.476637 0.820312 0.055098 0.186597
H81   H     H_    0.829572 0.424901 0.016395 0.142697
H82   H     H_    0.184193 0.527844 0.984151 0.142664
H83   H     H_    0.467353 0.820827 0.015406 0.142624
H84   H     H_    0.548385 0.182023 0.983971 0.142386
H85   H     H_    0.171702 0.571329 0.016526 0.142536
H86   H     H_    0.817118 0.468388 0.984031 0.142751
H87   H     H_    0.506497 0.190469 0.016587 0.142621
H88   H     H_    0.422860 0.831795 0.983146 0.142422
H89   H     H_    0.345699 0.883916 0.517498 0.141849
H90   H     H_    0.683601 0.029771 0.483243 0.142516
H91   H     H_    0.977148 0.314368 0.516885 0.142474
H92   H     H_    0.118539 0.654088 0.482575 0.141798
H93   H     H_    0.667662 0.070922 0.515626 0.142492
H94   H     H_    0.328022 0.919982 0.484691 0.142051
H95   H     H_    0.081675 0.671423 0.515310 0.142020
H96   H     H_    0.936961 0.329091 0.484359 0.142386
N1    N     N_R   0.500564 0.980418 0.406590 -0.345856
N2    N     N_R   0.505232 0.988660 0.593889 -0.341825
N3    N     N_R   0.016234 0.493221 0.406148 -0.343231
N4    N     N_R   0.021077 0.499101 0.593444 -0.345798
N5    N     N_R   0.000617 0.498795 0.906623 -0.343299
N6    N     N_R   0.000295 0.498725 0.093904 -0.342496
N7    N     N_R   0.488976 0.007389 0.906143 -0.344838
N8    N     N_R   0.493305 0.002533 0.093412 -0.343290
O1    O     O_3   0.500000 0.000000 0.250000 -0.469334
O2    O     O_3   0.500000 1.000000 0.750000 -0.473237
O3    O     O_3   1.000000 0.500000 0.250000 -0.473497
O4    O     O_3   0.000000 0.500000 0.750000 -0.469259
O5    O     O_R   0.439130 0.000000 0.200390 -0.648146
O6    O     O_R   0.560870 1.000000 0.799610 -0.643660
O7    O     O_R   1.000000 0.439130 0.200390 -0.645686
O8    O     O_R   0.000000 0.560870 0.799610 -0.648835
O9    O     O_R   0.560870 0.000000 0.200390 -0.648942
O10   O     O_R   0.439130 1.000000 0.799610 -0.649393
O11   O     O_R   0.000000 0.560870 0.200390 -0.645856
O12   O     O_R   0.000000 0.439130 0.799610 -0.648678
O13   O     O_R   0.939130 0.500000 0.700390 -0.643169
O14   O     O_R   0.060870 0.500000 0.299610 -0.648689
O15   O     O_R   0.500000 0.939130 0.700390 -0.645426
O16   O     O_R   0.500000 0.060870 0.299610 -0.643276
O17   O     O_R   0.060870 0.500000 0.700390 -0.650159
O18   O     O_R   0.939130 0.500000 0.299610 -0.643874
O19   O     O_R   0.500000 0.060870 0.700390 -0.646613
O20   O     O_R   0.500000 0.939130 0.299610 -0.650333
O21   O     O_R   0.646010 0.914780 0.237240 -0.637528
O22   O     O_R   0.353990 0.085220 0.762760 -0.641909
O23   O     O_R   0.085220 0.646010 0.237240 -0.636287
O24   O     O_R   0.914780 0.353990 0.762760 -0.641161
O25   O     O_R   0.353990 0.085220 0.237240 -0.636689
O26   O     O_R   0.646010 0.914780 0.762760 -0.641589
O27   O     O_R   0.914780 0.353990 0.237240 -0.635924
O28   O     O_R   0.085220 0.646010 0.762760 -0.642028
O29   O     O_R   0.646010 0.085220 0.762760 -0.638044
O30   O     O_R   0.353990 0.914780 0.237240 -0.641815
O31   O     O_R   0.085220 0.353990 0.762760 -0.637514
O32   O     O_R   0.914780 0.646010 0.237240 -0.641625
O33   O     O_R   0.353990 0.914780 0.762760 -0.636065
O34   O     O_R   0.646010 0.085220 0.237240 -0.641409
O35   O     O_R   0.914780 0.646010 0.762760 -0.637022
O36   O     O_R   0.085220 0.353990 0.237240 -0.641738
O37   O     O_R   0.146010 0.414780 0.737240 -0.637685
O38   O     O_R   0.853990 0.585220 0.262760 -0.641410
O39   O     O_R   0.585220 0.146010 0.737240 -0.636156
O40   O     O_R   0.414780 0.853990 0.262760 -0.643539
O41   O     O_R   0.853990 0.585220 0.737240 -0.642685
O42   O     O_R   0.146010 0.414780 0.262760 -0.642262
O43   O     O_R   0.414780 0.853990 0.737240 -0.636702
O44   O     O_R   0.585220 0.146010 0.262760 -0.644667
O45   O     O_R   0.146010 0.585220 0.262760 -0.636444
O46   O     O_R   0.853990 0.414780 0.737240 -0.644969
O47   O     O_R   0.585220 0.853990 0.262760 -0.638121
O48   O     O_R   0.414780 0.146010 0.737240 -0.641810
O49   O     O_R   0.853990 0.414780 0.262760 -0.637957
O50   O     O_R   0.146010 0.585220 0.737240 -0.643411
O51   O     O_R   0.414780 0.146010 0.262760 -0.642507
O52   O     O_R   0.585220 0.853990 0.737240 -0.641922
O53   O     O_2   0.374879 0.952639 0.407020 -0.591440
O54   O     O_2   0.611183 0.061827 0.593382 -0.584481
O55   O     O_2   0.945327 0.385766 0.406639 -0.583389
O56   O     O_2   0.047305 0.625071 0.592942 -0.591456
O57   O     O_2   0.626486 0.006675 0.405707 -0.577472
O58   O     O_2   0.399604 0.915101 0.594938 -0.584784
O59   O     O_2   0.087989 0.600044 0.405096 -0.581258
O60   O     O_2   0.996376 0.372919 0.594408 -0.577516
O61   O     O_2   0.872120 0.492171 0.906415 -0.590793
O62   O     O_2   0.112882 0.561260 0.094187 -0.584751
O63   O     O_2   0.433714 0.891143 0.905528 -0.578752
O64   O     O_2   0.493707 0.131092 0.094136 -0.589784
O65   O     O_2   0.129118 0.505272 0.906461 -0.590157
O66   O     O_2   0.887783 0.436064 0.094120 -0.584513
O67   O     O_2   0.543455 0.124039 0.906235 -0.583183
O68   O     O_2   0.492661 0.873951 0.093103 -0.590212
Zn1   Zn    Zn3+2 0.500000 0.913460 0.269040 0.947009
Zn2   Zn    Zn3+2 0.500000 0.086540 0.730960 0.952799
Zn3   Zn    Zn3+2 0.086540 0.500000 0.269040 0.952229
Zn4   Zn    Zn3+2 0.913460 0.500000 0.730960 0.942840
Zn5   Zn    Zn3+2 0.500000 0.086540 0.269040 0.942980
Zn6   Zn    Zn3+2 0.500000 0.913460 0.730960 0.953945
Zn7   Zn    Zn3+2 0.913460 0.500000 0.269040 0.951943
Zn8   Zn    Zn3+2 0.086540 0.500000 0.730960 0.947531
Zn9   Zn    Zn3+2 0.000000 0.413460 0.769040 0.951341
Zn10  Zn    Zn3+2 0.000000 0.586540 0.230960 0.954024
Zn11  Zn    Zn3+2 0.586540 0.000000 0.769040 0.951632
Zn12  Zn    Zn3+2 0.413460 1.000000 0.230960 0.950402
Zn13  Zn    Zn3+2 1.000000 0.586540 0.769040 0.949911
Zn14  Zn    Zn3+2 1.000000 0.413460 0.230960 0.953185
Zn15  Zn    Zn3+2 0.413460 0.000000 0.769040 0.952285
Zn16  Zn    Zn3+2 0.586540 1.000000 0.230960 0.951527
C281  C     C_3   0.414733 0.880478 0.335617 -0.394009
C282  C     C_3   0.338899 0.882298 0.346680 -0.369986
C283  C     C_3   0.290548 0.820022 0.338233 -0.856604
H97   H     H_    0.286094 0.821835 0.319801 0.273715
H98   H     H_    0.313846 0.766581 0.343271 0.263699
H99   H     H_    0.234980 0.825037 0.345475 0.259516
H100  H     H_    0.342813 0.878107 0.365079 0.263030
H101  H     H_    0.312179 0.935221 0.342762 0.224673
H102  H     H_    0.403614 0.892293 0.317931 0.227891
H103  H     H_    0.438253 0.824719 0.336285 0.211310
C284  C     C_3   0.624347 0.929907 0.666541 -0.409423
C285  C     C_3   0.690929 0.979808 0.662900 -0.349977
C286  C     C_3   0.759763 0.946699 0.673011 -0.900138
H104  H     H_    0.753481 0.941106 0.691325 0.258611
H105  H     H_    0.770589 0.892172 0.665614 0.269070
H106  H     H_    0.807305 0.982706 0.669517 0.249261
H107  H     H_    0.700469 0.989355 0.644865 0.242982
H108  H     H_    0.680680 0.033711 0.670838 0.226089
H109  H     H_    0.615971 0.926224 0.684711 0.216703
H110  H     H_    0.636595 0.873029 0.661463 0.208567
C287  C     C_3   0.073611 0.376379 0.333237 -0.410087
C288  C     C_3   0.024846 0.309202 0.337271 -0.351459
C289  C     C_3   0.057408 0.240950 0.326661 -0.898771
H111  H     H_    0.061256 0.247954 0.308338 0.258480
H112  H     H_    0.112680 0.230215 0.333551 0.269441
H113  H     H_    0.021946 0.193089 0.330271 0.249438
H114  H     H_    0.017521 0.299202 0.355379 0.243701
H115  H     H_    0.969939 0.319045 0.329935 0.225799
H116  H     H_    0.075998 0.384477 0.315039 0.217581
H117  H     H_    0.130969 0.364952 0.337994 0.208764
C290  C     C_3   0.119415 0.585852 0.664535 -0.393246
C291  C     C_3   0.117553 0.661610 0.653433 -0.369962
C292  C     C_3   0.179740 0.710071 0.661888 -0.857798
H118  H     H_    0.177886 0.714532 0.680318 0.273971
H119  H     H_    0.233249 0.686872 0.656864 0.263628
H120  H     H_    0.174640 0.765609 0.654638 0.259201
H121  H     H_    0.121835 0.657626 0.635037 0.262640
H122  H     H_    0.064557 0.688268 0.657311 0.224581
H123  H     H_    0.107202 0.596999 0.682196 0.227247
H124  H     H_    0.175276 0.562508 0.663980 0.211484
C293  C     C_3   0.542399 0.131995 0.338575 -0.375490
C294  C     C_3   0.621571 0.121636 0.330725 -0.322300
C295  C     C_3   0.651912 0.191739 0.320452 -0.848167
H125  H     H_    0.621220 0.205672 0.305071 0.281821
H126  H     H_    0.648005 0.237746 0.332461 0.254885
H127  H     H_    0.710299 0.184108 0.316155 0.259732
H128  H     H_    0.656079 0.106539 0.345254 0.227456
H129  H     H_    0.625543 0.077008 0.318273 0.219339
H130  H     H_    0.506377 0.152787 0.325215 0.229100
H131  H     H_    0.543333 0.178321 0.350306 0.192760
C296  C     C_3   0.383340 0.073325 0.663838 -0.417618
C297  C     C_3   0.317303 0.021476 0.663230 -0.349730
C298  C     C_3   0.249445 0.057990 0.672835 -0.894221
H132  H     H_    0.258418 0.072067 0.690623 0.260755
H133  H     H_    0.236420 0.108431 0.663377 0.269027
H134  H     H_    0.202133 0.020141 0.671585 0.246652
H135  H     H_    0.305506 0.004274 0.645836 0.241420
H136  H     H_    0.329638 0.971695 0.673133 0.223744
H137  H     H_    0.393618 0.088145 0.681369 0.225203
H138  H     H_    0.369399 0.126322 0.656064 0.207802
C299  C     C_3   0.913986 0.605777 0.336273 -0.407155
C300  C     C_3   0.963274 0.667019 0.327290 -0.344008
C301  C     C_3   0.918075 0.726533 0.316132 -0.886301
H139  H     H_    0.885386 0.702990 0.302263 0.268394
H140  H     H_    0.880692 0.752264 0.328387 0.265748
H141  H     H_    0.954934 0.769277 0.309342 0.241752
H142  H     H_    0.994856 0.691584 0.341260 0.233777
H143  H     H_    0.002643 0.645220 0.314923 0.213880
H144  H     H_    0.879858 0.582283 0.322835 0.232161
H145  H     H_    0.872811 0.631137 0.347200 0.204513
C302  C     C_3   0.868132 0.458066 0.661304 -0.376124
C303  C     C_3   0.878015 0.378873 0.669173 -0.322423
C304  C     C_3   0.807764 0.349036 0.679497 -0.847123
H146  H     H_    0.794088 0.379915 0.694862 0.281893
H147  H     H_    0.761714 0.353138 0.667503 0.255030
H148  H     H_    0.815071 0.290651 0.683835 0.259519
H149  H     H_    0.892800 0.344233 0.654646 0.227220
H150  H     H_    0.922711 0.374656 0.681601 0.219490
H151  H     H_    0.847505 0.494217 0.674652 0.229187
H152  H     H_    0.821820 0.457460 0.649559 0.192762
C305  C     C_3   0.906964 0.392404 0.836876 -0.401576
C306  C     C_3   0.830050 0.408465 0.845939 -0.367235
C307  C     C_3   0.776562 0.347493 0.839817 -0.866074
H153  H     H_    0.777223 0.337510 0.821584 0.275693
H154  H     H_    0.791645 0.296262 0.848565 0.263089
H155  H     H_    0.720402 0.363104 0.844878 0.256939
H156  H     H_    0.830236 0.414698 0.864337 0.261795
H157  H     H_    0.810351 0.460759 0.838727 0.221487
H158  H     H_    0.901992 0.398104 0.818678 0.226250
H159  H     H_    0.922009 0.334561 0.839841 0.211656
C308  C     C_3   0.120606 0.427883 0.165208 -0.412925
C309  C     C_3   0.187299 0.477674 0.161684 -0.347569
C310  C     C_3   0.255692 0.445182 0.172260 -0.897290
H160  H     H_    0.248398 0.440094 0.190556 0.257593
H161  H     H_    0.267179 0.390494 0.165073 0.270456
H162  H     H_    0.303250 0.481373 0.168953 0.248502
H163  H     H_    0.197578 0.486206 0.143636 0.244140
H164  H     H_    0.176654 0.531924 0.169348 0.226733
H165  H     H_    0.113079 0.422079 0.183356 0.220054
H166  H     H_    0.132347 0.371607 0.159457 0.208100
C311  C     C_3   0.588587 0.895497 0.836085 -0.404971
C312  C     C_3   0.538647 0.834627 0.827109 -0.341176
C313  C     C_3   0.583203 0.774525 0.815997 -0.886348
H167  H     H_    0.616102 0.797589 0.802123 0.268597
H168  H     H_    0.620338 0.748513 0.828272 0.265941
H169  H     H_    0.545877 0.732100 0.809220 0.241578
H170  H     H_    0.506856 0.810526 0.841088 0.235762
H171  H     H_    0.499433 0.856498 0.814711 0.212768
H172  H     H_    0.622949 0.918635 0.822656 0.231463
H173  H     H_    0.628999 0.869249 0.847079 0.204594
C314  C     C_3   0.606365 0.093474 0.162705 -0.404619
C315  C     C_3   0.587547 0.171120 0.154825 -0.367778
C316  C     C_3   0.648906 0.224765 0.160445 -0.864848
H174  H     H_    0.662463 0.222061 0.178447 0.275766
H175  H     H_    0.698544 0.211553 0.150619 0.263569
H176  H     H_    0.631574 0.281224 0.156321 0.255921
H177  H     H_    0.577763 0.172959 0.136575 0.259713
H178  H     H_    0.536469 0.189126 0.163179 0.220611
H179  H     H_    0.604100 0.095924 0.181002 0.228257
H180  H     H_    0.663884 0.079876 0.158678 0.211307
C317  C     C_3   0.092886 0.607694 0.837072 -0.402601
C318  C     C_3   0.170126 0.591082 0.845799 -0.368569
C319  C     C_3   0.223374 0.652459 0.839911 -0.863350
H181  H     H_    0.221970 0.663704 0.821754 0.275371
H182  H     H_    0.208660 0.703070 0.849058 0.263679
H183  H     H_    0.279729 0.636500 0.844676 0.256868
H184  H     H_    0.170599 0.583661 0.864155 0.261487
H185  H     H_    0.189568 0.539274 0.838194 0.221048
H186  H     H_    0.097100 0.603067 0.818835 0.227048
H187  H     H_    0.078045 0.665392 0.840385 0.211675
C320  C     C_3   0.879963 0.572399 0.164975 -0.413885
C321  C     C_3   0.813215 0.522391 0.161831 -0.347554
C322  C     C_3   0.745148 0.555298 0.172471 -0.896676
H188  H     H_    0.753018 0.561188 0.190730 0.257668
H189  H     H_    0.733383 0.609661 0.165113 0.270058
H190  H     H_    0.697511 0.518939 0.169417 0.248289
H191  H     H_    0.802365 0.513076 0.143841 0.243553
H192  H     H_    0.824172 0.468500 0.169672 0.226613
H193  H     H_    0.887884 0.579517 0.183066 0.221362
H194  H     H_    0.868055 0.628277 0.158925 0.207767
C323  C     C_3   0.423408 0.121380 0.833710 -0.410664
C324  C     C_3   0.469915 0.189759 0.838331 -0.350596
C325  C     C_3   0.438185 0.256849 0.826831 -0.895386
H195  H     H_    0.437634 0.248746 0.808505 0.256974
H196  H     H_    0.381634 0.267057 0.832740 0.270856
H197  H     H_    0.472314 0.305472 0.830728 0.249339
H198  H     H_    0.473378 0.200640 0.856506 0.245773
H199  H     H_    0.526343 0.180793 0.832056 0.226720
H200  H     H_    0.421984 0.114310 0.815462 0.220029
H201  H     H_    0.365631 0.130878 0.838371 0.208204
C326  C     C_3   0.393615 0.904751 0.163558 -0.398685
C327  C     C_3   0.409915 0.828199 0.154225 -0.369291
C328  C     C_3   0.348625 0.774592 0.159897 -0.865667
H202  H     H_    0.337566 0.774991 0.178067 0.276207
H203  H     H_    0.297885 0.789787 0.150884 0.263251
H204  H     H_    0.364566 0.718542 0.154820 0.256574
H205  H     H_    0.416865 0.829032 0.135853 0.261042
H206  H     H_    0.461949 0.808149 0.161544 0.220761
H207  H     H_    0.400882 0.899513 0.181710 0.223124
H208  H     H_    0.335364 0.919214 0.161038 0.212661
C329  C     C_3   0.492619 0.848842 0.378974 -0.386652
C330  C     C_3   0.561772 0.812245 0.369890 -0.360015
C331  C     C_3   0.571114 0.735531 0.379388 -0.869279
H209  H     H_    0.575819 0.737753 0.397831 0.265601
H210  H     H_    0.523758 0.700570 0.374732 0.263228
H211  H     H_    0.621628 0.710682 0.372555 0.252780
H212  H     H_    0.559223 0.808503 0.351428 0.226223
H213  H     H_    0.610398 0.845696 0.374448 0.243800
H214  H     H_    0.497133 0.849738 0.397383 0.211663
H215  H     H_    0.444074 0.814628 0.375210 0.210648
C332  C     C_3   0.599839 0.891989 0.618650 -0.396838
C333  C     C_3   0.564642 0.816289 0.621271 -0.344112
C334  C     C_3   0.611707 0.757047 0.610681 -0.885677
H216  H     H_    0.618962 0.767849 0.592603 0.267732
H217  H     H_    0.666120 0.755134 0.618873 0.259974
H218  H     H_    0.584672 0.703065 0.612724 0.255978
H219  H     H_    0.556770 0.803138 0.639178 0.224680
H220  H     H_    0.510087 0.816066 0.613112 0.256285
H221  H     H_    0.605683 0.902993 0.600609 0.210973
H222  H     H_    0.656748 0.891486 0.624929 0.208442
C335  C     C_3   0.114748 0.402751 0.380771 -0.396508
C336  C     C_3   0.189367 0.439554 0.377374 -0.342355
C337  C     C_3   0.250696 0.394057 0.387491 -0.886863
H223  H     H_    0.241871 0.386932 0.405672 0.267765
H224  H     H_    0.252985 0.339557 0.379375 0.259500
H225  H     H_    0.303853 0.422221 0.384899 0.256484
H226  H     H_    0.200566 0.447341 0.359342 0.224745
H227  H     H_    0.189172 0.494255 0.385429 0.256604
H228  H     H_    0.105645 0.397361 0.398929 0.210131
H229  H     H_    0.115900 0.345647 0.374680 0.207868
C338  C     C_3   0.152105 0.508028 0.621256 -0.387592
C339  C     C_3   0.188824 0.439009 0.630381 -0.359212
C340  C     C_3   0.265733 0.429952 0.620989 -0.869047
H230  H     H_    0.263796 0.425261 0.602542 0.265606
H231  H     H_    0.300468 0.477413 0.625696 0.263297
H232  H     H_    0.290668 0.379534 0.627853 0.252993
H233  H     H_    0.192283 0.441544 0.648849 0.226329
H234  H     H_    0.155603 0.390287 0.625770 0.244159
H235  H     H_    0.151558 0.503606 0.602845 0.211526
H236  H     H_    0.186079 0.556674 0.625090 0.210540
C341  C     C_3   0.500627 0.125584 0.387195 -0.381234
C342  C     C_3   0.430878 0.169563 0.382560 -0.371729
C343  C     C_3   0.429388 0.239921 0.396196 -0.868908
H237  H     H_    0.431357 0.227343 0.414291 0.266755
H238  H     H_    0.476632 0.275268 0.391743 0.262053
H239  H     H_    0.378201 0.270121 0.392632 0.254083
H240  H     H_    0.426311 0.183834 0.364647 0.220579
H241  H     H_    0.382396 0.135806 0.387011 0.243537
H242  H     H_    0.499491 0.112351 0.405179 0.207838
H243  H     H_    0.550761 0.159156 0.385135 0.205485
C344  C     C_3   0.408432 0.092260 0.615008 -0.393098
C345  C     C_3   0.442109 0.169154 0.615435 -0.352104
C346  C     C_3   0.393632 0.223936 0.603316 -0.876192
H244  H     H_    0.386062 0.207372 0.585652 0.267666
H245  H     H_    0.339437 0.227439 0.611568 0.261387
H246  H     H_    0.419706 0.278790 0.603730 0.255469
H247  H     H_    0.450233 0.188019 0.632856 0.224142
H248  H     H_    0.496478 0.167892 0.607192 0.254943
H249  H     H_    0.404009 0.075263 0.597362 0.210279
H250  H     H_    0.351046 0.093213 0.620881 0.207827
C347  C     C_3   0.909247 0.587810 0.386003 -0.388108
C348  C     C_3   0.831681 0.555462 0.385848 -0.356357
C349  C     C_3   0.778128 0.605216 0.397989 -0.876978
H251  H     H_    0.795472 0.613147 0.415569 0.267910
H252  H     H_    0.775200 0.659148 0.389564 0.261023
H253  H     H_    0.722837 0.580030 0.397846 0.255465
H254  H     H_    0.811897 0.546851 0.368550 0.223249
H255  H     H_    0.832354 0.501362 0.394256 0.253114
H256  H     H_    0.926814 0.590544 0.403619 0.209334
H257  H     H_    0.910082 0.645798 0.380635 0.203632
C350  C     C_3   0.875509 0.498175 0.612579 -0.381451
C351  C     C_3   0.831467 0.568138 0.616820 -0.371034
C352  C     C_3   0.761244 0.568938 0.603101 -0.868858
H258  H     H_    0.774038 0.566042 0.585032 0.266730
H259  H     H_    0.725834 0.521942 0.607740 0.262048
H260  H     H_    0.730997 0.620294 0.606387 0.254140
H261  H     H_    0.817002 0.573641 0.634695 0.220538
H262  H     H_    0.865296 0.616362 0.612170 0.244012
H263  H     H_    0.889065 0.498358 0.594615 0.207978
H264  H     H_    0.841892 0.448161 0.614815 0.205273
C353  C     C_3   0.970429 0.363020 0.882276 -0.385299
C354  C     C_3   0.033498 0.312731 0.875462 -0.363941
C355  C     C_3   0.026981 0.238074 0.886594 -0.866955
H265  H     H_    0.028171 0.243973 0.905014 0.265676
H266  H     H_    0.975219 0.210827 0.881537 0.262315
H267  H     H_    0.073511 0.203199 0.881425 0.253630
H268  H     H_    0.034174 0.304951 0.857107 0.225693
H269  H     H_    0.086297 0.338225 0.880449 0.243568
H270  H     H_    0.972354 0.368417 0.900645 0.210437
H271  H     H_    0.917190 0.336679 0.878530 0.212948
C356  C     C_3   0.089975 0.393148 0.117320 -0.390597
C357  C     C_3   0.052878 0.318544 0.120447 -0.355324
C358  C     C_3   0.096414 0.257881 0.109220 -0.872055
H272  H     H_    0.101332 0.268529 0.091061 0.266802
H273  H     H_    0.151878 0.254207 0.116660 0.262086
H274  H     H_    0.067994 0.204777 0.111633 0.253929
H275  H     H_    0.047180 0.305501 0.138434 0.225410
H276  H     H_    0.997191 0.320118 0.113040 0.251461
H277  H     H_    0.092944 0.403753 0.099197 0.210707
H278  H     H_    0.147792 0.391164 0.122770 0.207976
C359  C     C_3   0.604499 0.924346 0.885359 -0.383763
C360  C     C_3   0.679754 0.960012 0.881866 -0.362823
C361  C     C_3   0.739309 0.918471 0.894292 -0.872500
H279  H     H_    0.727494 0.917466 0.912443 0.266936
H280  H     H_    0.742909 0.861549 0.887974 0.261248
H281  H     H_    0.792832 0.945882 0.891650 0.253882
H282  H     H_    0.694254 0.962090 0.863924 0.223713
H283  H     H_    0.678228 0.017140 0.888155 0.247976
H284  H     H_    0.593252 0.927312 0.903439 0.208169
H285  H     H_    0.605220 0.864882 0.881788 0.204270
C362  C     C_3   0.630567 0.035941 0.116407 -0.386265
C363  C     C_3   0.683336 0.973478 0.121836 -0.363148
C364  C     C_3   0.756364 0.983611 0.109960 -0.865999
H286  H     H_    0.748187 0.984742 0.091620 0.265527
H287  H     H_    0.782834 0.035383 0.115366 0.262617
H288  H     H_    0.793105 0.937455 0.114129 0.253583
H289  H     H_    0.693418 0.970525 0.140065 0.225190
H290  H     H_    0.658636 0.920724 0.116463 0.244799
H291  H     H_    0.622737 0.036198 0.098113 0.210309
H292  H     H_    0.656028 0.089394 0.120404 0.213116
C365  C     C_3   0.031093 0.635259 0.882742 -0.384794
C366  C     C_3   0.968046 0.686085 0.876291 -0.364307
C367  C     C_3   0.975446 0.760357 0.887642 -0.866649
H293  H     H_    0.974972 0.753895 0.906045 0.265471
H294  H     H_    0.027154 0.787468 0.882500 0.262681
H295  H     H_    0.928917 0.795651 0.882743 0.253227
H296  H     H_    0.966666 0.694435 0.857966 0.225707
H297  H     H_    0.915312 0.660724 0.881370 0.243434
H298  H     H_    0.029691 0.629187 0.901090 0.210454
H299  H     H_    0.084349 0.661502 0.878984 0.213450
C368  C     C_3   0.910185 0.604801 0.116943 -0.390741
C369  C     C_3   0.947342 0.679529 0.119750 -0.355178
C370  C     C_3   0.903821 0.739633 0.108248 -0.872587
H300  H     H_    0.898874 0.728069 0.090135 0.266576
H301  H     H_    0.848369 0.743704 0.115653 0.261874
H302  H     H_    0.932274 0.792838 0.110438 0.254134
H303  H     H_    0.953098 0.693482 0.137680 0.225324
H304  H     H_    0.003006 0.677542 0.112362 0.251519
H305  H     H_    0.907016 0.593346 0.098867 0.210919
H306  H     H_    0.852411 0.607023 0.122403 0.207577
C371  C     C_3   0.381190 0.088559 0.880902 -0.389368
C372  C     C_3   0.309339 0.047727 0.876324 -0.352905
C373  C     C_3   0.244387 0.087644 0.886526 -0.875365
H307  H     H_    0.251272 0.092517 0.904860 0.266939
H308  H     H_    0.239207 0.143056 0.879169 0.261366
H309  H     H_    0.193385 0.056582 0.883078 0.254394
H310  H     H_    0.300054 0.041964 0.858116 0.226017
H311  H     H_    0.312447 0.991985 0.883609 0.250821
H312  H     H_    0.388068 0.091521 0.899202 0.211001
H313  H     H_    0.377186 0.146288 0.875514 0.207602
C374  C     C_3   0.360361 0.967409 0.118368 -0.387171
C375  C     C_3   0.309150 0.029580 0.125289 -0.362017
C376  C     C_3   0.234073 0.021294 0.114486 -0.866319
H314  H     H_    0.239029 0.022202 0.096041 0.265465
H315  H     H_    0.208137 0.969117 0.119737 0.262668
H316  H     H_    0.198503 0.067197 0.119732 0.253613
H317  H     H_    0.302295 0.030496 0.143675 0.225851
H318  H     H_    0.333333 0.082746 0.120104 0.244827
H319  H     H_    0.364710 0.968809 0.099973 0.210456
H320  H     H_    0.335269 0.913793 0.122340 0.213502

loop_
_geom_bond_atom_site_label_1
_geom_bond_atom_site_label_2
_ccdc_geom_bond_type
C320  C321  S    
C196  C228  A    
C256  C338  S    
C341  C342  S    
C12   C256  A    
O50   Zn8   S    
O45   Zn3   S    
C117  O43   A    
C123  C198  A    
C77   C101  A    
C301  H139  S    
C46   H70   S    
C76   C79   A    
C143  C175  A    
C285  C286  S    
C79   C87   A    
C213  C219  A    
C49   C94   A    
C317  C318  S    
C130  C191  A    
O5    Zn12  S    
C65   C89   A    
C362  H292  S    
O33   Zn15  S    
C291  H122  S    
C332  H221  S    
C130  C162  A    
C181  H3    S    
C69   C93   A    
C142  H54   S    
C182  H4    S    
C337  H225  S    
O20   Zn1   S    
C21   C33   A    
C288  H115  S    
C324  H198  S    
C22   C38   A    
C129  C192  A    
C37   C245  A    
C327  C328  S    
C300  C301  S    
C244  N8    A    
C29   C237  A    
C199  C231  A    
C286  H105  S    
C246  N6    A    
C133  C188  A    
C281  H102  S    
C126  C195  A    
C11   N3    S    
C284  C285  S    
C315  C316  S    
C310  H161  S    
C12   N4    S    
C207  C210  A    
C139  C171  A    
C118  O44   A    
O3    Zn7   S    
C329  H215  S    
C135  C186  A    
C349  H253  S    
C101  H93   S    
C126  C158  A    
C336  H226  S    
C99   H91   S    
C167  H17   S    
C376  H314  S    
C289  H112  S    
C120  O42   A    
C150  C203  A    
C90   H82   S    
C144  C209  A    
C284  H109  S    
C191  C223  A    
C3    O7    A    
C242  N6    A    
C9    C253  A    
C138  C215  A    
O4    Zn8   S    
C18   C85   A    
C313  H168  S    
C23   C84   A    
C371  H313  S    
C263  C359  S    
O24   Zn9   S    
C371  H312  S    
C13   N5    S    
C307  H154  S    
C105  O47   A    
C120  C230  S    
C106  O48   A    
C175  C178  A    
C172  H14   S    
C20   C28   A    
C144  H56   S    
C281  C282  S    
C4    C61   S    
C28   C44   A    
C277  C305  S    
C29   C45   A    
C327  H205  S    
C240  O60   S    
C164  H22   S    
O18   Zn7   S    
C285  H108  S    
C8    C57   S    
C66   C82   A    
C239  O59   S    
C343  H237  S    
C57   C269  A    
C271  C287  S    
C343  H239  S    
C365  H298  S    
C339  C340  S    
O1    Zn16  S    
C338  H236  S    
C72   C84   A    
C148  C205  A    
C236  N4    A    
C147  H59   S    
C63   C275  A    
C309  C310  S    
C325  H196  S    
C303  H149  S    
C116  O32   A    
C274  C320  S    
C153  C168  A    
C354  H269  S    
C246  O66   S    
C186  C199  A    
C328  H204  S    
C76   C100  A    
C339  H233  S    
C341  H242  S    
C332  C333  S    
C251  C267  A    
C319  H182  S    
C293  H130  S    
C132  H44   S    
C366  C367  S    
C114  O30   A    
C357  H276  S    
C290  H124  S    
C108  O24   A    
O27   Zn14  S    
C177  H7    S    
C311  H172  S    
C146  C207  A    
C373  H308  S    
C289  H111  S    
C108  O46   A    
C337  H223  S    
C360  H283  S    
C254  C332  S    
C242  O62   S    
C195  C227  A    
C302  H152  S    
C6    O14   A    
C136  C168  A    
C58   C270  A    
O46   Zn4   S    
C102  H94   S    
C59   C267  A    
C4    O8    A    
C299  H144  S    
C234  N2    A    
C266  C296  S    
C359  C360  S    
C191  C194  A    
C17   C25   A    
C306  H156  S    
C80   C88   A    
C214  C220  A    
C328  H202  S    
C189  C196  A    
O6    Zn11  S    
O34   Zn16  S    
C366  H296  S    
C356  H278  S    
C68   C92   A    
C330  H212  S    
C148  H60   S    
O23   Zn10  S    
C51   H75   S    
C316  H174  S    
C70   C82   A    
C60   C272  A    
C15   C263  A    
C336  C337  S    
C119  C229  S    
C268  C302  S    
C193  C225  A    
C349  H251  S    
C72   C96   A    
C147  C179  A    
O15   Zn6   S    
C71   C95   A    
C321  C322  S    
C56   H80   S    
C364  H287  S    
C347  C348  S    
C157  H27   S    
C376  H316  S    
C119  O35   A    
C355  H266  S    
C158  H28   S    
C15   N7    S    
C250  C344  S    
C200  C232  A    
C104  H96   S    
C305  H159  S    
C340  H230  S    
C97   H89   S    
C43   H67   S    
C153  H31   S    
C115  O31   A    
C130  H42   S    
C368  H305  S    
C35   C243  A    
C110  O26   A    
C258  C274  A    
C40   C56   A    
C109  O51   A    
C33   C241  A    
C372  H310  S    
C110  O52   A    
C333  C334  S    
C358  H274  S    
C323  C324  S    
C347  H256  S    
C8    O16   A    
C139  H51   S    
C309  H164  S    
C186  C218  A    
C237  N1    A    
C24   C36   A    
C156  C165  A    
C146  H58   S    
C216  C218  A    
C115  C225  S    
C282  H100  S    
C190  C222  A    
C306  C307  S    
C16   C260  A    
C263  C279  A    
C139  C214  A    
C65   C70   A    
C211  C221  A    
C20   C87   A    
C366  H297  S    
O10   Zn15  S    
C291  C292  S    
C146  C178  A    
C371  C372  S    
C62   C274  A    
C269  C281  S    
C352  H259  S    
C13   C257  A    
C43   C104  A    
C267  C299  S    
O2    Zn11  S    
C255  C335  S    
C208  C226  A    
C107  C217  S    
C172  C181  A    
C54   H78   S    
C103  H95   S    
C325  H195  S    
C39   C55   A    
C74   C77   A    
C247  N7    A    
C113  O39   A    
C112  C222  S    
C114  O40   A    
O13   Zn4   S    
C36   C52   A    
C342  H241  S    
C37   C53   A    
C26   C234  A    
C295  H127  S    
C77   C85   A    
C95   H87   S    
C292  H118  S    
C346  H245  S    
C79   C103  A    
C142  C211  A    
C30   C238  A    
C161  H23   S    
C168  H18   S    
C44   C103  A    
C299  C300  S    
C71   C83   A    
C331  H210  S    
C312  H171  S    
C345  H247  S    
C22   C34   A    
C321  H192  S    
C370  H301  S    
O40   Zn1   S    
C187  C198  A    
C300  H142  S    
C152  C184  A    
C162  H24   S    
C128  C193  A    
C340  H232  S    
C235  O55   S    
C282  C283  S    
C357  C358  S    
C133  H45   S    
C10   N2    S    
C315  H177  S    
C233  O53   S    
C179  H5    S    
C143  H55   S    
C351  C352  S    
C10   C250  A    
C316  H176  S    
O3    Zn3   S    
C169  C184  A    
C304  H146  S    
C333  H220  S    
O25   Zn12  S    
C96   H88   S    
C253  C329  S    
C73   C85   A    
C320  H194  S    
C144  C176  A    
C75   C99   A    
C358  H272  S    
C275  C323  S    
C129  C161  A    
C367  H294  S    
C249  C341  S    
C322  H190  S    
C298  H133  S    
C157  C164  A    
C326  H207  S    
C363  H289  S    
C2    O6    A    
C190  C195  A    
C28   C236  A    
O41   Zn4   S    
C140  C213  A    
C287  H116  S    
C317  H187  S    
C123  H35   S    
C149  H61   S    
C314  H179  S    
C375  H318  S    
C295  H125  S    
C42   C101  A    
C55   H79   S    
C354  H268  S    
C338  H235  S    
C2    C63   S    
C26   C42   A    
C344  H249  S    
C20   C32   A    
C3    C62   S    
C75   C87   A    
C183  H1    S    
C12   C252  A    
C313  H169  S    
C280  C314  S    
C61   C277  A    
C6    C59   S    
C30   C46   A    
C158  C163  A    
O26   Zn11  S    
C163  H21   S    
C165  H19   S    
C319  H183  S    
C9    N1    S    
C368  C369  S    
C166  H20   S    
C197  C229  A    
C362  H291  S    
C44   H68   S    
C276  C326  S    
C117  O33   A    
C334  H218  S    
C292  H119  S    
C322  H188  S    
O1    Zn5   S    
C329  C330  S    
C361  H281  S    
C337  H224  S    
C63   C279  A    
C360  C361  S    
C248  O68   S    
C64   C280  A    
C324  H199  S    
O39   Zn2   S    
C288  H114  S    
C140  H52   S    
O44   Zn5   S    
O32   Zn10  S    
C2    O10   A    
C272  C290  S    
C296  H138  S    
C201  C231  A    
O7    Zn14  S    
C261  C277  A    
C21   C82   A    
C310  H160  S    
C292  H120  S    
C302  C303  S    
C135  C167  A    
C261  C353  S    
C107  O45   A    
C257  C365  S    
O2    Zn2   S    
O3    Zn10  S    
C239  N3    A    
O1    Zn1   S    
C127  C194  A    
C154  H32   S    
C308  H166  S    
C349  H252  S    
C248  N8    A    
C297  H135  S    
C255  C271  A    
O31   Zn9   S    
C350  H264  S    
C78   C102  A    
C17   C29   A    
O14   Zn3   S    
C5    O13   A    
C367  H293  S    
C18   C26   A    
C19   C31   A    
O12   Zn9   S    
O35   Zn13  S    
C66   C90   A    
C123  C155  A    
C67   C83   A    
C374  H319  S    
C262  C356  S    
C121  C153  A    
C80   C104  A    
C335  H228  S    
C303  C304  S    
C70   C94   A    
C24   C83   A    
C304  H148  S    
C45   C98   A    
C293  C294  S    
C136  C185  A    
C125  C157  A    
C138  C170  A    
C33   C49   A    
C38   C246  A    
C286  H106  S    
C52   C95   A    
C327  H206  S    
C279  C311  S    
C118  O34   A    
C125  H37   S    
C171  C182  A    
C237  O57   S    
C245  N5    A    
C318  H184  S    
C252  C268  A    
C56   C91   A    
C127  H39   S    
O36   Zn14  S    
C208  C209  A    
C128  H40   S    
C11   C255  A    
C343  H238  S    
C259  C275  A    
C202  C215  A    
C307  H155  S    
C105  O21   A    
C363  C364  S    
C348  H254  S    
O2    Zn6   S    
C235  N3    A    
C359  H285  S    
C108  C218  S    
C296  H137  S    
C303  H150  S    
C355  H265  S    
C148  C180  A    
C286  H104  S    
C31   C47   A    
C149  C181  A    
C32   C48   A    
C353  H271  S    
C339  H234  S    
C60   C268  A    
C129  H41   S    
O42   Zn3   S    
C348  C349  S    
C143  C210  A    
C188  C220  A    
C5    O17   A    
C374  H320  S    
C178  H8    S    
C122  H34   S    
C291  H121  S    
O9    Zn16  S    
C356  C357  S    
C68   C84   A    
C22   C81   A    
C270  C284  S    
C360  H282  S    
C241  N5    A    
C332  H222  S    
C192  C224  A    
C74   C98   A    
C19   C88   A    
C14   C258  A    
C361  H279  S    
C111  O49   A    
O1    Zn12  S    
C47   H71   S    
C212  C222  A    
C4    O12   A    
C205  C212  A    
C302  H151  S    
C312  C313  S    
C105  C223  S    
C111  O27   A    
C64   C276  A    
C347  H257  S    
C314  C315  S    
C36   C244  A    
C147  C206  A    
C73   C97   A    
C283  H97   S    
C132  C164  A    
C121  C200  A    
C306  H157  S    
C364  H286  S    
C109  C219  S    
O11   Zn10  S    
C133  C165  A    
C16   N8    S    
C281  H103  S    
C335  H229  S    
C65   C81   A    
C362  C363  S    
C38   C54   A    
C131  C163  A    
C310  H162  S    
C45   H69   S    
O3    Zn14  S    
C67   C91   A    
C41   C102  A    
C159  C162  A    
C330  H213  S    
C260  C374  S    
C151  C183  A    
C149  C204  A    
C250  C266  A    
C159  H25   S    
C39   C247  A    
C323  H201  S    
C345  C346  S    
C46   C97   A    
C353  H270  S    
C23   C35   A    
C376  H315  S    
C137  C216  A    
C112  O28   A    
C342  C343  S    
C6    O18   A    
C113  C231  S    
C141  H53   S    
C136  H48   S    
C245  O65   S    
C151  C202  A    
C89   H81   S    
C344  C345  S    
C109  O25   A    
C284  H110  S    
C202  C232  A    
C131  C190  A    
C265  C293  S    
C48   C99   A    
C31   C239  A    
C290  H123  S    
C301  H140  S    
O28   Zn13  S    
C10   C254  A    
C257  C273  A    
C134  C187  A    
C92   H84   S    
C372  H311  S    
O4    Zn13  S    
O48   Zn2   S    
O52   Zn6   S    
C331  H209  S    
C115  O37   A    
C253  C269  A    
C173  C180  A    
C9    C249  A    
C118  C228  S    
C194  C226  A    
O43   Zn6   S    
C283  H98   S    
C278  C308  S    
C233  N1    A    
C350  C351  S    
C282  H101  S    
C285  H107  S    
C192  C193  A    
C152  H64   S    
C116  O38   A    
C188  C197  A    
C68   C71   A    
C1    O5    A    
C124  C197  A    
C365  H299  S    
C205  C227  A    
C369  H304  S    
C5    C60   S    
C180  H6    S    
C352  H258  S    
C50   H74   S    
C215  C217  A    
C69   C81   A    
C201  C216  A    
O16   Zn5   S    
C66   C69   A    
C91   H83   S    
C325  H197  S    
C21   C37   A    
C375  C376  S    
C324  C325  S    
C53   C90   A    
C134  H46   S    
C61   C273  A    
O19   Zn2   S    
C259  C371  S    
C121  H33   S    
C132  C189  A    
C52   H76   S    
C131  H43   S    
C42   H66   S    
C293  H131  S    
C252  C350  S    
C258  C368  S    
C295  H126  S    
C357  H275  S    
C170  C183  A    
C34   C242  A    
C346  H244  S    
C203  C214  A    
C338  C339  S    
O29   Zn11  S    
O21   Zn16  S    
C311  H173  S    
C373  H309  S    
C243  O63   S    
C273  C317  S    
C244  O64   S    
C296  C297  S    
C142  C174  A    
C187  C219  A    
C238  N2    A    
C345  H248  S    
C256  C272  A    
C370  H300  S    
C305  C306  S    
C369  H303  S    
C185  C217  A    
C323  H200  S    
C119  O41   A    
C300  H143  S    
C299  H145  S    
O37   Zn8   S    
C67   C72   A    
C364  H288  S    
C145  H57   S    
C340  H231  S    
C114  C232  S    
C189  C221  A    
C150  H62   S    
C3    O11   A    
C236  O56   S    
C155  C166  A    
C315  H178  S    
C290  C291  S    
C262  C278  A    
O4    Zn4   S    
C1    O9    A    
C112  O50   A    
C111  C221  S    
C124  H36   S    
O47   Zn1   S    
C305  H158  S    
C48   H72   S    
C24   C40   A    
C330  C331  S    
C206  C211  A    
C207  C225  A    
C106  C224  S    
O51   Zn5   S    
C297  C298  S    
C320  H193  S    
C375  H317  S    
C355  H267  S    
C73   C78   A    
O49   Zn7   S    
C354  C355  S    
C18   C30   A    
C294  H129  S    
C122  C199  A    
C322  H189  S    
C19   C27   A    
C298  H132  S    
C76   C88   A    
C7    C58   S    
C363  H290  S    
C14   N6    S    
C27   C235  A    
C51   C96   A    
C251  C347  S    
C368  H306  S    
C78   C86   A    
C173  H11   S    
C57   C265  A    
O4    Zn9   S    
C140  C172  A    
C174  H12   S    
C141  C173  A    
C122  C154  A    
O2    Zn15  S    
C169  H15   S    
C356  H277  S    
C110  C220  S    
C40   C248  A    
C170  H16   S    
C134  C166  A    
C240  N4    A    
C171  H13   S    
C135  H47   S    
C309  H163  S    
C34   C50   A    
C328  H203  S    
C120  O36   A    
C49   H73   S    
C301  H141  S    
C243  N7    A    
C289  H113  S    
C54   C89   A    
C14   C262  A    
C283  H99   S    
C307  H153  S    
C203  C229  A    
C116  C226  S    
C318  C319  S    
C238  O58   S    
C32   C240  A    
C125  C196  A    
C113  O29   A    
C27   C43   A    
C204  C213  A    
C254  C270  A    
C11   C251  A    
C47   C100  A    
C319  H181  S    
C93   H85   S    
C138  H50   S    
C260  C276  A    
C352  H260  S    
C41   H65   S    
C154  C167  A    
C294  C295  S    
C106  O22   A    
C361  H280  S    
C210  C224  A    
C241  O61   S    
C308  C309  S    
C100  H92   S    
C326  C327  S    
C155  H29   S    
C58   C266  A    
C7    O15   A    
C175  H9    S    
C59   C271  A    
C151  H63   S    
C74   C86   A    
C141  C212  A    
C137  H49   S    
C342  H240  S    
C176  C177  A    
C55   C92   A    
C351  H261  S    
C17   C86   A    
C124  C156  A    
C206  C228  A    
C126  H38   S    
C346  H246  S    
C176  H10   S    
C249  C265  A    
C373  H307  S    
C127  C159  A    
C15   C259  A    
C128  C160  A    
C308  H165  S    
C334  H216  S    
C75   C80   A    
C331  H211  S    
C312  H170  S    
C156  H30   S    
C321  H191  S    
C117  C227  S    
C370  H302  S    
C297  H136  S    
C350  H263  S    
C137  C169  A    
C369  C370  S    
C53   H77   S    
C150  C182  A    
C25   C233  A    
C341  H243  S    
O17   Zn8   S    
C374  C375  S    
C198  C230  A    
C50   C93   A    
C294  H128  S    
C298  H134  S    
C316  H175  S    
C335  C336  S    
C247  O67   S    
C287  C288  S    
O30   Zn12  S    
O22   Zn15  S    
C372  C373  S    
C304  H147  S    
C336  H227  S    
C333  H219  S    
C313  H167  S    
C35   C51   A    
C107  O23   A    
C160  H26   S    
C311  C312  S    
C8    O20   A    
C329  H214  S    
C351  H262  S    
C209  C223  A    
C174  C179  A    
C264  C280  A    
C264  C362  S    
C94   H86   S    
C367  H295  S    
C7    O19   A    
O38   Zn7   S    
C185  C200  A    
C204  C230  A    
C353  C354  S    
C152  C201  A    
C160  C161  A    
C326  H208  S    
C358  H273  S    
C98   H90   S    
C317  H186  S    
O8    Zn13  S    
C16   C264  A    
C318  H185  S    
C287  H117  S    
C184  H2    S    
C25   C41   A    
C288  C289  S    
C145  C177  A    
C234  O54   S    
C314  H180  S    
C62   C278  A    
C334  H217  S    
C365  C366  S    
C13   C261  A    
C1    C64   S    
C23   C39   A    
C145  C208  A    
C348  H255  S    
C359  H284  S    
C344  H250  S    
