data_mof_unit_16902.cif
_audit_creation_date              2012-12-10T16:50:08-0500
_audit_creation_method            fapswitch 2.2
_symmetry_space_group_name_H-M    P1
_symmetry_Int_Tables_number       1
_space_group_crystal_system       triclinic
_cell_length_a                    23.48915
_cell_length_b                    8.719525
_cell_length_c                    7.449608
_cell_angle_alpha                 103.170614
_cell_angle_beta                  94.657303
_cell_angle_gamma                 92.832897
_cell_volume                      1477.11470318

loop_
_atom_site_label
_atom_site_type_symbol
_atom_type_description
_atom_site_fract_x
_atom_site_fract_y
_atom_site_fract_z
_atom_type_partial_charge
C1    C     C_R   0.498216 0.199946 0.453357 0.774049
C2    C     C_R   0.501784 0.800054 0.546643 0.774035
C3    C     C_R   0.234778 0.557179 0.377958 -0.177634
C4    C     C_R   0.765218 0.442778 0.622022 -0.177622
C5    C     C_R   0.293900 0.559333 0.370496 0.386623
C6    C     C_R   0.706096 0.440616 0.629471 0.386583
C7    C     C_R   0.328587 0.507329 0.506407 -0.223533
C8    C     C_R   0.671412 0.492672 0.493595 -0.223494
C9    C     C_R   0.302803 0.457660 0.649435 -0.260725
C10   C     C_R   0.697199 0.542405 0.350614 -0.260736
C11   C     C_R   0.243629 0.456098 0.655457 0.720712
C12   C     C_R   0.756374 0.543980 0.344608 0.720698
C13   C     C_R   0.209567 0.505062 0.518905 0.124498
C14   C     C_R   0.790433 0.494959 0.481125 0.124508
C15   C     C_2   0.497121 0.032641 0.426928 0.331732
C16   C     C_2   0.502880 0.967359 0.573072 0.331743
C17   C     C_R   0.391045 0.503129 0.501974 0.838353
C18   C     C_R   0.608954 0.496870 0.498026 0.838359
C19   C     C_R   0.883014 0.638955 0.544912 0.667170
C20   C     C_R   0.116987 0.361068 0.455127 0.667135
C21   C     C_R   0.876271 0.360335 0.419304 0.632975
C22   C     C_R   0.123730 0.639688 0.580736 0.633011
C23   C     C_R   0.935912 0.358651 0.426237 -0.079571
C24   C     C_R   0.064089 0.641372 0.573806 -0.079578
C25   C     C_R   0.969824 0.500919 0.495448 -0.058901
C26   C     C_R   0.030177 0.499103 0.504595 -0.058901
C27   C     C_R   0.943477 0.644484 0.555663 -0.118700
C28   C     C_R   0.056523 0.355538 0.444380 -0.118691
C29   C     C_R   0.961961 0.217282 0.366564 -0.097432
C30   C     C_R   0.038040 0.782740 0.633479 -0.097433
C31   C     C_R   0.021327 0.213845 0.374694 0.415105
C32   C     C_R   0.978674 0.786177 0.625350 0.415108
Cu1   Cu    Cu3+1 0.506340 0.517380 0.684380 1.240123
Cu2   Cu    Cu3+1 0.493660 0.482620 0.315620 1.240123
H1    H     H_    0.936083 0.107448 0.313091 0.236289
H2    H     H_    0.063918 0.892575 0.686953 0.236284
H3    H     H_    0.208072 0.596344 0.273879 0.222902
H4    H     H_    0.791921 0.403569 0.726073 0.222886
H5    H     H_    0.328410 0.417724 0.755301 0.250427
H6    H     H_    0.671595 0.582383 0.244778 0.250393
N1    N     N_R   0.851347 0.498584 0.478791 -0.453321
N2    N     N_R   0.148654 0.501439 0.521247 -0.453317
N3    N     N_2   0.484110 0.456420 0.038520 0.270806
N4    N     N_2   0.515890 0.543580 0.961480 0.270804
O1    O     O_R   0.504120 0.286130 0.619770 -0.526722
O2    O     O_R   0.495880 0.713870 0.380230 -0.526729
O3    O     O_R   0.493410 0.256770 0.308360 -0.519435
O4    O     O_R   0.506590 0.743230 0.691640 -0.519435
O5    O     O_R   0.423230 0.514630 0.655730 -0.559205
O6    O     O_R   0.576770 0.485370 0.344270 -0.559196
O7    O     O_R   0.412530 0.485280 0.344320 -0.530984
O8    O     O_R   0.587470 0.514720 0.655680 -0.530990
O9    O     O_2   0.855589 0.771076 0.601278 -0.410710
O10   O     O_2   0.144411 0.228948 0.398761 -0.410730
O11   O     O_2   0.843216 0.224746 0.354219 -0.458185
O12   O     O_2   0.156785 0.775276 0.645817 -0.458187
Cl1   Cl    Cl    0.047522 0.026592 0.293675 -0.487214
Cl2   Cl    Cl    0.952478 0.973429 0.706371 -0.487213
Cl3   Cl    Cl    0.321910 0.634873 0.192910 -0.477712
Cl4   Cl    Cl    0.678079 0.365000 0.806994 -0.477716
F1    F     F_    0.219376 0.406617 0.793511 -0.598654
F2    F     F_    0.780631 0.593528 0.206607 -0.598649
F3    F     F_    0.489953 0.945165 0.248885 -0.572368
F4    F     F_    0.510048 0.054835 0.751115 -0.572360
F5    F     F_    0.443711 0.360118 0.925683 -0.500723
F6    F     F_    0.556289 0.639882 0.074317 -0.500727

loop_
_geom_bond_atom_site_label_1
_geom_bond_atom_site_label_2
_ccdc_geom_bond_type
C20   N2    A    
N3    N4    D    
C28   C31   A    
Cu1   O1    S    
Cu2   O2    S    
C32   Cl2   S    
C17   O7    A    
C25   C27   A    
C2    C16   S    
C29   H1    S    
N4    F6    S    
C22   O12   S    
C3    C13   A    
C30   H2    S    
N3    F5    S    
C7    C9    A    
C19   O9    S    
C23   C25   A    
Cu1   Cu2   S    
C27   C32   A    
C3    C5    A    
C18   O8    A    
C29   C31   A    
C2    O2    A    
Cu1   O8    S    
C30   C32   A    
C9    C11   A    
C24   C26   A    
C1    O1    A    
Cu2   O7    S    
C22   N2    A    
C10   C12   A    
C14   N1    S    
C1    C15   S    
C21   O11   S    
C23   C29   A    
C8    C10   A    
C13   N2    S    
C12   C14   A    
C22   C24   A    
C21   C23   A    
C4    C14   A    
C16   F4    S    
C21   N1    A    
Cu2   O6    S    
C24   C30   A    
C31   Cl1   S    
C5    Cl3   S    
Cu1   O5    S    
C15   C16   D    
C6    Cl4   S    
C11   C13   A    
C12   F2    S    
C18   O6    A    
C20   O10   S    
C4    C6    A    
C17   O5    A    
C5    C7    A    
Cu1   O4    S    
C15   F3    S    
C1    O3    A    
C10   H6    S    
C6    C8    A    
Cu2   O3    S    
C20   C28   A    
C2    O4    A    
C25   C26   A    
Cu1   N4    S    
C26   C28   A    
C9    H5    S    
C8    C18   S    
Cu2   N3    S    
C19   N1    A    
C3    H3    S    
C4    H4    S    
C19   C27   A    
C11   F1    S    
C7    C17   S    
