data_mof_unit_57488.cif
_audit_creation_date              2012-12-10T20:27:15-0500
_audit_creation_method            fapswitch 2.2
_symmetry_space_group_name_H-M    P1
_symmetry_Int_Tables_number       1
_space_group_crystal_system       triclinic
_cell_length_a                    10.830458
_cell_length_b                    10.707442
_cell_length_c                    9.992337
_cell_angle_alpha                 88.321748
_cell_angle_beta                  103.71381
_cell_angle_gamma                 92.22467
_cell_volume                      1124.65271658

loop_
_atom_site_label
_atom_site_type_symbol
_atom_type_description
_atom_site_fract_x
_atom_site_fract_y
_atom_site_fract_z
_atom_type_partial_charge
C1    C     C_R   0.499917 0.260233 0.502054 0.895811
C2    C     C_R   0.582510 0.575986 0.090386 0.191613
C3    C     C_R   0.584001 0.574544 0.947248 0.178148
C4    C     C_R   0.259434 0.503381 0.441833 0.867363
C5    C     C_R   0.403134 0.441679 0.906262 0.067487
C6    C     C_3   0.361103 0.308825 0.885874 -0.114159
C7    C     C_3   0.391632 0.293515 0.042295 0.219961
C8    C     C_R   0.499134 0.739108 0.497898 0.877404
C9    C     C_R   0.739968 0.499665 0.557666 0.955349
C10   C     C_2   0.121914 0.502089 0.407954 0.050734
C11   C     C_2   0.066243 0.505368 0.513413 -0.252861
C12   C     C_R   0.500577 0.127389 0.505194 -0.094071
C13   C     C_2   0.875628 0.513009 0.588580 -0.355213
C14   C     C_2   0.937879 0.460967 0.506010 0.272392
C15   C     C_R   0.410175 0.057183 0.556500 0.138993
C16   C     C_R   0.580156 0.068913 0.436848 -0.146219
C17   C     C_R   0.575617 0.940460 0.428313 -0.159947
C18   C     C_R   0.492735 0.870502 0.490764 -0.083511
C19   C     C_R   0.406174 0.928898 0.548602 0.115874
C20   C     C_3   0.381872 0.908150 0.688090 -0.440114
C21   C     C_3   0.391404 0.048205 0.700101 -0.467932
C22   C     C_R   0.410490 0.432781 0.049288 0.098701
H1    H     H_    0.424910 0.260757 0.835179 0.169154
H2    H     H_    0.120547 0.532308 0.615174 0.183839
H3    H     H_    0.920756 0.583787 0.661882 0.158963
H4    H     H_    0.649278 0.122142 0.395309 0.205323
H5    H     H_    0.459768 0.860693 0.762378 0.242357
H6    H     H_    0.300457 0.087433 0.707814 0.243369
H7    H     H_    0.477829 0.078705 0.778029 0.228424
H8    H     H_    0.642680 0.896315 0.382089 0.192736
H9    H     H_    0.284721 0.868118 0.683437 0.214575
I1    I     I_    0.872142 0.289070 0.405348 -0.230158
I2    I     I_    0.713072 0.699231 0.221747 -0.236238
I3    I     I_    0.718916 0.693676 0.875355 -0.231300
I4    I     I_    0.163403 0.293141 0.782311 -0.295032
I5    I     I_    0.248797 0.218418 0.142640 -0.178056
I6    I     I_    0.565948 0.195793 0.105380 -0.294625
I7    I     I_    0.021930 0.500927 0.196236 -0.167226
N1    N     N_R   0.499160 0.499140 0.142600 -0.140090
N2    N     N_R   0.499160 0.499180 0.856960 -0.146037
O1    O     O_R   0.500020 0.316790 0.614700 -0.621220
O2    O     O_R   0.500000 0.316760 0.385350 -0.583065
O3    O     O_R   0.317820 0.500020 0.571850 -0.617026
O4    O     O_R   0.317800 0.499980 0.342510 -0.579724
O5    O     O_R   0.500000 0.683240 0.614650 -0.612491
O6    O     O_R   0.499980 0.683210 0.385300 -0.602402
O7    O     O_R   0.682200 0.500020 0.657490 -0.579595
O8    O     O_R   0.682180 0.499980 0.428150 -0.575102
Zn1   Zn    Zn3+2 0.500010 0.500020 0.653140 0.997300
Zn2   Zn    Zn3+2 0.499990 0.499980 0.346860 1.037543

loop_
_geom_bond_atom_site_label_1
_geom_bond_atom_site_label_2
_ccdc_geom_bond_type
C6    C7    S    
C4    O3    A    
C7    C22   S    
C7    I5    S    
C11   H2    S    
C19   C20   S    
C12   C15   A    
O5    Zn1   S    
C10   I7    S    
O8    Zn2   S    
C2    C3    A    
C7    I6    S    
O7    Zn1   S    
C13   C14   D    
C20   C21   S    
C15   C19   A    
C17   H8    S    
C13   H3    S    
C1    C12   S    
O2    Zn2   S    
C22   N1    A    
C2    I2    S    
C1    O1    A    
C20   H5    S    
C21   H6    S    
C3    N2    A    
C9    O7    A    
C16   H4    S    
C5    C6    S    
C11   C14   S    
C8    O6    A    
C10   C11   D    
C6    H1    S    
C4    C10   S    
N2    Zn1   S    
C1    O2    A    
C15   C21   S    
N1    Zn2   S    
C9    C13   S    
C6    I4    S    
C9    O8    A    
C17   C18   A    
C18   C19   A    
C5    N2    A    
O1    Zn1   S    
O6    Zn2   S    
C8    O5    A    
O3    Zn1   S    
O4    Zn2   S    
C4    O4    A    
C3    I3    S    
C21   H7    S    
C2    N1    A    
C8    C18   S    
C5    C22   A    
C12   C16   A    
C14   I1    S    
C16   C17   A    
C20   H9    S    
