data_mof_unit_34200.cif
_audit_creation_date              2012-10-26T19:36:25-0400
_audit_creation_method            fapswitch 2.2
_symmetry_space_group_name_H-M    P1
_symmetry_Int_Tables_number       1
_space_group_crystal_system       triclinic
_cell_length_a                    10.904751
_cell_length_b                    15.992689
_cell_length_c                    14.740695
_cell_angle_alpha                 89.937536
_cell_angle_beta                  91.085779
_cell_angle_gamma                 90.122246
_cell_volume                      2570.25369017

loop_
_atom_site_label
_atom_site_type_symbol
_atom_type_description
_atom_site_fract_x
_atom_site_fract_y
_atom_site_fract_z
_atom_type_partial_charge
C1    C     C_R   0.499748 0.340839 0.499982 0.554533
C2    C     C_R   0.497426 0.087223 0.498014 0.045188
C3    C     C_R   0.589333 0.955723 0.455742 -0.167780
C4    C     C_R   0.403087 0.044179 0.541192 -0.159982
C5    C     C_1   0.496548 0.823151 0.499650 0.007333
C6    C     C_1   0.497893 0.176771 0.499060 0.016649
C7    C     C_1   0.498729 0.251786 0.499767 0.002942
C8    C     C_1   0.497999 0.748161 0.499886 -0.011962
C9    C     C_R   0.498344 0.575442 0.951394 0.253474
C10   C     C_R   0.511199 0.423608 0.048227 0.246544
C11   C     C_R   0.502039 0.499583 0.902905 -0.037403
C12   C     C_R   0.499538 0.659148 0.499976 0.549859
C13   C     C_R   0.506740 0.499375 0.097192 -0.038128
C14   C     C_R   0.510190 0.424252 0.952117 -0.156201
C15   C     C_R   0.500162 0.574601 0.047842 -0.173057
C16   C     C_R   0.261644 0.501790 0.499060 0.551490
C17   C     C_R   0.738460 0.500550 0.501127 0.550067
C18   C     C_1   0.500506 0.499427 0.802732 0.185706
C19   C     C_1   0.503083 0.499947 0.197316 0.151846
C20   C     C_R   0.195392 0.653098 0.231428 0.284655
C21   C     C_R   0.803258 0.422879 0.807425 0.283161
C22   C     C_R   0.157883 0.628272 0.318184 0.281980
C23   C     C_R   0.872132 0.501937 0.503183 -0.003910
C24   C     C_R   0.844087 0.419238 0.717827 0.300738
C25   C     C_R   0.111741 0.546051 0.330707 -0.040809
C26   C     C_R   0.888540 0.492997 0.676206 -0.042810
C27   C     C_R   0.101912 0.491810 0.256219 -0.104777
C28   C     C_R   0.889895 0.568665 0.724375 -0.147972
C29   C     C_R   0.135249 0.516847 0.169209 0.229454
C30   C     C_R   0.846165 0.573097 0.814004 0.235650
C31   C     C_R   0.179899 0.599167 0.157188 -0.132658
C32   C     C_R   0.801625 0.499859 0.853425 -0.121662
C33   C     C_R   0.931473 0.514760 0.421000 -0.141406
C34   C     C_R   0.128092 0.503593 0.497798 -0.006723
C35   C     C_R   0.068779 0.491513 0.580170 -0.151659
C36   C     C_3   0.570737 0.709406 0.924046 0.026148
C37   C     C_3   0.510970 0.786986 0.964341 -0.276035
C38   C     C_3   0.605719 0.855026 0.984984 -0.488492
C39   C     C_3   0.402964 0.315723 0.106801 0.003418
C40   C     C_3   0.411900 0.238893 0.168183 -0.242240
C41   C     C_3   0.285452 0.201612 0.185289 -0.479117
C42   C     C_3   0.358655 0.740913 0.244419 0.039813
C43   C     C_3   0.404468 0.829410 0.225114 -0.259346
C44   C     C_3   0.543161 0.835906 0.239236 -0.487065
C45   C     C_R   0.941963 0.493251 0.584491 -0.041707
C46   C     C_3   0.826823 0.326698 0.923414 0.011558
C47   C     C_3   0.946046 0.283587 0.895627 -0.258321
C48   C     C_3   0.016921 0.250352 0.978316 -0.493813
C49   C     C_3   0.182065 0.470411 0.021566 -0.010542
C50   C     C_3   0.107388 0.510401 0.944394 -0.253782
C51   C     C_3   0.182426 0.518417 0.858594 -0.475445
C52   C     C_3   0.877813 0.720048 0.825849 -0.000046
C53   C     C_3   0.016712 0.735801 0.826811 -0.265674
C54   C     C_3   0.047718 0.818040 0.779927 -0.465608
C55   C     C_R   0.058397 0.518825 0.417696 -0.039523
C56   C     C_R   0.401158 0.956320 0.542051 0.258029
C57   C     C_R   0.591058 0.043530 0.454624 0.252695
C58   C     C_R   0.495237 0.912666 0.499131 0.044252
Cu1   Cu    Cu3+1 0.500040 0.500000 0.589220 1.026301
Cu2   Cu    Cu3+1 0.499960 0.500000 0.410780 0.987916
H1    H     H_    0.200439 0.623371 0.090653 0.123021
H2    H     H_    0.514843 0.365439 0.915996 0.160547
H3    H     H_    0.613959 0.727471 0.859294 0.170103
H4    H     H_    0.646117 0.686783 0.970159 0.156677
H5    H     H_    0.440986 0.811860 0.915642 0.183457
H6    H     H_    0.464088 0.769786 0.027841 0.162064
H7    H     H_    0.676806 0.831522 0.033520 0.151672
H8    H     H_    0.559789 0.909732 0.015729 0.153483
H9    H     H_    0.650427 0.875445 0.921571 0.148388
H10   H     H_    0.361351 0.296757 0.040316 0.120025
H11   H     H_    0.342535 0.362354 0.140028 0.149682
H12   H     H_    0.766487 0.502943 0.921526 0.138578
H13   H     H_    0.470310 0.190903 0.135885 0.175237
H14   H     H_    0.455254 0.256869 0.234234 0.196801
H15   H     H_    0.226256 0.248167 0.219111 0.160515
H16   H     H_    0.294985 0.146009 0.230034 0.156441
H17   H     H_    0.241048 0.181985 0.120260 0.147347
H18   H     H_    0.415714 0.695395 0.207144 0.105547
H19   H     H_    0.369726 0.729022 0.318476 0.195987
H20   H     H_    0.380643 0.847039 0.154031 0.170570
H21   H     H_    0.358656 0.874111 0.271126 0.185642
H22   H     H_    0.569646 0.816957 0.309317 0.153232
H23   H     H_    0.063394 0.429879 0.265330 0.145717
H24   H     H_    0.573178 0.901436 0.228048 0.154317
H25   H     H_    0.590689 0.794802 0.190502 0.149264
H26   H     H_    0.771246 0.281170 0.962179 0.176403
H27   H     H_    0.846774 0.379282 0.970815 0.128739
H28   H     H_    0.923985 0.230768 0.849134 0.202676
H29   H     H_    0.005257 0.328606 0.859160 0.157357
H30   H     H_    0.038088 0.301837 0.026617 0.186925
H31   H     H_    0.104510 0.222168 0.956466 0.139431
H32   H     H_    0.962378 0.201708 0.013297 0.155706
H33   H     H_    0.128681 0.664516 0.442980 0.324639
H34   H     H_    0.928239 0.622579 0.690902 0.115408
H35   H     H_    0.869364 0.348327 0.611775 0.323421
H36   H     H_    0.208945 0.406844 0.999414 0.132968
H37   H     H_    0.269320 0.504225 0.034343 0.126607
H38   H     H_    0.026452 0.470399 0.929657 0.169583
H39   H     H_    0.074550 0.573175 0.964855 0.192031
H40   H     H_    0.255920 0.565662 0.868771 0.192046
H41   H     H_    0.122539 0.539093 0.801443 0.144191
H42   H     H_    0.223406 0.457319 0.840309 0.142717
H43   H     H_    0.835434 0.770821 0.865866 0.140608
H44   H     H_    0.834866 0.725481 0.757044 0.124900
H45   H     H_    0.878741 0.525523 0.358958 0.149228
H46   H     H_    0.051141 0.738019 0.898243 0.175732
H47   H     H_    0.065093 0.684392 0.792188 0.164801
H48   H     H_    0.016442 0.816363 0.707784 0.162963
H49   H     H_    0.148556 0.827965 0.782300 0.171904
H50   H     H_    0.003030 0.871155 0.814701 0.144817
H51   H     H_    0.251035 0.952238 0.611114 0.318155
H52   H     H_    0.740671 0.047509 0.384984 0.322219
H53   H     H_    0.121294 0.482549 0.642603 0.138108
H54   H     H_    0.331457 0.079011 0.574288 0.101195
H55   H     H_    0.661427 0.920957 0.423136 0.098036
H56   H     H_    0.493957 0.632866 0.084150 0.103832
N1    N     N_1   0.500040 0.499980 0.276710 -0.201377
N2    N     N_1   0.499960 0.500020 0.723290 -0.185281
O1    O     O_R   0.500060 0.380310 0.575320 -0.479095
O2    O     O_3   0.521718 0.348516 0.094131 -0.560486
O3    O     O_3   0.234457 0.734165 0.216476 -0.543306
O4    O     O_3   0.755855 0.351060 0.846357 -0.539202
O5    O     O_3   0.162930 0.687425 0.386597 -0.677499
O6    O     O_3   0.840368 0.342552 0.674620 -0.658560
O7    O     O_3   0.108519 0.461005 0.098935 -0.583979
O8    O     O_3   0.850013 0.643807 0.869701 -0.589922
O9    O     O_3   0.309376 0.912142 0.584332 -0.685716
O10   O     O_3   0.682764 0.087648 0.412198 -0.688087
O11   O     O_R   0.499940 0.619690 0.424680 -0.515201
O12   O     O_R   0.500000 0.380310 0.424640 -0.489499
O13   O     O_R   0.500000 0.619690 0.575360 -0.480815
O14   O     O_R   0.319670 0.500010 0.575340 -0.510510
O15   O     O_R   0.680330 0.499990 0.424660 -0.501698
O16   O     O_R   0.319610 0.500010 0.424650 -0.495528
O17   O     O_R   0.680390 0.499990 0.575350 -0.486463
O18   O     O_3   0.479378 0.649047 0.903331 -0.575179

loop_
_geom_bond_atom_site_label_1
_geom_bond_atom_site_label_2
_ccdc_geom_bond_type
H35   O6    S    
C33   C55   A    
C30   C32   A    
C30   O8    S    
C11   C18   S    
C23   C45   A    
C12   O13   A    
C29   O7    S    
C27   C29   A    
C31   H1    S    
C16   O16   A    
C57   O10   S    
C2    C57   A    
C22   O5    S    
C52   H43   S    
C53   C54   S    
C51   H42   S    
Cu1   O13   S    
C50   H39   S    
C17   C23   S    
C5    C58   S    
C4    H54   S    
C36   C37   S    
C24   C26   A    
C44   H22   S    
C41   H17   S    
C11   C14   A    
C39   O2    S    
C14   H2    S    
C24   O6    S    
C40   H13   S    
C54   H50   S    
C28   H34   S    
C34   C35   A    
C1    O1    A    
C56   O9    S    
C21   O4    S    
C26   C45   S    
C16   C34   S    
C53   H46   S    
C40   H14   S    
C23   C33   A    
C48   H31   S    
C37   H5    S    
C17   O17   A    
C36   H3    S    
C18   N2    T    
C38   H9    S    
C34   C55   A    
C48   H30   S    
C4    C56   A    
C47   H29   S    
C2    C6    S    
C36   O18   S    
C21   C32   A    
Cu1   O14   S    
C50   H38   S    
C12   O11   A    
C13   C19   S    
H33   O5    S    
C33   H45   S    
C32   H12   S    
C1    O12   A    
C10   C14   A    
Cu2   O12   S    
C39   C40   S    
C52   O8    S    
C43   H20   S    
C22   C25   A    
C54   H49   S    
C2    C4    A    
C43   C44   S    
C9    O18   S    
Cu1   Cu2   S    
C37   C38   S    
C41   H15   S    
C53   H47   S    
C47   C48   S    
C8    C12   S    
C37   H6    S    
C50   C51   S    
Cu2   N1    S    
C9    C11   A    
C20   O3    S    
C3    C57   A    
C40   C41   S    
C20   C22   A    
C42   H18   S    
Cu1   N2    S    
C13   C15   A    
C17   O15   A    
C43   H21   S    
C51   H41   S    
C42   C43   S    
C44   H25   S    
C35   C45   A    
Cu2   O16   S    
C52   C53   S    
C46   H27   S    
C51   H40   S    
C46   C47   S    
C52   H44   S    
Cu1   O1    S    
C1    C7    S    
C25   C55   S    
C38   H8    S    
C44   H24   S    
C10   C13   A    
Cu2   O11   S    
C5    C8    T    
C6    C7    T    
C25   C27   A    
C49   O7    S    
C26   C28   A    
C54   H48   S    
C47   H28   S    
C27   H23   S    
C9    C15   A    
C28   C30   A    
C29   C31   A    
C3    H55   S    
C41   H16   S    
H51   O9    S    
Cu1   O17   S    
C39   H10   S    
C56   C58   A    
C35   H53   S    
C49   H36   S    
C16   O14   A    
H52   O10   S    
C10   O2    S    
C49   H37   S    
C3    C58   A    
C42   H19   S    
C38   H7    S    
C19   N1    T    
C49   C50   S    
C48   H32   S    
C21   C24   A    
C39   H11   S    
C15   H56   S    
C46   O4    S    
C36   H4    S    
Cu2   O15   S    
C42   O3    S    
C46   H26   S    
C20   C31   A    
