data_mof_unit_68414.cif
_audit_creation_date              2012-12-11T14:37:51-0500
_audit_creation_method            fapswitch 2.2
_symmetry_space_group_name_H-M    P1
_symmetry_Int_Tables_number       1
_space_group_crystal_system       triclinic
_cell_length_a                    14.388575
_cell_length_b                    15.869681
_cell_length_c                    6.94975
_cell_angle_alpha                 90.096221
_cell_angle_beta                  80.766043
_cell_angle_gamma                 90.052626
_cell_volume                      1566.35356059

loop_
_atom_site_label
_atom_site_type_symbol
_atom_type_description
_atom_site_fract_x
_atom_site_fract_y
_atom_site_fract_z
_atom_type_partial_charge
O1    O     O_R   0.337080 0.165770 0.524980 -0.525098
O2    O     O_R   0.662920 0.834230 0.475020 -0.528597
O3    O     O_R   0.662920 0.665770 0.475020 -0.521595
O4    O     O_R   0.337080 0.334230 0.524980 -0.528924
O5    O     O_R   0.348340 0.341430 0.191390 -0.539427
O6    O     O_R   0.651660 0.658570 0.808610 -0.542059
O7    O     O_R   0.651660 0.841430 0.808610 -0.546467
O8    O     O_R   0.348340 0.158570 0.191390 -0.546507
O9    O     O_R   0.165780 0.339950 0.082750 -0.543085
O10   O     O_R   0.834220 0.660050 0.917250 -0.544832
O11   O     O_R   0.834220 0.839950 0.917250 -0.543343
O12   O     O_R   0.165780 0.160050 0.082750 -0.544054
C1    C     C_R   0.370368 0.364770 0.356128 0.585118
C2    C     C_R   0.629693 0.635139 0.643850 0.595840
C3    C     C_R   0.629443 0.864404 0.644167 0.623332
C4    C     C_R   0.370348 0.135191 0.355880 0.602588
O13   O     O_3   0.191540 0.250000 0.407620 -0.363048
O14   O     O_3   0.808460 0.750000 0.592380 -0.366652
V1    V     V_3+5 0.262540 0.250000 0.108780 1.389638
V2    V     V_3+5 0.737460 0.750000 0.891220 1.402775
O15   O     O_R   0.154530 0.164290 0.756910 -0.535718
O16   O     O_R   0.845470 0.835710 0.243090 -0.537472
O17   O     O_R   0.845470 0.664290 0.243090 -0.537197
O18   O     O_R   0.154530 0.335710 0.756910 -0.535828
C5    C     C_R   0.132156 0.133438 0.932044 0.688823
C6    C     C_R   0.867049 0.867184 0.068552 0.686629
C7    C     C_R   0.867825 0.633412 0.067809 0.684534
C8    C     C_R   0.132775 0.367053 0.931718 0.689981
H1    H     H_    0.416976 0.788596 0.444066 0.127914
H2    H     H_    0.386891 0.591471 0.499516 0.118892
H3    H     H_    0.593660 0.222190 0.447729 0.114903
H4    H     H_    0.707824 0.054150 0.328144 0.121035
V3    V     V_3+5 0.240320 0.250000 0.616280 1.390305
V4    V     V_3+5 0.759680 0.750000 0.383720 1.402765
O19   O     O_3   0.311330 0.250000 0.867310 -0.368685
O20   O     O_3   0.688670 0.750000 0.132690 -0.364861
C9    C     C_3   0.074130 0.517766 0.085995 0.203513
C10   C     C_3   0.927427 0.483421 0.911754 0.201564
C11   C     C_3   0.924742 0.018697 0.918455 0.193824
C12   C     C_3   0.073517 0.982770 0.084187 0.202845
C13   C     C_3   0.040860 0.573295 0.927642 -0.179241
C14   C     C_3   0.960479 0.427878 0.070348 -0.185774
C15   C     C_3   0.959985 0.073092 0.076884 -0.179844
C16   C     C_3   0.038501 0.928291 0.925640 -0.180573
C17   C     C_3   0.938527 0.562913 0.033520 -0.081186
C18   C     C_3   0.062833 0.438168 0.964765 -0.081287
C19   C     C_3   0.061427 0.062968 0.966285 -0.081534
C20   C     C_3   0.936923 0.938344 0.035770 -0.081432
C21   C     C_3   0.971873 0.508267 0.192956 -0.163373
C22   C     C_3   0.029712 0.492903 0.805192 -0.157463
C23   C     C_3   0.026175 0.009409 0.806980 -0.160474
C24   C     C_3   0.972081 0.991940 0.195384 -0.159930
C25   C     C_2   0.448431 0.646682 0.234356 0.149493
C26   C     C_2   0.345442 0.734814 0.702941 0.107659
C27   C     C_2   0.612460 0.057529 0.585732 0.047235
C28   C     C_2   0.682757 0.205226 0.181467 0.113750
C29   C     C_2   0.408671 0.649385 0.421599 -0.188225
C30   C     C_2   0.391973 0.731162 0.520632 -0.194691
C31   C     C_2   0.655421 0.092305 0.419004 -0.177011
C32   C     C_2   0.638851 0.178925 0.354982 -0.183988
C33   C     C_3   0.326238 0.816467 0.811311 -0.362222
C34   C     C_3   0.368714 0.814538 0.998254 -0.763445
H5    H     H_    0.445057 0.799567 0.965706 0.228832
H6    H     H_    0.360476 0.876944 0.071064 0.211864
H7    H     H_    0.331964 0.766637 0.099303 0.235761
H8    H     H_    0.355873 0.870709 0.720717 0.169396
H9    H     H_    0.248911 0.825322 0.847914 0.181086
C35   C     C_3   0.466084 0.565723 0.123412 -0.340074
C36   C     C_3   0.548252 0.517698 0.184618 -0.776249
H10   H     H_    0.613196 0.556754 0.160464 0.243268
H11   H     H_    0.532083 0.499667 0.340786 0.195704
H12   H     H_    0.560976 0.459668 0.095569 0.211317
H13   H     H_    0.401490 0.526206 0.145920 0.158957
H14   H     H_    0.483065 0.580675 0.965810 0.170161
C37   C     C_3   0.672202 0.292914 0.107701 -0.356117
C38   C     C_3   0.631290 0.290542 0.918702 -0.777144
H15   H     H_    0.558137 0.265788 0.946711 0.228012
H16   H     H_    0.629921 0.355117 0.858231 0.211616
H17   H     H_    0.674984 0.250204 0.808849 0.231939
H18   H     H_    0.625991 0.331708 0.217029 0.165893
H19   H     H_    0.742779 0.322771 0.080945 0.182573
C39   C     C_3   0.536257 0.095416 0.734196 -0.310780
C40   C     C_3   0.455163 0.033118 0.780099 -0.768872
H20   H     H_    0.396801 0.062088 0.882340 0.233441
H21   H     H_    0.428139 0.015143 0.644790 0.204643
H22   H     H_    0.478973 0.975657 0.849033 0.212303
H23   H     H_    0.565656 0.108036 0.869666 0.183959
H24   H     H_    0.508430 0.155163 0.684602 0.186205
H25   H     H_    0.073926 0.633308 0.870131 0.110530
H26   H     H_    0.927251 0.367873 0.127501 0.105325
H27   H     H_    0.927579 0.132828 0.138128 0.112108
H28   H     H_    0.070828 0.868468 0.864875 0.102760
C41   C     C_3   0.159030 0.536955 0.185950 -0.363408
C42   C     C_3   0.149051 0.622213 0.288758 -0.773700
H29   H     H_    0.145342 0.673288 0.181393 0.224971
H30   H     H_    0.084578 0.623583 0.400609 0.226080
H31   H     H_    0.211027 0.633599 0.361907 0.224910
H32   H     H_    0.165661 0.486956 0.294548 0.179176
H33   H     H_    0.223836 0.536966 0.074937 0.165463
C43   C     C_3   0.843669 0.464524 0.808132 -0.369295
C44   C     C_3   0.857726 0.382312 0.692921 -0.773167
H34   H     H_    0.920715 0.386494 0.577869 0.224472
H35   H     H_    0.866960 0.329041 0.791177 0.228343
H36   H     H_    0.795249 0.369778 0.622013 0.219523
H37   H     H_    0.778607 0.460584 0.917842 0.169375
H38   H     H_    0.835359 0.516773 0.706173 0.182811
C45   C     C_3   0.839355 0.040171 0.822441 -0.353339
C46   C     C_3   0.851143 0.126086 0.723326 -0.765164
H39   H     H_    0.858583 0.175974 0.831931 0.223996
H40   H     H_    0.914139 0.126424 0.607660 0.223702
H41   H     H_    0.788379 0.140456 0.655546 0.228408
H42   H     H_    0.830765 0.991221 0.712200 0.179095
H43   H     H_    0.775184 0.040683 0.935138 0.170382
C47   C     C_3   0.158915 0.963660 0.182023 -0.369188
C48   C     C_3   0.148393 0.879305 0.288270 -0.773291
H44   H     H_    0.085584 0.879991 0.404346 0.225447
H45   H     H_    0.141082 0.827566 0.184184 0.227704
H46   H     H_    0.211667 0.867241 0.356908 0.218374
H47   H     H_    0.222894 0.962884 0.069207 0.171739
H48   H     H_    0.166874 0.014318 0.288643 0.181104
H49   H     H_    0.948672 0.515310 0.352328 0.120361
H50   H     H_    0.053259 0.486324 0.645779 0.119653
H51   H     H_    0.047981 0.016912 0.647322 0.118918
H52   H     H_    0.950100 0.984508 0.355024 0.118318

loop_
_geom_bond_atom_site_label_1
_geom_bond_atom_site_label_2
_ccdc_geom_bond_type
O10   C7    A    
C12   C19   S    
C13   H25   S    
C41   C42   S    
C27   C31   D    
C23   H51   S    
C45   H42   S    
C11   C23   S    
C22   H50   S    
C38   H17   S    
C47   C48   S    
O1    V3    S    
C11   C45   S    
C8    C18   S    
C43   H37   S    
C44   H34   S    
O15   C5    A    
C38   H16   S    
C10   C14   S    
C36   H10   S    
C15   C24   S    
O15   V3    S    
C35   H14   S    
C39   H23   S    
H2    C29   S    
C46   H39   S    
C14   C18   S    
O4    C1    A    
C36   H11   S    
C25   C35   S    
C45   H43   S    
C10   C17   S    
C34   H6    S    
O13   V1    S    
C33   H8    S    
O9    V1    S    
C12   C47   S    
O10   V2    S    
C35   C36   S    
C48   H45   S    
C45   C46   S    
O17   C7    A    
C37   H18   S    
C41   H33   S    
C12   C16   S    
O5    C1    A    
C47   H47   S    
C16   H28   S    
C6    C20   S    
O2    V4    S    
O7    C3    A    
C31   C32   S    
C44   H35   S    
C28   C37   S    
C42   H31   S    
O13   V3    S    
O16   V4    S    
O11   V2    S    
O8    V1    S    
C38   H15   S    
C10   C43   S    
C25   C29   D    
C37   H19   S    
C19   C23   S    
O11   C6    A    
C35   H13   S    
C12   C24   S    
C15   H27   S    
C28   C32   D    
C14   H26   S    
H3    C32   S    
C36   H12   S    
C37   C38   S    
C34   H5    S    
O6    C2    A    
C9    C21   S    
C33   H9    S    
C40   H20   S    
C17   C21   S    
C48   H46   S    
C21   H49   S    
C9    C41   S    
O1    C4    A    
C27   C39   S    
C42   H30   S    
O2    C3    A    
O14   V4    S    
O3    C2    A    
C10   C22   S    
C16   C23   S    
C40   H21   S    
O7    V2    S    
C44   H36   S    
C13   C22   S    
C26   C30   D    
C5    C19   S    
O4    V3    S    
O17   V4    S    
C34   H7    S    
O18   C8    A    
C11   C15   S    
O5    V1    S    
C26   C33   S    
O6    V2    S    
C18   C22   S    
C43   H38   S    
O18   V3    S    
O3    V4    S    
C46   H41   S    
O12   C5    A    
C33   C34   S    
V1    O19   S    
C24   H52   S    
C7    C17   S    
C29   C30   S    
C39   H24   S    
O12   V1    S    
C43   C44   S    
V3    O19   S    
V4    O20   S    
C46   H40   S    
O14   V2    S    
C9    C13   S    
C42   H29   S    
C14   C21   S    
V2    O20   S    
C16   C20   S    
C20   C24   S    
C40   H22   S    
H1    C30   S    
O8    C4    A    
C39   C40   S    
O16   C6    A    
C13   C17   S    
H4    C31   S    
C9    C18   S    
C15   C19   S    
C41   H32   S    
C47   H48   S    
C48   H44   S    
O9    C8    A    
C11   C20   S    
