data_mof_unit_65412.cif
_audit_creation_date              2012-12-10T18:01:04-0500
_audit_creation_method            fapswitch 2.2
_symmetry_space_group_name_H-M    P1
_symmetry_Int_Tables_number       1
_space_group_crystal_system       triclinic
_cell_length_a                    38.616817
_cell_length_b                    21.636669
_cell_length_c                    21.665062
_cell_angle_alpha                 89.999916
_cell_angle_beta                  55.601284
_cell_angle_gamma                 89.999468
_cell_volume                      14936.4423618

loop_
_atom_site_label
_atom_site_type_symbol
_atom_type_description
_atom_site_fract_x
_atom_site_fract_y
_atom_site_fract_z
_atom_type_partial_charge
C1    C     C_R   0.999404 0.499971 0.380505 0.910315
C2    C     C_R   0.000596 0.499971 0.619495 0.910309
C3    C     C_R   0.499403 0.999971 0.380505 0.910415
C4    C     C_R   0.500596 0.999971 0.619495 0.910156
C5    C     C_3   0.708565 0.500496 0.790244 0.141594
C6    C     C_3   0.291436 0.500495 0.209757 0.141584
C7    C     C_3   0.208565 0.000413 0.790229 0.141550
C8    C     C_3   0.791435 0.000611 0.209729 0.141646
C9    C     C_3   0.763824 0.539785 0.779889 -0.233748
C10   C     C_3   0.236176 0.539716 0.220052 -0.233706
C11   C     C_3   0.263835 0.042588 0.777165 -0.233797
C12   C     C_3   0.736191 0.035326 0.216446 -0.233598
C13   C     C_3   0.736258 0.558152 0.750981 -0.235387
C14   C     C_3   0.263742 0.558169 0.248932 -0.235375
C15   C     C_3   0.236273 0.057172 0.747162 -0.235395
C16   C     C_3   0.763765 0.059128 0.243284 -0.235350
C17   C     C_1   0.836856 0.499894 0.663582 -0.038115
C18   C     C_1   0.163144 0.499892 0.336418 -0.038109
C19   C     C_1   0.336856 0.999909 0.663601 -0.038086
C20   C     C_1   0.663144 0.999871 0.336451 -0.038151
C21   C     C_1   0.663138 0.500399 0.836071 -0.035438
C22   C     C_1   0.336862 0.500399 0.163930 -0.035443
C23   C     C_1   0.163138 0.000347 0.836060 -0.035386
C24   C     C_1   0.836862 0.000469 0.163913 -0.035516
C25   C     C_R   0.022310 0.543875 0.260208 -0.232989
C26   C     C_R   0.977690 0.543875 0.739792 -0.232999
C27   C     C_R   0.522306 0.043878 0.260211 -0.232978
C28   C     C_R   0.477700 0.043887 0.739783 -0.232988
C29   C     C_R   0.023232 0.544519 0.195418 0.172702
C30   C     C_R   0.976768 0.544520 0.804582 0.172651
C31   C     C_R   0.523227 0.044523 0.195422 0.172645
C32   C     C_R   0.476778 0.044531 0.804574 0.172667
C33   C     C_R   0.999295 0.500199 0.187218 -0.094099
C34   C     C_R   0.000705 0.500199 0.812782 -0.094091
C35   C     C_R   0.499295 0.000199 0.187218 -0.094090
C36   C     C_R   0.500705 0.000199 0.812784 -0.094089
C37   C     C_R   0.974161 0.456566 0.244003 0.003645
C38   C     C_R   0.025839 0.456564 0.755997 0.003654
C39   C     C_R   0.474164 0.956561 0.244000 0.003699
C40   C     C_R   0.525828 0.956552 0.756010 0.003572
C41   C     C_R   0.974028 0.456333 0.308264 0.114052
C42   C     C_R   0.025972 0.456332 0.691736 0.114040
C43   C     C_R   0.474030 0.956330 0.308261 0.114200
C44   C     C_R   0.525960 0.956317 0.691751 0.113835
C45   C     C_R   0.918771 0.500004 0.581282 0.905306
C46   C     C_R   0.081229 0.500004 0.418718 0.905296
C47   C     C_R   0.418771 0.000005 0.581284 0.905395
C48   C     C_R   0.581229 0.000003 0.418719 0.905157
C49   C     C_R   0.998454 0.499836 0.315389 -0.110410
C50   C     C_R   0.001546 0.499836 0.684611 -0.110397
C51   C     C_R   0.498453 0.999837 0.315389 -0.110415
C52   C     C_R   0.501545 0.999835 0.684613 -0.110447
C53   C     C_R   0.500000 0.379579 0.000000 0.885534
C54   C     C_R   0.000000 0.879579 1.000000 0.885559
C55   C     C_R   0.581224 0.500010 0.918680 0.905131
C56   C     C_R   0.418776 0.500010 0.081319 0.905137
C57   C     C_R   0.081224 0.000008 0.918680 0.905069
C58   C     C_R   0.918775 0.000013 0.081319 0.905238
C59   C     C_R   0.500000 0.619984 1.000000 0.885496
C60   C     C_R   1.000000 0.119984 1.000000 0.885507
C61   C     C_R   0.000000 0.379557 1.000000 0.888993
C62   C     C_R   0.500000 0.879556 1.000000 0.888990
C63   C     C_R   0.999847 0.499949 0.120479 0.899398
C64   C     C_R   0.000152 0.499948 0.879521 0.899395
C65   C     C_R   0.499847 0.999948 0.120478 0.899403
C66   C     C_R   0.500152 0.999949 0.879522 0.899403
C67   C     C_R   1.000000 0.620075 1.000000 0.928123
C68   C     C_R   0.500000 0.120075 0.000000 0.928125
C69   C     C_R   0.481589 0.281713 0.067760 -0.211192
C70   C     C_R   0.518411 0.281713 0.932241 -0.211234
C71   C     C_R   0.981599 0.781712 0.067757 -0.211047
C72   C     C_R   0.018404 0.781712 0.932241 -0.211324
C73   C     C_R   0.981032 0.717606 0.068433 0.055998
C74   C     C_R   0.018969 0.717606 0.931565 0.056000
C75   C     C_R   0.481023 0.217607 0.068436 0.055975
C76   C     C_R   0.518977 0.217607 0.931565 0.056030
C77   C     C_R   1.000000 0.686053 0.999999 -0.032360
C78   C     C_R   0.500000 0.186053 0.000000 -0.032373
C79   C     C_3   0.736510 0.460963 0.719782 0.176878
C80   C     C_3   0.263491 0.461027 0.280278 0.176847
C81   C     C_3   0.236498 0.958144 0.722486 0.177104
C82   C     C_3   0.763476 0.965434 0.283861 0.176500
C83   C     C_R   0.500000 0.313314 0.000000 -0.069151
C84   C     C_R   0.000001 0.813313 0.999999 -0.069162
C85   C     C_R   0.523298 0.717263 0.020947 -0.184106
C86   C     C_R   0.476702 0.717263 0.979054 -0.184082
C87   C     C_R   0.023291 0.217263 0.020961 -0.184081
C88   C     C_R   0.976709 0.217264 0.979038 -0.184101
C89   C     C_R   0.024153 0.281250 0.020170 0.148699
C90   C     C_R   0.975847 0.281251 0.979829 0.148665
C91   C     C_R   0.524160 0.781249 0.020156 0.148734
C92   C     C_R   0.475840 0.781249 0.979846 0.148649
C93   C     C_R   0.000000 0.313244 0.999999 -0.052942
C94   C     C_R   0.500000 0.813244 0.000000 -0.052959
C95   C     C_R   0.500000 0.685945 1.000000 -0.107533
C96   C     C_R   0.000000 0.185946 1.000000 -0.107545
C97   C     C_3   0.764343 0.517752 0.681145 0.149787
C98   C     C_3   0.235656 0.517832 0.318829 0.149795
C99   C     C_3   0.264347 0.014088 0.680101 0.149864
C100  C     C_3   0.735664 0.023013 0.316879 0.149661
C101  C     C_1   0.874335 0.499978 0.625907 -0.180229
C102  C     C_1   0.125665 0.499976 0.374093 -0.180225
C103  C     C_1   0.374335 0.999982 0.625917 -0.180240
C104  C     C_1   0.625665 0.999970 0.374110 -0.180202
C105  C     C_1   0.625661 0.500221 0.873897 -0.182212
C106  C     C_1   0.374339 0.500221 0.126103 -0.182219
C107  C     C_1   0.125661 0.000196 0.873893 -0.182197
C108  C     C_1   0.874339 0.000257 0.126098 -0.182247
C109  C     C_3   0.763917 0.441961 0.748280 -0.206104
C110  C     C_3   0.236084 0.441941 0.251808 -0.206114
C111  C     C_3   0.263901 0.942889 0.752123 -0.206076
C112  C     C_3   0.736060 0.941056 0.257493 -0.206159
C113  C     C_3   0.791456 0.499769 0.709153 0.120564
C114  C     C_3   0.208544 0.499765 0.290848 0.120551
C115  C     C_3   0.291456 0.999797 0.709183 0.120531
C116  C     C_3   0.708544 0.999726 0.290897 0.120587
C117  C     C_3   0.735848 0.482564 0.817927 0.122925
C118  C     C_3   0.264154 0.482480 0.182100 0.122944
C119  C     C_3   0.235843 0.986163 0.818982 0.122890
C120  C     C_3   0.764145 0.977389 0.184067 0.123014
H1    H     H_    0.467100 0.306907 0.119984 0.153479
H2    H     H_    0.532900 0.306907 0.880016 0.153469
H3    H     H_    0.967116 0.806906 0.119981 0.153499
H4    H     H_    0.032887 0.806905 0.880017 0.153461
H5    H     H_    0.541448 0.691588 0.036381 0.155526
H6    H     H_    0.458552 0.691589 0.963620 0.155535
H7    H     H_    0.041436 0.191589 0.036407 0.155542
H8    H     H_    0.958564 0.191591 0.963593 0.155536
H9    H     H_    0.724738 0.605204 0.751171 0.152488
H10   H     H_    0.275260 0.605239 0.248669 0.152496
H11   H     H_    0.224767 0.103372 0.744253 0.152569
H12   H     H_    0.775303 0.107061 0.238428 0.152392
H13   H     H_    0.775330 0.571097 0.805197 0.148610
H14   H     H_    0.224671 0.570973 0.194694 0.148635
H15   H     H_    0.275349 0.076272 0.800314 0.148712
H16   H     H_    0.724697 0.062886 0.188246 0.148521
H17   H     H_    0.775357 0.394812 0.747958 0.147593
H18   H     H_    0.224645 0.394774 0.252202 0.147601
H19   H     H_    0.275329 0.896579 0.754907 0.147581
H20   H     H_    0.724602 0.893047 0.262489 0.147604
H21   H     H_    0.040778 0.577157 0.267386 0.163198
H22   H     H_    0.959222 0.577158 0.732614 0.163177
H23   H     H_    0.540772 0.077164 0.267392 0.163258
H24   H     H_    0.459240 0.077180 0.732597 0.163175
O1    O     O_R   0.000010 0.448280 0.408380 -0.604321
O2    O     O_R   0.999990 0.448280 0.591620 -0.604314
O3    O     O_R   0.500010 0.948280 0.408380 -0.604339
O4    O     O_R   0.499990 0.948280 0.591620 -0.604278
O5    O     O_R   0.034780 0.499900 0.056880 -0.620178
O6    O     O_R   0.965220 0.499900 0.943120 -0.620150
O7    O     O_R   0.534780 0.999900 0.056880 -0.620196
O8    O     O_R   0.465220 0.999900 0.943120 -0.620139
O9    O     O_R   0.965220 0.499940 0.126430 -0.633328
O10   O     O_R   0.034780 0.499940 0.873570 -0.633348
O11   O     O_R   0.465220 0.999940 0.126430 -0.633283
O12   O     O_R   0.534780 0.999940 0.873570 -0.633399
O13   O     O_R   0.034810 0.591520 0.965270 -0.625170
O14   O     O_R   0.965190 0.591520 0.034730 -0.625088
O15   O     O_R   0.534810 0.091520 0.965270 -0.625153
O16   O     O_R   0.465190 0.091520 0.034730 -0.625115
O17   O     O_R   0.000010 0.551730 0.408430 -0.632122
O18   O     O_R   0.999990 0.551730 0.591570 -0.632146
O19   O     O_R   0.500010 0.051730 0.408430 -0.632069
O20   O     O_R   0.499990 0.051730 0.591570 -0.632205
O21   O     O_R   0.938390 0.448280 0.561610 -0.616947
O22   O     O_R   0.061610 0.448280 0.438390 -0.616944
O23   O     O_R   0.438390 0.948280 0.561610 -0.616905
O24   O     O_R   0.561610 0.948280 0.438390 -0.616996
O25   O     O_R   0.938400 0.551730 0.561660 -0.617277
O26   O     O_R   0.061600 0.551730 0.438340 -0.617262
O27   O     O_R   0.438400 0.051730 0.561660 -0.617444
O28   O     O_R   0.561600 0.051730 0.438340 -0.617025
O29   O     O_R   0.500010 0.408260 0.948350 -0.625933
O30   O     O_R   0.499990 0.408260 0.051650 -0.625919
O31   O     O_R   0.000010 0.908260 0.948350 -0.625957
O32   O     O_R   0.999990 0.908260 0.051650 -0.625916
O33   O     O_R   0.561620 0.499890 0.886700 -0.617917
O34   O     O_R   0.438380 0.499890 0.113300 -0.617922
O35   O     O_R   0.061620 0.999890 0.886700 -0.618046
O36   O     O_R   0.938380 0.999890 0.113300 -0.617726
O37   O     O_R   0.561610 0.499990 0.990150 -0.616365
O38   O     O_R   0.438390 0.499990 0.009850 -0.616383
O39   O     O_R   0.061610 0.999990 0.990150 -0.616147
O40   O     O_R   0.938390 0.999990 0.009850 -0.616705
O41   O     O_R   0.500010 0.591500 0.948260 -0.625024
O42   O     O_R   0.499990 0.591500 0.051740 -0.625033
O43   O     O_R   0.000010 0.091500 0.948260 -0.625033
O44   O     O_R   0.999990 0.091500 0.051740 -0.625026
O45   O     O_R   0.034760 0.408280 0.965230 -0.625964
O46   O     O_R   0.965240 0.408280 0.034770 -0.625944
O47   O     O_R   0.534760 0.908280 0.965230 -0.625962
O48   O     O_R   0.465240 0.908280 0.034770 -0.625945
Zn1   Zn    Zn3+2 1.000000 0.430930 0.500000 0.972052
Zn2   Zn    Zn3+2 0.500000 0.930930 0.500000 0.972054
Zn3   Zn    Zn3+2 1.000000 0.569080 0.500000 0.960037
Zn4   Zn    Zn3+2 0.500000 0.069080 0.500000 0.960099
Zn5   Zn    Zn3+2 0.500010 0.499860 0.930960 0.957056
Zn6   Zn    Zn3+2 0.499990 0.499860 0.069040 0.957072
Zn7   Zn    Zn3+2 0.000010 0.999860 0.930960 0.956723
Zn8   Zn    Zn3+2 0.999990 0.999860 0.069040 0.957343
Zn9   Zn    Zn3+2 0.046450 0.499890 0.953590 0.936368
Zn10  Zn    Zn3+2 0.953550 0.499890 0.046410 0.936546
Zn11  Zn    Zn3+2 0.546450 0.999890 0.953590 0.936299
Zn12  Zn    Zn3+2 0.453550 0.999890 0.046410 0.936561
N1    N     N_3   0.780972 0.537361 0.604931 -0.453130
H25   H     H_    0.755390 0.544919 0.601474 0.184407
H26   H     H_    0.797803 0.500209 0.569613 0.184897
N2    N     N_3   0.219026 0.537533 0.395015 -0.453157
H27   H     H_    0.244606 0.545131 0.398465 0.184372
H28   H     H_    0.202189 0.500413 0.430392 0.184894
N3    N     N_3   0.280982 0.029702 0.602715 -0.453366
H29   H     H_    0.255404 0.035312 0.598815 0.184398
H30   H     H_    0.297812 0.991410 0.569901 0.184873
N4    N     N_3   0.719045 0.048364 0.390884 -0.452840
H31   H     H_    0.744631 0.058725 0.393458 0.184360
H32   H     H_    0.702202 0.013202 0.429753 0.184991
N5    N     N_3   0.948161 0.413312 0.367489 -0.434905
H33   H     H_    0.916956 0.420074 0.385584 0.189748
H34   H     H_    0.957016 0.368505 0.346028 0.205245
N6    N     N_3   0.051840 0.413312 0.632510 -0.434901
H35   H     H_    0.083045 0.420075 0.614415 0.189741
H36   H     H_    0.042987 0.368504 0.653969 0.205258
N7    N     N_3   0.448163 0.913308 0.367486 -0.434865
H37   H     H_    0.416958 0.920071 0.385582 0.189884
H38   H     H_    0.457018 0.868501 0.346025 0.205182
N8    N     N_3   0.551815 0.913278 0.632540 -0.434928
H39   H     H_    0.583022 0.920019 0.614445 0.189626
H40   H     H_    0.542946 0.868477 0.654015 0.205340
N9    N     N_3   0.962132 0.684267 0.137717 -0.472642
H41   H     H_    0.932933 0.668365 0.151926 0.202461
H42   H     H_    0.956302 0.713906 0.180741 0.184087
N10   N     N_3   0.037870 0.684266 0.862281 -0.472633
H43   H     H_    0.067071 0.668366 0.848071 0.202365
H44   H     H_    0.043699 0.713905 0.819258 0.184066
N11   N     N_3   0.462115 0.184268 0.137722 -0.472589
H45   H     H_    0.432917 0.168367 0.151918 0.202448
H46   H     H_    0.456279 0.213907 0.180749 0.184107
N12   N     N_3   0.537886 0.184268 0.862278 -0.472682
H47   H     H_    0.567085 0.168369 0.848081 0.202336
H48   H     H_    0.543721 0.213906 0.819252 0.184031
C121  C     C_3   0.050443 0.313959 0.041695 -0.881317
H49   H     H_    0.063531 0.281210 0.063000 0.230707
H50   H     H_    0.077242 0.337685 0.992175 0.258511
H51   H     H_    0.031205 0.348311 0.086344 0.226281
C122  C     C_3   0.949558 0.313960 0.958303 -0.881227
H52   H     H_    0.936470 0.281213 0.936998 0.230726
H53   H     H_    0.922758 0.337687 0.007823 0.258535
H54   H     H_    0.968795 0.348312 0.913655 0.226266
C123  C     C_3   0.550455 0.813958 0.041668 -0.881367
H55   H     H_    0.563547 0.781209 0.062967 0.230696
H56   H     H_    0.577252 0.837683 0.992144 0.258506
H57   H     H_    0.531221 0.848310 0.086319 0.226288
C124  C     C_3   0.449540 0.813958 0.958342 -0.881180
H58   H     H_    0.436448 0.781210 0.937044 0.230718
H59   H     H_    0.422743 0.837680 0.007871 0.258530
H60   H     H_    0.468771 0.848314 0.913695 0.226278
C125  C     C_3   0.720969 0.417351 0.685395 -0.942143
H61   H     H_    0.748168 0.395595 0.634533 0.242883
H62   H     H_    0.701133 0.380820 0.726379 0.254248
H63   H     H_    0.702166 0.443524 0.670041 0.245531
C126  C     C_3   0.279029 0.417489 0.314735 -0.942055
H64   H     H_    0.251829 0.395770 0.365630 0.242898
H65   H     H_    0.298863 0.380924 0.273809 0.254270
H66   H     H_    0.297832 0.443712 0.330051 0.245503
C127  C     C_3   0.220947 0.911317 0.691105 -0.942428
H67   H     H_    0.248139 0.888036 0.641740 0.243033
H68   H     H_    0.201101 0.876271 0.734467 0.254261
H69   H     H_    0.202151 0.935169 0.674086 0.245407
C128  C     C_3   0.778998 0.926915 0.322285 -0.941578
H70   H     H_    0.751791 0.907586 0.375166 0.242684
H71   H     H_    0.798820 0.888485 0.284986 0.254312
H72   H     H_    0.797811 0.956303 0.334912 0.245634
N13   N     N_3   0.719276 0.462957 0.894090 -0.451388
H73   H     H_    0.744905 0.455321 0.897392 0.181717
H74   H     H_    0.702583 0.500203 0.929351 0.185531
N14   N     N_3   0.280727 0.462783 0.105965 -0.451454
H75   H     H_    0.255099 0.455102 0.102671 0.181667
H76   H     H_    0.297422 0.499999 0.070645 0.185527
N15   N     N_3   0.219266 0.970555 0.896316 -0.451275
H77   H     H_    0.244892 0.964849 0.900063 0.181665
H78   H     H_    0.202582 0.008952 0.929064 0.185421
N16   N     N_3   0.780709 0.952039 0.110112 -0.451672
H79   H     H_    0.755077 0.941614 0.107696 0.181729
H80   H     H_    0.797418 0.987285 0.071289 0.185655
C129  C     C_3   0.048935 0.593431 0.137144 -0.862048
H81   H     H_    0.061943 0.627772 0.157015 0.227758
H82   H     H_    0.075750 0.571714 0.085716 0.253316
H83   H     H_    0.029103 0.618804 0.123485 0.248847
C130  C     C_3   0.951066 0.593433 0.862856 -0.861933
H84   H     H_    0.938057 0.627774 0.842984 0.227730
H85   H     H_    0.924251 0.571718 0.914284 0.253355
H86   H     H_    0.970898 0.618806 0.876514 0.248843
C131  C     C_3   0.548926 0.093441 0.137152 -0.861928
H87   H     H_    0.561932 0.127783 0.157025 0.227802
H88   H     H_    0.575742 0.071729 0.085721 0.253305
H89   H     H_    0.529091 0.118810 0.123497 0.248841
C132  C     C_3   0.451086 0.093456 0.862838 -0.862056
H90   H     H_    0.438083 0.127802 0.842961 0.227732
H91   H     H_    0.424267 0.071751 0.914272 0.253361
H92   H     H_    0.470924 0.118820 0.876489 0.248834
N17   N     N_3   0.948899 0.411811 0.237486 -0.471587
H93   H     H_    0.967473 0.388110 0.186908 0.182041
H94   H     H_    0.924772 0.434702 0.238488 0.214969
N18   N     N_3   0.051101 0.411809 0.762514 -0.471596
H95   H     H_    0.032526 0.388109 0.813092 0.182042
H96   H     H_    0.075228 0.434699 0.761512 0.214941
N19   N     N_3   0.448908 0.911801 0.237477 -0.471585
H97   H     H_    0.467485 0.888102 0.186897 0.182006
H98   H     H_    0.424779 0.934685 0.238477 0.215036
N20   N     N_3   0.551079 0.911785 0.762539 -0.471585
H99   H     H_    0.532499 0.888094 0.813122 0.182066
H100  H     H_    0.575210 0.934664 0.761535 0.214853

loop_
_geom_bond_atom_site_label_1
_geom_bond_atom_site_label_2
_ccdc_geom_bond_type
N7    H37   S    
O22   Zn1   S    
O41   Zn5   S    
C110  C118  S    
C111  H19   S    
N17   H93   S    
C100  N4    S    
N16   H79   S    
C55   C105  S    
C40   N20   S    
C26   C50   A    
C119  N15   S    
O26   Zn3   S    
C36   C66   S    
C98   C114  S    
C4    O4    A    
C29   C33   A    
C59   O42   A    
C54   O32   A    
C9    C13   S    
N12   H47   S    
C11   C15   S    
C12   C16   S    
C27   H23   S    
C28   H24   S    
C11   C115  S    
C5    C13   S    
C92   C124  S    
C7    C15   S    
C8    C16   S    
C122  H52   S    
C72   H4    S    
C61   O45   A    
C98   N2    S    
O47   Zn11  S    
C41   C49   A    
C25   C29   A    
N20   H100  S    
C123  H56   S    
C79   C109  S    
C27   C31   A    
C7    C119  S    
C28   C32   A    
C63   O9    A    
C117  N13   S    
C112  C120  S    
C81   C99   S    
N9    H41   S    
C74   N10   S    
C6    C80   S    
C23   C107  T    
C92   C94   A    
O48   Zn12  S    
C56   C106  S    
C72   C84   A    
C128  H71   S    
O28   Zn4   S    
O10   Zn9   S    
C90   C93   A    
C20   C116  S    
C14   H10   S    
C79   C97   S    
O46   Zn10  S    
C47   O27   A    
C42   N6    S    
C129  H82   S    
C91   C94   A    
O19   Zn4   S    
N15   H78   S    
C13   C97   S    
C86   C95   A    
C5    C21   S    
C122  H54   S    
C5    C117  S    
C73   C77   A    
C58   O36   A    
C121  H50   S    
C68   O16   A    
C9    H13   S    
C122  H53   S    
C3    O3    A    
C86   H6    S    
C112  H20   S    
C1    O1    A    
C67   C77   S    
C2    O18   A    
C73   N9    S    
C17   C113  S    
O25   Zn3   S    
C99   N3    S    
C123  H55   S    
C10   C118  S    
C32   C36   A    
C76   N12   S    
C76   C78   A    
C126  H64   S    
N4    H32   S    
O44   Zn8   S    
C90   C122  S    
C111  C119  S    
C125  H61   S    
C18   C102  T    
C2    C50   S    
C74   C77   A    
O18   Zn3   S    
C19   C115  S    
C5    C79   S    
C110  C114  S    
C33   C63   S    
C44   C52   A    
N18   H96   S    
O33   Zn5   S    
C81   C127  S    
C132  H91   S    
O38   Zn5   S    
N6    H35   S    
C27   C51   A    
C14   C98   S    
N1    H26   S    
C30   C34   A    
O29   Zn5   S    
C79   C125  S    
C10   C14   S    
C16   C100  S    
N5    H33   S    
C46   O26   A    
C65   O7    A    
C43   N7    S    
C66   O8    A    
C131  H87   S    
O36   Zn8   S    
C6    C14   S    
C70   H2    S    
N15   H77   S    
C34   C64   S    
C130  H84   S    
C67   O13   A    
C127  H68   S    
O31   Zn7   S    
C42   C50   A    
C7    C81   S    
C26   C30   A    
O13   Zn9   S    
C112  C116  S    
C123  H57   S    
C29   C129  S    
C57   C107  S    
O42   Zn6   S    
C45   O25   A    
C126  H66   S    
C41   N5    S    
N7    H38   S    
C62   O47   A    
N16   H80   S    
O39   Zn8   S    
C121  H51   S    
C9    C113  S    
C65   O11   A    
C66   O12   A    
C85   C95   A    
C7    C23   S    
C8    C24   S    
C59   O41   A    
C89   C93   A    
C40   C44   A    
C15   H11   S    
N14   H75   S    
C60   O44   A    
N8    H39   S    
C12   H16   S    
C13   H9    S    
O12   Zn11  S    
C44   N8    S    
C12   C116  S    
C88   C96   A    
C100  C116  S    
C54   C84   S    
C109  C117  S    
C82   C128  S    
C8    C82   S    
C131  H89   S    
C99   C115  S    
C61   C93   S    
C35   C65   S    
C6    C22   S    
C130  H86   S    
O17   Zn3   S    
O3    Zn2   S    
C58   O40   A    
C30   C130  S    
N2    H27   S    
N11   H45   S    
C24   C108  T    
O1    Zn1   S    
C10   C114  S    
C3    O19   A    
C120  N16   S    
C1    O17   A    
C128  H70   S    
C55   O33   A    
O32   Zn8   S    
C118  N14   S    
N12   H48   S    
N17   H94   S    
C68   C78   S    
C47   C103  S    
C53   O29   A    
N19   H97   S    
C72   C74   A    
O7    Zn11  S    
C57   O35   A    
C3    C51   S    
C124  H59   S    
C56   O34   A    
C33   C37   A    
O43   Zn7   S    
C82   C112  S    
C54   O31   A    
C35   C39   A    
C129  H81   S    
C11   H15   S    
C124  H60   S    
N3    H29   S    
C110  H18   S    
O20   Zn4   S    
O2    Zn1   S    
C70   C83   A    
C45   C101  S    
C60   C96   S    
O4    Zn2   S    
C88   C90   A    
C60   O43   A    
C62   C94   S    
C61   O46   A    
C31   C35   A    
C62   O48   A    
C2    O2    A    
O6    Zn10  S    
C71   C73   A    
O9    Zn10  S    
C91   C123  S    
C71   H3    S    
N20   H99   S    
C46   O22   A    
C80   C98   S    
C25   H21   S    
O27   Zn4   S    
O16   Zn12  S    
C38   C42   A    
N6    H36   S    
C53   C83   S    
C125  H63   S    
N9    H42   S    
C43   C51   A    
C124  H58   S    
O35   Zn7   S    
N10   H43   S    
C69   C75   A    
C58   C108  S    
C16   H12   S    
C25   C49   A    
C88   H8    S    
C128  H72   S    
O8    Zn12  S    
C97   N1    S    
C45   O21   A    
C21   C105  T    
C31   C131  S    
C9    C117  S    
C132  H90   S    
C85   H5    S    
C11   C119  S    
C18   C114  S    
C87   H7    S    
C85   C91   A    
N1    H25   S    
C46   C102  S    
C4    C52   S    
C121  H49   S    
C129  H83   S    
C37   N17   S    
C48   C104  S    
C64   O10   A    
C109  H17   S    
C17   C101  T    
C63   O5    A    
N13   H74   S    
C12   C120  S    
C19   C103  T    
C81   C111  S    
C4    O20   A    
C75   N11   S    
C68   O15   A    
C127  H67   S    
C109  C113  S    
O34   Zn6   S    
C48   O28   A    
C37   C41   A    
N11   H46   S    
C59   C95   S    
O37   Zn6   S    
N10   H44   S    
C127  H69   S    
C53   O30   A    
O30   Zn6   S    
C36   C40   A    
C126  H65   S    
N4    H31   S    
C39   C43   A    
C132  H92   S    
O45   Zn9   S    
C22   C106  T    
C64   O6    A    
C125  H62   S    
C39   N19   S    
C69   C83   A    
C47   O23   A    
O15   Zn11  S    
C48   O24   A    
C69   H1    S    
O40   Zn7   S    
C87   C96   A    
N13   H73   S    
C55   O37   A    
N18   H95   S    
N3    H30   S    
N14   H76   S    
N8    H40   S    
C70   C76   A    
O14   Zn10  S    
O23   Zn2   S    
C89   C121  S    
C97   C113  S    
O11   Zn12  S    
O5    Zn9   S    
C57   O39   A    
C8    C120  S    
C71   C84   A    
C34   C38   A    
C82   C100  S    
C80   C126  S    
C10   H14   S    
C15   C99   S    
O21   Zn1   S    
C111  C115  S    
C32   C132  S    
C20   C104  T    
N5    H34   S    
C38   N18   S    
C87   C89   A    
N19   H98   S    
C131  H88   S    
C86   C92   A    
C28   C52   A    
C56   O38   A    
C130  H85   S    
C67   O14   A    
C75   C78   A    
N2    H28   S    
C80   C110  S    
O24   Zn2   S    
C26   H22   S    
C1    C49   S    
C6    C118  S    
