data_mof_unit_49118.cif
_audit_creation_date              2013-03-05T15:42:27-0500
_audit_creation_method            fapswitch 2.2
_symmetry_space_group_name_H-M    P1
_symmetry_Int_Tables_number       1
_space_group_crystal_system       triclinic
_cell_length_a                    11.065544
_cell_length_b                    10.972275
_cell_length_c                    18.768001
_cell_angle_alpha                 90.351885
_cell_angle_beta                  89.787361
_cell_angle_gamma                 60.133928
_cell_volume                      1975.97387928

loop_
_atom_site_label
_atom_site_type_symbol
_atom_site_description
_atom_site_fract_x
_atom_site_fract_y
_atom_site_fract_z
_atom_type_partial_charge
O1    O     O_R   0.507340 0.255690 0.581430 -0.507147
O2    O     O_R   0.280360 0.527380 0.578910 -0.492054
C1    C     C_R   0.242593 0.643270 0.611870 0.604090
O3    O     O_R   0.260600 0.739610 0.584580 -0.523928
O4    O     O_R   0.532370 0.695050 0.573830 -0.454220
C2    C     C_R   0.655427 0.625230 0.599340 0.671124
O5    O     O_R   0.744850 0.503430 0.576380 -0.522505
O6    O     O_R   0.699080 0.276500 0.571950 -0.505057
C3    C     C_R   0.626843 0.229496 0.603002 0.573689
O7    O     O_R   0.498860 0.256520 0.419860 -0.535727
O8    O     O_R   0.272490 0.528150 0.429140 -0.491945
C4    C     C_R   0.285037 0.622967 0.392308 0.558922
O9    O     O_R   0.252110 0.740440 0.423010 -0.515344
O10   O     O_R   0.524510 0.695820 0.424050 -0.529512
C5    C     C_R   0.643941 0.618453 0.391272 0.551831
O11   O     O_R   0.736370 0.504260 0.414810 -0.532256
O12   O     O_R   0.691220 0.277270 0.422180 -0.504265
C6    C     C_R   0.617486 0.222240 0.397860 0.539701
Cr1   Cr    Cr6+3 0.392940 0.397950 0.502230 1.037970
Cr2   Cr    Cr6+3 0.398400 0.708500 0.501260 1.047157
Cr3   Cr    Cr6+3 0.708640 0.393530 0.496460 1.027471
O13   O     O_3   0.499990 0.499990 0.499980 -0.282043
C7    C     C_3   0.607433 0.836462 0.775275 -0.257617
H1    H     H_    0.645579 0.913105 0.773617 0.124087
H2    H     H_    0.511965 0.883882 0.809308 0.181936
C8    C     C_3   0.567190 0.811376 0.699934 -0.104323
H3    H     H_    0.468007 0.811641 0.705898 0.154465
H4    H     H_    0.897097 0.722873 0.771120 0.109949
C9    C     C_3   0.856914 0.648975 0.762103 -0.285822
C10   C     C_3   0.678860 0.582829 0.800856 -0.210805
C11   C     C_3   0.723849 0.695194 0.807020 -0.000175
H5    H     H_    0.754965 0.483120 0.827023 0.118021
H6    H     H_    0.577266 0.621205 0.828649 0.182760
C12   C     C_3   0.678944 0.660557 0.672781 0.096906
C13   C     C_3   0.829333 0.637194 0.681986 -0.142391
C14   C     C_3   0.668537 0.550689 0.722055 0.066039
H7    H     H_    0.757452 0.443497 0.709485 0.150477
H8    H     H_    0.936984 0.544765 0.781203 0.162410
H9    H     H_    0.903686 0.528086 0.664140 0.150485
H10   H     H_    0.441208 0.266653 0.701615 0.165399
C15   C     C_R   0.690228 0.163841 0.825413 -0.016813
C16   C     C_R   0.806801 0.134415 0.781320 -0.047058
C17   C     C_R   0.792704 0.133658 0.706109 -0.013268
C18   C     C_R   0.544986 0.224361 0.722103 -0.167672
C19   C     C_R   0.559799 0.216273 0.794510 -0.175766
C20   C     C_R   0.935758 0.107828 0.809007 -0.037531
C21   C     C_R   0.050509 0.068223 0.764379 0.295127
C22   C     C_R   0.038855 0.052033 0.691068 -0.093238
C23   C     C_R   0.911687 0.083695 0.662291 -0.139256
C24   C     C_R   0.659520 0.183431 0.676827 0.018620
H11   H     H_    0.948529 0.123851 0.864598 0.168210
H12   H     H_    0.469102 0.242771 0.826735 0.152775
H13   H     H_    0.127740 0.017498 0.655734 0.134363
H14   H     H_    0.907917 0.067933 0.605584 0.146340
H15   H     H_    0.281139 0.799876 0.706041 0.147511
C25   C     C_R   0.205071 0.647014 0.840166 -0.023528
C26   C     C_R   0.199603 0.539851 0.800706 -0.030017
C27   C     C_R   0.193136 0.546701 0.725170 -0.036488
C28   C     C_R   0.248268 0.733937 0.731523 -0.043291
C29   C     C_R   0.252875 0.727256 0.805611 0.242233
C30   C     C_R   0.204146 0.424126 0.835001 -0.159771
C31   C     C_R   0.193869 0.321754 0.796330 -0.088659
C32   C     C_R   0.172984 0.334607 0.722940 0.211394
C33   C     C_R   0.168894 0.448851 0.688104 -0.105994
C34   C     C_R   0.213435 0.649293 0.689777 -0.030840
H16   H     H_    0.224551 0.406915 0.891451 0.137407
H17   H     H_    0.201614 0.233742 0.824863 0.192947
H18   H     H_    0.142594 0.460442 0.632496 0.164726
H19   H     H_    0.581729 0.860622 0.325429 0.119395
C35   C     C_R   0.658124 0.676385 0.169414 0.017890
C36   C     C_R   0.705327 0.540820 0.195536 0.005942
C37   C     C_R   0.734949 0.517335 0.268447 -0.006173
C38   C     C_R   0.621321 0.770484 0.289871 -0.160688
C39   C     C_R   0.624673 0.788552 0.216907 -0.146008
C40   C     C_R   0.745318 0.425774 0.148567 -0.159432
C41   C     C_R   0.845636 0.292083 0.168801 -0.055327
C42   C     C_R   0.897763 0.268889 0.237439 0.287975
C43   C     C_R   0.838085 0.378644 0.288014 -0.053818
C44   C     C_R   0.669829 0.636329 0.316418 0.016926
H20   H     H_    0.711432 0.441326 0.093634 0.124814
H21   H     H_    0.596698 0.891702 0.197291 0.132058
H22   H     H_    0.889349 0.207991 0.129773 0.179782
H23   H     H_    0.887681 0.354270 0.339054 0.169774
C45   C     C_R   0.675101 0.105731 0.185631 -0.019018
C46   C     C_R   0.540436 0.178098 0.215577 -0.059568
C47   C     C_R   0.529039 0.166225 0.288456 -0.049987
C48   C     C_R   0.779059 0.068237 0.303823 0.213158
C49   C     C_R   0.793855 0.042424 0.230335 0.264259
C50   C     C_R   0.416865 0.251250 0.175337 -0.130842
C51   C     C_R   0.289762 0.277513 0.203305 -0.058919
C52   C     C_R   0.280480 0.245461 0.273778 0.232286
C53   C     C_R   0.400934 0.184734 0.315387 -0.085727
C54   C     C_R   0.644982 0.142541 0.331648 -0.029101
H24   H     H_    0.416699 0.288031 0.122030 0.147124
H25   H     H_    0.197975 0.324275 0.170160 0.139183
H26   H     H_    0.393682 0.149364 0.368084 0.132369
H27   H     H_    0.132785 0.526168 0.329494 0.185576
C55   C     C_R   0.178043 0.652267 0.174365 -0.009107
C56   C     C_R   0.262610 0.707098 0.196696 0.021697
C57   C     C_R   0.277365 0.720564 0.270223 0.012816
C58   C     C_R   0.169691 0.577105 0.293274 -0.119908
C59   C     C_R   0.129768 0.590498 0.223064 -0.146555
C60   C     C_R   0.309927 0.771944 0.147767 -0.076895
C61   C     C_R   0.328675 0.881614 0.170305 -0.068402
C62   C     C_R   0.322814 0.910946 0.242483 -0.073652
C63   C     C_R   0.309631 0.824733 0.292176 -0.081871
C64   C     C_R   0.244741 0.640082 0.317791 0.008472
H28   H     H_    0.316260 0.749559 0.091135 0.109046
H29   H     H_    0.055506 0.558232 0.207649 0.161852
H30   H     H_    0.350382 0.942015 0.132182 0.126329
H31   H     H_    0.341735 0.992551 0.260508 0.132060
H32   H     H_    0.317740 0.849835 0.346536 0.163348
O14   O     O_R   0.089570 0.825450 0.930590 -0.497401
O15   O     O_R   0.818700 0.054260 0.929860 -0.519093
C65   C     C_R   0.703117 0.102853 0.896497 0.529084
O16   O     O_R   0.606310 0.077010 0.915520 -0.527431
O17   O     O_R   0.646730 0.806540 0.917560 -0.498417
C66   C     C_R   0.753335 0.709949 0.882910 0.563513
O18   O     O_R   0.837290 0.593240 0.915240 -0.523858
O19   O     O_R   0.065320 0.635310 0.931580 -0.526325
C67   C     C_R   0.123547 0.701676 0.907315 0.510874
O20   O     O_R   0.068470 0.828620 0.091850 -0.464452
O21   O     O_R   0.799150 0.057200 0.079350 -0.471447
C68   C     C_R   0.693785 0.061024 0.111481 0.581816
O22   O     O_R   0.585220 0.080180 0.076770 -0.547558
O23   O     O_R   0.627170 0.809480 0.067050 -0.519147
C69   C     C_R   0.696137 0.691056 0.097327 0.537304
O24   O     O_R   0.816200 0.596410 0.076500 -0.510458
O25   O     O_R   0.045770 0.638240 0.081070 -0.519467
C70   C     C_R   0.100017 0.704801 0.109505 0.556597
Cr4   Cr    Cr6+3 0.937880 0.938320 0.007620 1.036512
Cr5   Cr    Cr6+3 0.625560 0.937220 0.994510 1.003011
Cr6   Cr    Cr6+3 0.938080 0.625010 0.001190 0.996926
O26   O     O_3   0.833840 0.833520 0.001110 -0.274177
O27   O     O_3   0.173294 0.044530 0.794317 -0.666115
H33   H     H_    0.246054 0.013474 0.756697 0.342448
O28   O     O_3   0.309355 0.795713 0.842585 -0.675076
H34   H     H_    0.331616 0.758117 0.891632 0.325319
O29   O     O_3   0.158496 0.234064 0.686098 -0.743362
H35   H     H_    0.146503 0.257171 0.634687 0.316155
O30   O     O_3   0.009623 0.139030 0.252973 -0.637894
H36   H     H_    0.030551 0.135288 0.304445 0.358689
O31   O     O_3   0.895624 0.015730 0.346656 -0.708341
H37   H     H_    0.867868 0.016862 0.397012 0.338425
O32   O     O_3   0.922807 0.955890 0.200678 -0.639037
H38   H     H_    0.992789 0.910216 0.238481 0.390014
O33   O     O_3   0.152488 0.277592 0.301174 -0.733073
H39   H     H_    0.162596 0.252895 0.352388 0.304650
C71   C     C_2   0.531632 0.935090 0.651845 0.172240
H40   H     H_    0.455372 0.039497 0.670314 0.138614
O34   O     O_2   0.581707 0.921121 0.592267 -0.489204
C72   C     C_2   0.857852 0.734664 0.637698 0.248005
H41   H     H_    0.824039 0.840834 0.656264 0.137913
O35   O     O_2   0.919216 0.695173 0.580675 -0.496979
O36   O     O_3   0.544043 0.549280 0.710102 -0.722027
H42   H     H_    0.549066 0.470909 0.738380 0.328873

loop_
_geom_bond_atom_site_label_1
_geom_bond_atom_site_label_2
_geom_bond_distance
_ccdc_geom_bond_type
C35   C69   1.448833 S    
C58   C64   1.396177 A    
C56   C60   1.413925 A    
C48   C49   1.398804 A    
O23   C69   1.272153 A    
H15   C28   1.072168 S    
O17   C66   1.295524 A    
O15   Cr4   1.963054 S    
O33   H39   0.991786 S    
Cr4   O26   1.995083 S    
C52   O33   1.374646 S    
O32   H38   0.987990 S    
C26   C27   1.420301 A    
C71   H40   1.083866 S    
O21   C68   1.292496 A    
O4    Cr2   1.968257 S    
C63   H32   1.070808 S    
C42   C43   1.405914 A    
O19   C67   1.273564 A    
O8    Cr1   1.959673 S    
C8    H3    1.101353 S    
C58   C59   1.376640 A    
C31   H17   1.072808 S    
C33   H18   1.075685 S    
H4    C9    1.114338 S    
C12   C13   1.562915 S    
C37   C44   1.441603 A    
C71   O34   1.220449 D    
C16   C20   1.408606 A    
C10   C11   1.546359 S    
O31   H37   0.990743 S    
C53   H26   1.081832 S    
C25   C26   1.412503 A    
O19   Cr6   1.961785 S    
C15   C16   1.423725 A    
C7    C8    1.547717 S    
C50   H24   1.080755 S    
O17   Cr5   1.958074 S    
C66   O18   1.303826 A    
C37   C43   1.425964 A    
C30   H16   1.082076 S    
C8    C12   1.572972 S    
C5    C44   1.466466 S    
C21   C22   1.400868 A    
O6    C3    1.286610 A    
C9    H8    1.104237 S    
C35   C39   1.405912 A    
C49   O32   1.373211 S    
H19   C38   1.083343 S    
C35   C36   1.400988 A    
C40   H20   1.083500 S    
C10   H6    1.111174 S    
C29   O28   1.378648 S    
O21   Cr4   1.959379 S    
C62   H31   1.069361 S    
C28   C29   1.392659 A    
Cr3   O13   2.002849 S    
C1    C34   1.490117 S    
C15   C65   1.471504 S    
C43   H23   1.072926 S    
C61   C62   1.384205 A    
O15   C65   1.281803 A    
C38   C39   1.387882 A    
C27   C33   1.409833 A    
C22   H13   1.082415 S    
O29   H35   0.991632 S    
C36   C40   1.411884 A    
O1    Cr1   2.079165 S    
C5    O11   1.242969 A    
O10   Cr2   1.963588 S    
O27   H33   0.991179 S    
Cr1   O13   1.994893 S    
O1    C3    1.273599 A    
C41   C42   1.385727 A    
C41   H22   1.080008 S    
C52   C53   1.400011 A    
C46   C50   1.416460 A    
C17   C23   1.406368 A    
C19   H12   1.077161 S    
C55   C59   1.394514 A    
C20   H11   1.078435 S    
O12   Cr3   1.957788 S    
C1    O3    1.278706 A    
C2    C12   1.488070 S    
C7    C11   1.563784 S    
C13   H9    1.111014 S    
C40   C41   1.384363 A    
C11   C66   1.488120 S    
C31   C32   1.393846 A    
C47   C54   1.431407 A    
C27   C34   1.420813 A    
C56   C57   1.405685 A    
O16   Cr5   2.073789 S    
O23   Cr5   1.953723 S    
O7    Cr1   2.077824 S    
C7    H1    1.113595 S    
C55   C70   1.442311 S    
O12   C6    1.314785 A    
C38   C44   1.388231 A    
C17   C24   1.407250 A    
O18   Cr6   2.088342 S    
C45   C46   1.405969 A    
C46   C47   1.386010 A    
C60   H28   1.083509 S    
O25   Cr6   1.967621 S    
C22   C23   1.383340 A    
C72   O35   1.220677 D    
Cr6   O26   1.984052 S    
C16   C17   1.421155 A    
C39   H21   1.081351 S    
C69   O24   1.270193 A    
O20   Cr4   2.084230 S    
C60   C61   1.383114 A    
C18   C19   1.367509 A    
C61   H30   1.082561 S    
O25   C70   1.269923 A    
O28   H34   0.991643 S    
C18   C24   1.396585 A    
C20   C21   1.393115 A    
C14   H7    1.117754 S    
C57   C64   1.425456 A    
O14   Cr4   2.081084 S    
O9    Cr2   2.087819 S    
C21   O27   1.372951 S    
O2    Cr1   1.959442 S    
C32   O29   1.374194 S    
C8    C71   1.515838 S    
C3    C24   1.461595 S    
C45   C49   1.421080 A    
Cr2   O13   1.983968 S    
O6    Cr3   1.955481 S    
C4    C64   1.454114 S    
O8    C4    1.315847 A    
O11   Cr3   2.075868 S    
C26   C30   1.405635 A    
C2    O5    1.274191 A    
C45   C68   1.452068 S    
C62   C63   1.390394 A    
C9    C13   1.552768 S    
C57   C63   1.416099 A    
C10   C14   1.536110 S    
C48   O31   1.383893 S    
C25   C67   1.484981 S    
O2    C1    1.278041 A    
C36   C37   1.403528 A    
C9    C11   1.541996 S    
C47   C53   1.418756 A    
O24   Cr6   2.080370 S    
C28   C34   1.405265 A    
C10   H5    1.113273 S    
O22   Cr5   2.076299 S    
C51   C52   1.387168 A    
O4    C2    1.280897 A    
O7    C6    1.239911 A    
O5    Cr3   2.080359 S    
C48   C54   1.386694 A    
C12   C14   1.572534 S    
C7    H2    1.112726 S    
C30   C31   1.385346 A    
C42   O30   1.377890 S    
C32   C33   1.398064 A    
O3    Cr2   2.084299 S    
C25   C29   1.394238 A    
H10   C18   1.075485 S    
O14   C67   1.288223 A    
C4    O9    1.283649 A    
Cr5   O26   2.003465 S    
C55   C56   1.404917 A    
C13   C72   1.509754 S    
O36   H42   0.991159 S    
C6    C54   1.456134 S    
C15   C19   1.390594 A    
O10   C5    1.309896 A    
C59   H29   1.083775 S    
C72   H41   1.085536 S    
C65   O16   1.286984 A    
C50   C51   1.387709 A    
O30   H36   0.990556 S    
O20   C70   1.269426 A    
C51   H25   1.082314 S    
H27   C58   1.082205 S    
C23   H14   1.081471 S    
C14   O36   1.404208 S    
C68   O22   1.291428 A    
