data_mof_unit_68514.cif
_audit_creation_date              2012-12-11T18:55:05-0500
_audit_creation_method            fapswitch 2.2
_symmetry_space_group_name_H-M    P1
_symmetry_Int_Tables_number       1
_space_group_crystal_system       triclinic
_cell_length_a                    8.3379
_cell_length_b                    14.997869
_cell_length_c                    16.371268
_cell_angle_alpha                 110.805082
_cell_angle_beta                  97.48775
_cell_angle_gamma                 81.419576
_cell_volume                      1885.6950461

loop_
_atom_site_label
_atom_site_type_symbol
_atom_type_description
_atom_site_fract_x
_atom_site_fract_y
_atom_site_fract_z
_atom_type_partial_charge
Ba1   Ba    Ba6+2 0.364200 0.465260 0.540910 1.659736
Ba2   Ba    Ba6+2 0.825640 0.534660 0.459080 1.691535
C1    C     C_3   0.213568 0.178188 0.762897 -0.137255
C2    C     C_3   0.222922 0.256277 0.724094 0.372361
C3    C     C_3   0.001971 0.718787 0.731541 0.275239
C4    C     C_3   0.985709 0.767345 0.830981 -0.155283
C5    C     C_3   0.409602 0.746549 0.247162 0.451842
C6    C     C_3   0.422093 0.751876 0.156629 0.010225
C7    C     C_3   0.009460 0.723739 0.237674 0.467960
C8    C     C_3   0.930112 0.822783 0.239124 0.044815
C9    C     C_2   0.302576 0.489266 0.249184 -0.235959
C10   C     C_R   0.891204 0.524563 0.749615 -0.269174
C11   C     C_2   0.482381 0.393374 0.135418 -0.137168
C12   C     C_3   0.727975 0.310337 0.772680 0.357827
C13   C     C_2   0.456551 0.428663 0.220953 0.117081
C14   C     C_2   0.177772 0.499378 0.190241 -0.035573
C15   C     C_3   0.192048 0.448634 0.092518 -0.020739
C16   C     C_3   0.368889 0.423460 0.068476 -0.034108
C17   C     C_2   0.093957 0.501841 0.036427 -0.106870
C18   C     C_2   0.075594 0.460532 0.949043 -0.097831
C19   C     C_R   0.819989 0.557869 0.920079 -0.012778
C20   C     C_R   0.969130 0.506385 0.891899 -0.048380
C21   C     C_R   0.708550 0.593425 0.864622 -0.141763
C22   C     C_R   0.742825 0.576254 0.778572 0.021324
C23   C     C_3   0.718076 0.305811 0.863250 -0.380394
C24   C     C_R   0.006887 0.492145 0.806380 -0.012543
C25   C     C_R   0.859336 0.191753 0.560563 -0.010639
C26   C     C_R   0.068570 0.204898 0.476792 0.015043
C27   C     C_R   0.263193 0.770683 0.489737 -0.253119
C28   C     C_R   0.343901 0.820837 0.453801 -0.027265
C29   C     C_R   0.282537 0.914821 0.460027 -0.148750
C30   C     C_R   0.140643 0.961248 0.504134 -0.014141
C31   C     C_R   0.066720 0.911376 0.547225 -0.004570
C32   C     C_R   0.072088 0.056566 0.508798 0.011748
C33   C     C_R   0.930884 0.098815 0.554807 -0.047444
C34   C     C_3   0.681525 0.193475 0.292491 0.533558
C35   C     C_R   0.866118 0.049607 0.597778 -0.139562
C36   C     C_R   0.935447 0.960874 0.598808 0.135632
C37   C     C_R   0.136757 0.111220 0.468463 -0.147522
C38   C     C_R   0.933900 0.245758 0.525161 -0.258878
C39   C     C_R   0.127531 0.814405 0.537035 0.062769
C40   C     C_3   0.675293 0.083493 0.232561 0.274089
C41   C     C_3   0.440055 0.798825 0.766849 0.460678
C42   C     C_3   0.502424 0.843274 0.864680 0.162475
C43   C     C_3   0.240664 0.191298 0.255975 0.508355
C44   C     C_3   0.188933 0.089843 0.223861 -0.408723
H1    H     H_    0.300597 0.226964 0.668258 0.091580
H2    H     H_    0.795454 0.041942 0.239618 0.038741
H3    H     H_    0.343947 0.754851 0.764052 0.057197
H4    H     H_    0.574873 0.784269 0.883565 0.043857
H5    H     H_    0.360950 0.190898 0.291375 0.101916
H6    H     H_    0.213796 0.058601 0.276883 0.069975
H7    H     H_    0.254963 0.043052 0.166667 0.078814
H8    H     H_    0.058097 0.090909 0.202771 0.122144
H9    H     H_    0.097676 0.275220 0.698167 -0.102834
H10   H     H_    0.166563 0.114975 0.710636 0.073607
H11   H     H_    0.881325 0.698493 0.699046 0.036604
H12   H     H_    0.089730 0.652733 0.717758 0.037902
H13   H     H_    0.987679 0.846145 0.850495 0.150460
H14   H     H_    0.866163 0.756433 0.846701 0.052258
H15   H     H_    0.126472 0.205277 0.814581 0.091881
H16   H     H_    0.797004 0.356019 0.912556 0.073525
H17   H     H_    0.383550 0.673509 0.240223 -0.070683
H18   H     H_    0.307495 0.800114 0.276809 -0.144964
H19   H     H_    0.313701 0.725795 0.112092 0.012336
H20   H     H_    0.422511 0.828429 0.164444 0.035151
H21   H     H_    0.106033 0.698806 0.191814 -0.120882
H22   H     H_    0.064683 0.731498 0.305278 -0.100868
H23   H     H_    0.021549 0.875325 0.261531 -0.004366
H24   H     H_    0.838198 0.846731 0.288026 0.095842
H25   H     H_    0.677568 0.383476 0.773411 0.067428
H26   H     H_    0.590881 0.344947 0.113408 0.081388
H27   H     H_    0.593642 0.631336 0.888214 0.072669
H28   H     H_    0.287264 0.520029 0.318864 0.067450
H29   H     H_    0.918842 0.512255 0.683476 0.067401
H30   H     H_    0.036135 0.573867 0.066388 0.095299
H31   H     H_    0.136444 0.389152 0.919182 0.106996
H32   H     H_    0.880836 0.317788 0.530592 0.063519
H33   H     H_    0.762861 0.080653 0.635738 0.105760
H34   H     H_    0.240596 0.083705 0.430669 0.061022
H35   H     H_    0.857821 0.296406 0.758877 -0.072023
H36   H     H_    0.310785 0.697611 0.483675 0.067009
H37   H     H_    0.349551 0.949736 0.430537 0.063546
H38   H     H_    0.591067 0.326682 0.882004 0.146580
H39   H     H_    0.759089 0.231947 0.863489 0.104636
O1    O     O_2   0.428380 0.595290 0.716080 -0.490221
O2    O     O_3   0.128536 0.256616 0.309740 -0.598838
O3    O     O_3   0.637417 0.241011 0.710460 -0.603155
O4    O     O_2   0.761310 0.404670 0.283870 -0.453339
O5    O     O_3   0.540390 0.428280 0.393140 -0.498410
O6    O     O_3   0.987650 0.584030 0.344390 -0.455589
O7    O     O_3   0.587253 0.253465 0.250434 -0.647516
O8    O     O_3   0.122140 0.620560 0.549160 -0.481387
O9    O     O_3   0.577110 0.640760 0.390430 -0.463501
O10   O     O_2   0.680834 0.813865 0.458042 -0.475607
O11   O     O_3   0.554633 0.769134 0.299497 -0.574439
O12   O     O_3   0.649320 0.571640 0.606850 -0.458960
O13   O     O_3   0.067570 0.379360 0.450830 -0.451318
O14   O     O_2   0.850910 0.734710 0.551660 -0.432696
O15   O     O_3   0.053093 0.784245 0.699608 -0.634629
O16   O     O_2   0.847836 0.483785 0.190688 -0.487265
O17   O     O_3   0.892492 0.658478 0.210075 -0.559497
O18   O     O_3   0.202060 0.415890 0.655600 -0.474511
O19   O     O_2   0.338606 0.511526 0.811650 -0.486362
O20   O     O_3   0.568612 0.743261 0.715905 -0.651853
O21   O     O_3   0.289987 0.335204 0.788604 -0.602606
O22   O     O_2   0.338780 0.265250 0.448290 -0.461429
O23   O     O_3   0.612600 0.359160 0.609560 -0.475825
O24   O     O_2   0.520890 0.186092 0.546862 -0.487639
P1    P     P_3+3 0.592580 0.619730 0.703530 0.959780
P2    P     P_3+3 0.156500 0.273340 0.422460 0.981807
P3    P     P_3+3 0.659157 0.242192 0.605883 0.937362
P4    P     P_3+3 0.597130 0.380190 0.296460 0.996930
P5    P     P_3+3 0.535794 0.762499 0.402097 0.975165
P6    P     P_3+3 0.210066 0.440551 0.767826 0.959645
P7    P     P_3+3 0.038369 0.740088 0.584600 1.003372
P8    P     P_3+3 0.977357 0.554395 0.231438 0.990336
N1    N     N_2   0.644050 0.070945 0.139548 -0.426997
H40   H     H_    0.525803 0.076732 0.113526 0.195135
C45   C     C_3   0.765677 0.089070 0.094070 -0.232146
H41   H     H_    0.716963 0.080848 0.025671 0.114939
H42   H     H_    0.874128 0.035743 0.090937 0.101893
H43   H     H_    0.797440 0.163353 0.126594 0.130482
N2    N     N_2   0.554744 0.037399 0.256144 -0.457832
H44   H     H_    0.507790 0.983319 0.203664 0.186898
C46   C     C_3   0.591999 0.008441 0.332815 -0.284341
H45   H     H_    0.553033 0.936886 0.318471 0.141779
H46   H     H_    0.521554 0.058517 0.386908 0.159081
H47   H     H_    0.724041 0.005438 0.354334 0.092762
N3    N     N_2   0.359843 0.872097 0.731190 -0.431728
H48   H     H_    0.272316 0.920667 0.767461 0.192817
C47   C     C_3   0.450928 0.910317 0.684211 -0.200213
H49   H     H_    0.367317 0.958248 0.655537 0.094342
H50   H     H_    0.508369 0.851497 0.629715 0.137689
H51   H     H_    0.544230 0.953180 0.728905 0.093242
N4    N     N_2   0.365089 0.881640 0.918250 -0.432832
H52   H     H_    0.308866 0.947949 0.918856 0.199195
C48   C     C_3   0.385834 0.870062 0.002948 -0.243781
H53   H     H_    0.274540 0.902276 0.037919 0.108210
H54   H     H_    0.492333 0.904997 0.042467 0.122915
H55   H     H_    0.403779 0.792581 0.994111 0.113322
N5    N     N_3   0.609544 0.917957 0.880636 -0.505245
H56   H     H_    0.694355 0.894617 0.833696 0.171975
H57   H     H_    0.541511 0.980313 0.875148 0.185721
N6    N     N_2   0.249339 0.223246 0.182464 -0.425070
H58   H     H_    0.348492 0.194842 0.147000 0.186300
C49   C     C_3   0.101272 0.233008 0.127846 -0.218255
H59   H     H_    0.122668 0.270306 0.083341 0.094002
H60   H     H_    0.001226 0.276149 0.168313 0.168812
H61   H     H_    0.066130 0.161106 0.086595 0.076440
N7    N     N_3   0.372122 0.147777 0.800193 -0.508663
H62   H     H_    0.408727 0.204445 0.855402 0.211276
H63   H     H_    0.457708 0.131457 0.754196 0.206009
N8    N     N_3   0.114360 0.731120 0.884737 -0.507368
H64   H     H_    0.223737 0.712254 0.855234 0.201448
H65   H     H_    0.082066 0.669363 0.890564 0.175642
N9    N     N_2   0.569626 0.697913 0.118326 -0.369730
H66   H     H_    0.604549 0.721321 0.071970 0.198088
C50   C     C_3   0.573324 0.594830 0.087666 -0.115660
H67   H     H_    0.693649 0.561076 0.063711 0.126590
H68   H     H_    0.477541 0.571191 0.033121 0.073548
H69   H     H_    0.557144 0.570802 0.142309 0.127398
N10   N     N_2   0.850217 0.820211 0.154181 -0.404908
H70   H     H_    0.752241 0.871901 0.158579 0.205890
C51   C     C_3   0.954518 0.814436 0.088029 -0.222542
H71   H     H_    0.032422 0.874134 0.112495 0.093130
H72   H     H_    0.031180 0.744453 0.068668 0.120222
H73   H     H_    0.878426 0.819681 0.028589 0.126398
N11   N     N_3   0.871913 0.925304 0.656638 -0.456946
H74   H     H_    0.748715 0.919624 0.637208 0.177784
H75   H     H_    0.882969 0.974851 0.720413 0.153057
N12   N     N_3   0.847567 0.212735 0.303159 -0.469187
H76   H     H_    0.917207 0.162002 0.326828 0.072781
H77   H     H_    0.854432 0.279273 0.352291 0.178332
N13   N     N_3   0.624086 0.211915 0.378435 -0.463691
H78   H     H_    0.635515 0.282347 0.419286 0.187793
H79   H     H_    0.701662 0.170168 0.408948 0.110257

loop_
_geom_bond_atom_site_label_1
_geom_bond_atom_site_label_2
_ccdc_geom_bond_type
C42   N4    S    
O20   P1    S    
C6    H20   S    
C8    N10   S    
C28   P5    S    
C12   H25   S    
N3    C47   S    
C49   H59   S    
O15   P7    S    
C1    H10   S    
N6    H58   S    
O9    P5    S    
C40   N2    S    
C5    C6    S    
N13   H79   S    
C29   C30   A    
C43   C44   S    
C45   H41   S    
C5    O11   S    
C35   H33   S    
C51   H71   S    
C3    H12   S    
C43   N6    S    
C17   H30   S    
N10   C51   S    
C35   C36   A    
Ba1   Ba2   S    
C47   H51   S    
C41   O20   S    
C28   C29   A    
Ba2   P4    S    
O2    P2    S    
C26   C38   A    
O10   P5    D    
C44   H6    S    
C29   H37   S    
C11   C16   S    
C32   C33   A    
N11   H74   S    
O5    P4    S    
Ba2   O5    S    
C24   P6    S    
N1    H40   S    
C9    C13   S    
N9    H66   S    
C17   C18   D    
Ba2   O12   S    
C45   H42   S    
C14   C15   S    
C23   H38   S    
C21   C22   A    
C50   H68   S    
C7    C8    S    
Ba1   O18   S    
N8    H65   S    
C45   H43   S    
C27   C39   A    
C34   O7    S    
C6    H19   S    
N9    C50   S    
C19   C20   A    
N11   H75   S    
O11   P5    S    
C51   H72   S    
C21   H27   S    
C6    N9    S    
N6    C49   S    
N12   H77   S    
C1    H15   S    
C26   P2    S    
O4    P4    D    
C34   N12   S    
C32   C37   A    
C41   N3    S    
C42   N5    S    
C4    H14   S    
Ba2   O9    S    
C49   H61   S    
C22   P1    S    
N4    C48   S    
O24   P3    D    
Ba1   O12   S    
O14   P7    D    
C41   H3    S    
O1    P1    D    
C26   C37   A    
C25   C33   A    
C2    O21   S    
C48   H55   S    
O23   P3    S    
C10   C24   A    
O8    P7    S    
C30   C32   A    
Ba2   O4    S    
O18   P6    S    
C41   C42   S    
C7    H21   S    
C27   C28   A    
C34   C40   S    
Ba1   P1    S    
O19   P6    D    
C9    C14   D    
C50   H67   S    
C3    O15   S    
C25   C38   A    
N7    H62   S    
C44   H8    S    
C23   H39   S    
C15   C16   S    
C50   H69   S    
C40   H2    S    
C5    H17   S    
N8    H64   S    
C7    O17   S    
O17   P8    S    
C48   H54   S    
Ba1   O22   S    
C18   H31   S    
C47   H50   S    
C18   C20   S    
C25   P3    S    
C51   H73   S    
C11   C13   D    
C2    H9    S    
N5    H57   S    
C39   P7    S    
C1    C2    S    
Ba1   O5    S    
C8    H24   S    
N12   H76   S    
C33   C35   A    
C36   N11   S    
N2    C46   S    
O7    P4    S    
C42   H4    S    
Ba1   O1    S    
C46   H46   S    
O13   P2    S    
C43   O2    S    
C13   P4    S    
O22   P2    D    
C4    H13   S    
Ba2   O8    S    
C40   N1    S    
N4    H52   S    
C9    H28   S    
Ba1   O13   S    
Ba2   O14   S    
C11   H26   S    
C49   H60   S    
C10   C22   A    
C1    N7    S    
C31   C36   A    
C46   H47   S    
C3    H11   S    
O21   P6    S    
O16   P8    D    
C30   C31   A    
C19   C21   A    
N3    H48   S    
C7    H22   S    
C31   C39   A    
C27   H36   S    
N13   H78   S    
C14   P8    S    
C37   H34   S    
O12   P1    S    
C4    N8    S    
C3    C4    S    
C46   H45   S    
C44   H7    S    
C15   C17   S    
O6    P8    S    
C47   H49   S    
C38   H32   S    
C23   H16   S    
N7    H63   S    
C12   C23   S    
Ba2   O6    S    
N1    C45   S    
C5    H18   S    
N10   H70   S    
C48   H53   S    
Ba1   O23   S    
C12   O3    S    
O3    P3    S    
C8    H23   S    
Ba2   O13   S    
C34   N13   S    
Ba1   O8    S    
C20   C24   A    
C10   H29   S    
C43   H5    S    
N5    H56   S    
C12   H35   S    
Ba1   P2    S    
N2    H44   S    
C2    H1    S    
