data_mof_unit_67724.cif
_audit_creation_date              2012-10-26T19:56:19-0400
_audit_creation_method            fapswitch 2.2
_symmetry_space_group_name_H-M    P1
_symmetry_Int_Tables_number       1
_space_group_crystal_system       triclinic
_cell_length_a                    11.366302
_cell_length_b                    10.810839
_cell_length_c                    9.609834
_cell_angle_alpha                 89.856974
_cell_angle_beta                  90.033198
_cell_angle_gamma                 87.922132
_cell_volume                      1180.06891852

loop_
_atom_site_label
_atom_site_type_symbol
_atom_type_description
_atom_site_fract_x
_atom_site_fract_y
_atom_site_fract_z
_atom_type_partial_charge
C1    C     C_R   0.498381 0.260092 0.500515 0.551100
C2    C     C_3   0.467543 0.035675 0.623201 0.097542
C3    C     C_3   0.501673 0.875851 0.494015 0.028819
C4    C     C_3   0.497148 0.123049 0.501693 0.034478
C5    C     C_3   0.577496 0.952215 0.593089 -0.109448
C6    C     C_3   0.422120 0.045831 0.400520 -0.080465
C7    C     C_3   0.470662 0.605349 0.048810 0.180151
C8    C     C_3   0.529875 0.395606 0.951205 0.149975
C9    C     C_3   0.396456 0.530296 0.949125 0.082711
C10   C     C_3   0.605731 0.470800 0.052242 0.137356
C11   C     C_3   0.572682 0.577760 0.947716 0.180451
C12   C     C_R   0.501037 0.739553 0.498815 0.547421
C13   C     C_3   0.427729 0.423458 0.049189 0.143931
C14   C     C_R   0.262768 0.498716 0.499201 0.564150
C15   C     C_R   0.737439 0.504766 0.501008 0.572066
C16   C     C_R   0.120812 0.320759 0.048155 0.071169
C17   C     C_R   0.866576 0.722059 0.939339 0.099580
C18   C     C_R   0.115953 0.397740 0.168103 0.129294
C19   C     C_R   0.878750 0.635051 0.829168 0.052943
C20   C     C_R   0.117655 0.345175 0.301191 0.053489
C21   C     C_R   0.884221 0.675494 0.689657 0.025080
C22   C     C_R   0.137651 0.217644 0.318312 0.027646
C23   C     C_R   0.872221 0.506227 0.503534 0.029072
C24   C     C_R   0.872142 0.802111 0.658850 0.015837
C25   C     C_R   0.138249 0.138617 0.201552 0.026769
C26   C     C_R   0.854954 0.890034 0.767040 0.038589
C27   C     C_R   0.126924 0.190267 0.065450 -0.023832
C28   C     C_R   0.852275 0.849666 0.907914 0.080920
C29   C     C_R   0.937726 0.418291 0.424728 0.058228
C30   C     C_R   0.064170 0.588680 0.576496 0.080113
C31   C     C_2   0.115523 0.108491 0.941356 0.673412
C32   C     C_2   0.829922 0.938161 0.025002 0.602139
C33   C     C_2   0.289107 0.591800 0.887525 0.440853
C34   C     C_R   0.128676 0.500740 0.497213 0.050650
C35   C     C_2   0.698381 0.378142 0.102809 0.557844
C36   C     C_2   0.148631 0.002283 0.223773 0.649474
C37   C     C_2   0.847731 0.024078 0.732956 0.625125
C38   C     C_R   0.938342 0.590494 0.583917 0.008382
C39   C     C_R   0.063096 0.419454 0.414990 -0.016737
C40   C     C_3   0.605409 0.039013 0.469688 0.073858
C41   C     C_3   0.393683 0.960036 0.524282 0.085109
C42   C     C_3   0.532036 0.961636 0.372117 0.101029
Cu1   Cu    Cu3+1 0.500030 0.499990 0.643150 0.995398
Cu2   Cu    Cu3+1 0.499970 0.500010 0.356850 1.039686
H1    H     H_    0.635151 0.908920 0.673320 0.142894
H2    H     H_    0.635514 0.280638 0.835541 0.320472
H3    H     H_    0.647227 0.748676 0.961615 0.225185
H4    H     H_    0.667462 0.671651 0.801267 0.282702
H5    H     H_    0.419917 0.266545 0.163823 0.260414
H6    H     H_    0.345878 0.264413 0.019109 0.208780
H7    H     H_    0.210280 0.363480 0.873733 0.225434
H8    H     H_    0.108046 0.466288 0.907634 0.226244
H9    H     H_    0.780097 0.718740 0.126605 0.232773
H10   H     H_    0.850425 0.587246 0.093912 0.249310
H11   H     H_    0.054533 0.564488 0.088287 0.264199
H12   H     H_    0.362183 0.083110 0.318775 0.144617
H13   H     H_    0.199660 0.556165 0.136409 0.275540
H14   H     H_    0.882271 0.448981 0.772471 0.263622
H15   H     H_    0.928273 0.479182 0.932010 0.267709
H16   H     H_    0.230414 0.211436 0.497522 0.231433
H17   H     H_    0.085634 0.191370 0.517359 0.270599
H18   H     H_    0.795696 0.869979 0.483447 0.259328
H19   H     H_    0.938828 0.908578 0.503982 0.319560
H20   H     H_    0.198839 0.836086 0.149069 0.378543
H21   H     H_    0.928994 0.173051 0.661877 0.330510
H22   H     H_    0.906243 0.237311 0.399842 0.231230
H23   H     H_    0.247898 0.177991 0.829985 0.314701
H24   H     H_    0.897775 0.322483 0.253228 0.259429
H25   H     H_    0.099813 0.693218 0.743594 0.296366
H26   H     H_    0.102978 0.767388 0.590051 0.284855
H27   H     H_    0.574561 0.000181 0.172641 0.260263
H28   H     H_    0.654424 0.881914 0.244274 0.254120
H29   H     H_    0.508753 0.058371 0.825504 0.272438
H30   H     H_    0.379624 0.998228 0.800678 0.250263
H31   H     H_    0.734325 0.160419 0.500087 0.278562
H32   H     H_    0.716946 0.117706 0.334062 0.278832
H33   H     H_    0.229980 0.984514 0.606518 0.317254
H34   H     H_    0.871522 0.990065 0.219926 0.340438
H35   H     H_    0.288508 0.841810 0.620673 0.245792
H36   H     H_    0.355652 0.757058 0.810651 0.322518
H37   H     H_    0.831427 0.258382 0.048587 0.359372
H38   H     H_    0.434538 0.793251 0.033613 0.279612
H39   H     H_    0.362709 0.719124 0.162542 0.273386
H40   H     H_    0.573870 0.211917 0.973928 0.250861
N1    N     N_3   0.500090 0.499970 0.858290 -0.261523
N2    N     N_3   0.866713 0.506218 0.858000 -0.569822
N3    N     N_3   0.157866 0.168232 0.455075 -0.576061
N4    N     N_3   0.878886 0.838562 0.515555 -0.590015
N5    N     N_3   0.876132 0.321912 0.358300 -0.586259
N6    N     N_3   0.127362 0.684982 0.640768 -0.582140
N7    N     N_3   0.569458 0.921095 0.234637 -0.578639
N8    N     N_3   0.433114 0.067939 0.764396 -0.597353
N9    N     N_3   0.720761 0.084471 0.435963 -0.640699
N10   N     N_3   0.277150 0.915676 0.552315 -0.550973
N11   N     N_3   0.499910 0.500030 0.141710 -0.257505
N12   N     N_3   0.442827 0.725575 0.110862 -0.526279
N13   N     N_3   0.557664 0.274190 0.892245 -0.557533
N14   N     N_3   0.614232 0.690515 0.886391 -0.632237
N15   N     N_3   0.362508 0.321375 0.103651 -0.608533
N16   N     N_3   0.123991 0.371511 0.909302 -0.620625
N17   N     N_3   0.858013 0.682342 0.083176 -0.550764
N18   N     N_3   0.115017 0.530088 0.160760 -0.584675
O1    O     O_R   0.500060 0.316850 0.620870 -0.466136
O2    O     O_R   0.177043 0.126063 0.817910 -0.655942
O3    O     O_2   0.754309 0.020808 0.015201 -0.547500
O4    O     O_R   0.893856 0.924398 0.148714 -0.622065
O5    O     O_2   0.237158 0.684015 0.935433 -0.432590
O6    O     O_R   0.284262 0.723059 0.873624 -0.531669
O7    O     O_2   0.678321 0.318529 0.207136 -0.487934
O8    O     O_R   0.789305 0.337284 0.015504 -0.716652
O9    O     O_2   0.102209 0.955493 0.324780 -0.455981
O10   O     O_R   0.210469 0.926812 0.129329 -0.652311
O11   O     O_2   0.758114 0.085688 0.757813 -0.521015
O12   O     O_R   0.499940 0.683150 0.379130 -0.466740
O13   O     O_R   0.943979 0.080580 0.673728 -0.655836
O14   O     O_R   0.500000 0.316860 0.379090 -0.486788
O15   O     O_R   0.500000 0.683140 0.620910 -0.534081
O16   O     O_R   0.319670 0.500010 0.620890 -0.508399
O17   O     O_R   0.680330 0.499990 0.379110 -0.449289
O18   O     O_R   0.319620 0.500010 0.379110 -0.491454
O19   O     O_R   0.680380 0.499990 0.620890 -0.513805
O20   O     O_2   0.049789 0.022554 0.946672 -0.413695

loop_
_geom_bond_atom_site_label_1
_geom_bond_atom_site_label_2
_ccdc_geom_bond_type
C3    C42   S    
C8    C13   S    
H19   N4    S    
H10   N17   S    
C33   O5    D    
C40   N9    S    
C30   N6    S    
C19   N2    S    
C29   N5    S    
C7    C11   S    
C7    N12   S    
H11   N18   S    
H6    N15   S    
H3    N14   S    
C13   N11   S    
C11   N14   S    
H40   N13   S    
C23   C29   A    
C19   C21   A    
C24   C26   A    
C8    N1    S    
H20   O10   S    
C37   O11   D    
Cu2   O18   S    
C2    C41   S    
H33   N10   S    
C30   C38   A    
C42   N7    S    
C18   N18   S    
H30   N8    S    
C9    C13   S    
C17   N17   S    
C3    C12   S    
H17   N3    S    
C9    N1    S    
C21   C38   S    
C4    C40   S    
H9    N17   S    
C14   O16   A    
C6    C41   S    
C36   O10   S    
C10   C35   S    
C1    O14   A    
C1    O1    A    
C35   O7    D    
C16   C27   A    
C15   C23   S    
Cu2   O12   S    
C32   O4    S    
C9    C33   S    
H21   O13   S    
H26   N6    S    
C33   O6    S    
H14   N2    S    
H16   N3    S    
H23   O2    S    
H22   N5    S    
C12   O12   A    
H38   N12   S    
C30   C34   A    
C27   C31   S    
C34   C39   A    
Cu1   N1    S    
C28   C32   S    
H29   N8    S    
H35   N10   S    
C4    C6    S    
H28   N7    S    
C16   N16   S    
Cu1   O16   S    
Cu2   O17   S    
H18   N4    S    
H8    N16   S    
C13   N15   S    
C2    C4    S    
Cu1   Cu2   S    
H13   N18   S    
H32   N9    S    
H5    N15   S    
C41   N10   S    
C29   C39   A    
C36   O9    D    
H24   N5    S    
C22   N3    S    
C2    N8    S    
C24   N4    S    
C35   O8    S    
Cu1   O15   S    
C8    C10   S    
C22   C25   A    
C20   C22   A    
C14   O18   A    
C32   O3    D    
C21   C24   A    
C2    C5    S    
H25   N6    S    
C7    N11   S    
H31   N9    S    
H7    N16   S    
C7    C9    S    
Cu1   O19   S    
C3    C41   S    
C15   O19   A    
C17   C28   A    
H2    N13   S    
C31   O20   D    
C6    H12   S    
C3    C5    S    
C14   C34   S    
C26   C37   S    
C37   O13   S    
C25   C27   A    
C23   C38   A    
H4    N14   S    
H36   O6    S    
C26   C28   A    
H34   O4    S    
C1    C4    S    
C31   O2    S    
C20   C39   S    
H15   N2    S    
Cu2   N11   S    
C5    H1    S    
C10   N11   S    
C11   N1    S    
C8    N13   S    
H39   N12   S    
C40   C42   S    
C17   C19   A    
C15   O17   A    
C18   C20   A    
Cu1   O1    S    
C10   C11   S    
C25   C36   S    
C12   O15   A    
H27   N7    S    
H37   O8    S    
Cu2   O14   S    
C16   C18   A    
C6    C42   S    
C5    C40   S    
