data_mof_unit_61609.cif
_audit_creation_date              2012-12-10T19:33:09-0500
_audit_creation_method            fapswitch 2.2
_symmetry_space_group_name_H-M    P1
_symmetry_Int_Tables_number       1
_space_group_crystal_system       triclinic
_cell_length_a                    27.513454
_cell_length_b                    15.742446
_cell_length_c                    14.933941
_cell_angle_alpha                 89.815671
_cell_angle_beta                  89.124335
_cell_angle_gamma                 89.718652
_cell_volume                      6467.45856408

loop_
_atom_site_label
_atom_site_type_symbol
_atom_type_description
_atom_site_fract_x
_atom_site_fract_y
_atom_site_fract_z
_atom_type_partial_charge
C1    C     C_R   0.499816 0.337574 0.500150 0.941754
C2    C     C_R   0.500069 0.662436 0.499862 0.938730
C3    C     C_R   0.099708 0.510946 0.511900 -0.076356
C4    C     C_R   0.899263 0.452154 0.475449 -0.083087
C5    C     C_R   0.125724 0.469800 0.581180 -0.081814
C6    C     C_R   0.873569 0.493773 0.406551 -0.074477
C7    C     C_R   0.099435 0.425583 0.648873 -0.017244
C8    C     C_R   0.899994 0.530675 0.334494 -0.024775
C9    C     C_R   0.124314 0.564075 0.449847 -0.110053
C10   C     C_R   0.874202 0.401376 0.538832 -0.108488
C11   C     C_R   0.352880 0.505544 0.502656 -0.230189
C12   C     C_R   0.647006 0.487661 0.496879 -0.226891
C13   C     C_R   0.975719 0.419453 0.549221 -0.038191
C14   C     C_R   0.023219 0.541464 0.436529 -0.047874
C15   C     C_R   0.974263 0.518021 0.421431 0.075663
C16   C     C_R   0.024810 0.442603 0.564196 0.088224
C17   C     C_R   0.949923 0.463017 0.482060 0.094265
C18   C     C_R   0.049139 0.498256 0.504030 0.096639
C19   C     C_R   0.952129 0.350354 0.594069 -0.124443
C20   C     C_R   0.046330 0.610837 0.391480 -0.126026
C21   C     C_R   0.900929 0.343505 0.591822 0.180781
C22   C     C_R   0.097193 0.620128 0.395520 0.185585
C23   C     C_R   0.405808 0.501523 0.500696 0.954717
C24   C     C_R   0.594218 0.497613 0.499242 0.964903
C25   C     C_R   0.049373 0.416876 0.641582 -0.212339
C26   C     C_R   0.949983 0.541528 0.342832 -0.207664
C27   C     C_3   0.520259 0.972356 0.574850 -0.080279
C28   C     C_3   0.479102 0.027725 0.425177 -0.078245
C29   C     C_3   0.545632 0.027961 0.503351 0.164372
C30   C     C_3   0.453731 0.972101 0.496670 0.168774
C31   C     C_1   0.499695 0.248903 0.500460 -0.052998
C32   C     C_1   0.499968 0.751123 0.499574 -0.079340
C33   C     C_3   0.474184 0.028675 0.571974 -0.264533
C34   C     C_3   0.525177 0.971400 0.428042 -0.267579
C35   C     C_3   0.499568 0.083114 0.499564 0.016345
C36   C     C_3   0.499796 0.916943 0.500465 0.018722
C37   C     C_1   0.499616 0.173788 0.500316 0.098041
C38   C     C_1   0.499871 0.826250 0.499724 0.091584
C39   C     C_3   0.518069 0.426185 0.969854 0.174019
C40   C     C_3   0.481923 0.573742 0.030155 0.171049
C41   C     C_3   0.545810 0.490110 0.028955 -0.259770
C42   C     C_3   0.454182 0.509817 0.971055 -0.257918
C43   C     C_3   0.472561 0.436156 0.031205 0.178115
C44   C     C_3   0.527431 0.563770 0.968808 0.175672
C45   C     C_R   0.176707 0.477293 0.580736 0.577425
C46   C     C_R   0.822719 0.498481 0.414375 0.596164
C47   C     C_3   0.500027 0.500134 0.089532 -0.092128
C48   C     C_3   0.499966 0.499795 0.910476 -0.093850
C49   C     C_1   0.500076 0.500075 0.189773 0.207892
C50   C     C_1   0.499921 0.499890 0.810230 0.206945
C51   C     C_R   0.175321 0.560492 0.446927 0.601723
C52   C     C_R   0.823290 0.409359 0.544154 0.598702
C53   C     C_R   0.278641 0.578115 0.549121 0.182774
C54   C     C_R   0.718250 0.408536 0.445985 0.182695
C55   C     C_R   0.329493 0.573707 0.547244 0.091931
C56   C     C_R   0.667703 0.418770 0.448918 0.088235
C57   C     C_R   0.325712 0.442745 0.458453 -0.147532
C58   C     C_R   0.676667 0.544671 0.544164 -0.152456
C59   C     C_R   0.274800 0.447668 0.461025 0.160783
C60   C     C_R   0.727387 0.533735 0.540610 0.155969
C61   C     C_R   0.251733 0.514842 0.506778 0.136332
C62   C     C_R   0.747666 0.466338 0.490953 0.135511
H1    H     H_    0.545879 0.946554 0.369258 0.201789
H2    H     H_    0.453480 0.053531 0.630750 0.201270
H3    H     H_    0.583627 0.481995 0.052479 0.203385
H4    H     H_    0.416364 0.517930 0.947535 0.203932
H5    H     H_    0.029880 0.388995 0.697603 0.171025
H6    H     H_    0.970140 0.565397 0.285477 0.182390
N1    N     N_R   0.199891 0.517838 0.511701 -0.342032
N2    N     N_R   0.799256 0.458010 0.483217 -0.344739
N3    N     N_1   0.500020 0.500000 0.268010 -0.076461
N4    N     N_1   0.499980 0.500000 0.731990 -0.076712
O1    O     O_R   0.500000 0.376780 0.574460 -0.615904
O2    O     O_R   0.500000 0.623220 0.425540 -0.609910
O3    O     O_R   0.500010 0.376780 0.425520 -0.586192
O4    O     O_R   0.499990 0.623220 0.574480 -0.590331
O5    O     O_R   0.428750 0.500010 0.574460 -0.593994
O6    O     O_R   0.571250 0.499990 0.425540 -0.593221
O7    O     O_R   0.428760 0.500020 0.425520 -0.607537
O8    O     O_R   0.571240 0.499980 0.574480 -0.608691
O9    O     O_2   0.203453 0.443739 0.647065 -0.500613
O10   O     O_2   0.796790 0.546653 0.357301 -0.498307
O11   O     O_2   0.797797 0.373053 0.611688 -0.484776
O12   O     O_2   0.200575 0.595863 0.378509 -0.482003
Zn1   Zn    Zn3+2 0.499990 0.500000 0.599450 1.058557
Zn2   Zn    Zn3+2 0.500010 0.500000 0.400550 1.062746
C63   C     C_2   0.350349 0.370880 0.412020 0.992081
O13   O     O_2   0.379685 0.326857 0.452048 -0.622501
O14   O     O_R   0.340548 0.354411 0.322183 -0.733904
H7    H     H_    0.359839 0.304268 0.297910 0.368404
C64   C     C_2   0.654727 0.616973 0.594276 0.994501
O15   O     O_2   0.665123 0.628752 0.672550 -0.549527
O16   O     O_R   0.621401 0.670635 0.552221 -0.804331
H8    H     H_    0.608478 0.716834 0.593442 0.368239
C65   C     C_2   0.543193 0.942211 0.659746 0.982802
O17   O     O_2   0.557303 0.994159 0.714006 -0.556130
O18   O     O_R   0.548277 0.855307 0.676623 -0.795782
H9    H     H_    0.564307 0.843165 0.736013 0.373161
C66   C     C_2   0.456083 0.057995 0.340399 0.985118
O19   O     O_2   0.442240 0.006131 0.285808 -0.559935
O20   O     O_R   0.450539 0.144919 0.324084 -0.775316
H10   H     H_    0.434462 0.157146 0.264755 0.366922
I1    I     I_    0.548174 0.309122 0.922084 -0.168767
I2    I     I_    0.451822 0.690804 0.077940 -0.169421
I3    I     I_    0.572298 0.664257 0.918695 -0.172574
I4    I     I_    0.427698 0.335682 0.081376 -0.204461
I5    I     I_    0.231186 0.351237 0.402058 -0.117092
I6    I     I_    0.775083 0.621572 0.603456 -0.114925
C67   C     C_2   0.122057 0.384393 0.727059 1.027672
O21   O     O_2   0.112969 0.410686 0.802446 -0.569976
O22   O     O_R   0.151771 0.312961 0.714738 -0.721503
H11   H     H_    0.164505 0.289643 0.773275 0.369764
C68   C     C_2   0.877916 0.553045 0.247421 1.024342
O23   O     O_2   0.890606 0.617509 0.207723 -0.572998
O24   O     O_R   0.844267 0.498415 0.208818 -0.731720
H12   H     H_    0.832281 0.520089 0.149043 0.371514
I7    I     I_    0.622937 0.326657 0.384699 -0.202320
I8    I     I_    0.370922 0.672673 0.607638 -0.196596
I9    I     I_    0.752228 0.306846 0.373252 -0.119314
I10   I     I_    0.240643 0.679165 0.615661 -0.132237
I11   I     I_    0.866378 0.233516 0.650733 -0.033450
I12   I     I_    0.130153 0.731851 0.337037 -0.047017
C69   C     C_2   0.980949 0.277639 0.628881 0.930470
O25   O     O_2   0.974178 0.251578 0.705274 -0.564127
O26   O     O_R   0.017270 0.241218 0.574692 -0.755561
H13   H     H_    0.035151 0.193392 0.605937 0.372056
C70   C     C_2   0.017294 0.681473 0.352992 0.942746
O27   O     O_2   0.986349 0.717066 0.399247 -0.560248
O28   O     O_R   0.024331 0.705552 0.263533 -0.745889
H14   H     H_    0.001921 0.753627 0.245139 0.378516
I13   I     I_    0.618592 0.073812 0.506914 -0.156790
I14   I     I_    0.380752 0.926405 0.493015 -0.152063

loop_
_geom_bond_atom_site_label_1
_geom_bond_atom_site_label_2
_ccdc_geom_bond_type
C40   C47   S    
C63   O13   D    
O16   H8    S    
C27   C29   S    
C8    C26   A    
C56   I7    S    
C14   C18   A    
C27   C65   S    
C65   O17   D    
C9    C51   A    
C10   C52   A    
N4    Zn1   S    
C53   I10   S    
C11   C55   A    
C69   O25   D    
C39   C41   S    
C44   I3    S    
C27   C33   S    
C19   C69   S    
O20   H10   S    
C6    C8    A    
C2    C32   S    
C35   C37   S    
C68   O23   D    
C67   O22   S    
C9    C22   A    
C69   O26   S    
C64   O16   S    
C58   C60   A    
O24   H12   S    
O18   H9    S    
C1    C31   S    
C62   N2    S    
C3    C18   A    
C60   C62   A    
C11   C23   S    
C50   N4    T    
C46   O10   S    
C53   C61   A    
C24   O8    A    
O22   H11   S    
C28   C35   S    
C25   H5    S    
C32   C38   T    
C58   C64   S    
C2    O2    A    
C12   C58   A    
O6    Zn2   S    
C40   C42   S    
C28   C34   S    
C54   I9    S    
C22   I12   S    
C53   C55   A    
C10   C21   A    
C54   C56   A    
C59   C61   A    
C13   C19   A    
C45   N1    A    
C1    O3    A    
C14   C20   A    
C52   N2    A    
C20   C70   S    
C4    C6    A    
C64   O15   D    
C5    C7    A    
C15   C26   A    
C41   H3    S    
C54   C62   A    
C5    C45   A    
C29   C34   S    
O2    Zn2   S    
C31   C37   T    
C43   I4    S    
C52   O11   S    
C70   O28   S    
O8    Zn1   S    
C3    C9    A    
C40   I2    S    
N3    Zn2   S    
O3    Zn2   S    
C66   O19   D    
C41   C47   S    
C42   C48   S    
C23   O5    A    
O1    Zn1   S    
C12   C56   A    
C8    C68   S    
C4    C17   A    
C28   C66   S    
C24   O6    A    
C66   O20   S    
C20   C22   A    
C63   O14   S    
O26   H13   S    
C41   C44   S    
C42   C43   S    
C4    C10   A    
C70   O27   D    
C2    O4    A    
O28   H14   S    
C61   N1    S    
C16   C25   A    
C15   C17   A    
C12   C24   S    
C6    C46   A    
C30   C33   S    
C19   C21   A    
C45   O9    S    
C3    C5    A    
C60   I6    S    
C39   C43   S    
C65   O18   S    
C39   I1    S    
C30   C36   S    
C27   C36   S    
C47   C49   S    
C29   C35   S    
C7    C25   A    
C13   C17   A    
C1    O1    A    
C28   C30   S    
C26   H6    S    
C67   O21   D    
C36   C38   S    
C29   I13   S    
C33   H2    S    
C30   I14   S    
C51   O12   S    
C48   C50   S    
C34   H1    S    
C33   C35   S    
C34   C36   S    
C21   I11   S    
C59   I5    S    
C46   N2    A    
C57   C59   A    
O5    Zn1   S    
C57   C63   S    
C40   C44   S    
C16   C18   A    
C49   N3    T    
C13   C16   A    
C42   H4    S    
C14   C15   A    
C7    C67   S    
C51   N1    A    
C23   O7    A    
O14   H7    S    
C11   C57   A    
C43   C47   S    
O4    Zn1   S    
O7    Zn2   S    
C44   C48   S    
C39   C48   S    
C68   O24   S    
C55   I8    S    
