data_mof_unit_17434.cif
_audit_creation_date              2012-10-26T18:51:47-0400
_audit_creation_method            fapswitch 2.2
_symmetry_space_group_name_H-M    P1
_symmetry_Int_Tables_number       1
_space_group_crystal_system       triclinic
_cell_length_a                    11.700203
_cell_length_b                    14.636108
_cell_length_c                    14.805835
_cell_angle_alpha                 64.926145
_cell_angle_beta                  103.610243
_cell_angle_gamma                 102.602988
_cell_volume                      2211.70641133

loop_
_atom_site_label
_atom_site_type_symbol
_atom_type_description
_atom_site_fract_x
_atom_site_fract_y
_atom_site_fract_z
_atom_type_partial_charge
C1    C     C_R   0.480369 0.119667 0.312412 0.552483
C2    C     C_R   0.572996 0.601218 0.097051 0.087922
C3    C     C_R   0.719510 0.292487 0.651797 0.265614
C4    C     C_R   0.284913 0.709036 0.344269 0.247789
C5    C     C_R   0.671877 0.204473 0.632637 0.066337
C6    C     C_R   0.327773 0.795004 0.367651 0.054037
C7    C     C_R   0.517080 0.286886 0.511133 0.045700
C8    C     C_R   0.484897 0.714398 0.487518 0.069078
C9    C     C_R   0.547965 0.372133 0.538079 -0.043707
C10   C     C_R   0.454483 0.628821 0.461179 -0.039541
C11   C     C_R   0.656973 0.378687 0.603841 0.038930
C12   C     C_R   0.523056 0.880013 0.687509 0.541900
C13   C     C_R   0.344172 0.620933 0.397159 0.037545
C14   C     C_R   0.475785 0.452249 0.498274 -0.000059
C15   C     C_R   0.526073 0.548145 0.502939 0.007437
C16   C     C_R   0.284103 0.000246 0.500091 0.559978
C17   C     C_R   0.715944 0.999607 0.500201 0.560092
C18   C     C_R   0.645783 0.559411 0.550430 0.072743
C19   C     C_R   0.354179 0.438812 0.456490 0.081374
C20   C     C_R   0.701585 0.472824 0.614010 0.153404
C21   C     C_R   0.294797 0.523961 0.394669 0.159986
C22   C     C_1   0.162625 0.000495 0.500514 0.015637
C23   C     C_R   0.456550 0.312493 0.997443 0.010200
C24   C     C_1   0.837540 0.999175 0.500370 0.012535
C25   C     C_1   0.060109 0.000151 0.500672 0.001007
C26   C     C_1   0.940155 0.999492 0.500584 -0.002203
C27   C     C_R   0.470660 0.185319 0.204615 -0.026281
C28   C     C_R   0.541208 0.811182 0.794484 -0.047083
C29   C     C_R   0.415991 0.206052 0.029401 0.122976
C30   C     C_R   0.580986 0.778547 0.972368 0.111936
C31   C     C_R   0.428648 0.143955 0.131932 -0.090087
C32   C     C_R   0.563120 0.846461 0.871630 -0.106662
C33   C     C_R   0.500030 0.289842 0.174386 -0.085300
C34   C     C_R   0.562417 0.672002 0.996574 0.033008
C35   C     C_R   0.540264 0.708189 0.818701 -0.115787
C36   C     C_R   0.498011 0.354657 0.071864 -0.002139
C37   C     C_R   0.537200 0.635614 0.917450 -0.006481
C38   C     C_3   0.323257 0.562965 0.735664 0.001165
C39   C     C_3   0.254293 0.508653 0.666555 -0.252384
C40   C     C_3   0.144904 0.558145 0.601263 -0.461173
C41   C     C_3   0.706371 0.462855 0.277858 0.010728
C42   C     C_3   0.801038 0.553691 0.277989 -0.239141
C43   C     C_3   0.856837 0.542972 0.385427 -0.435094
C44   C     C_3   0.918951 0.274070 0.687136 0.004439
C45   C     C_R   0.530816 0.461208 0.043460 0.013308
C46   C     C_3   0.964590 0.174995 0.764883 -0.262728
C47   C     C_3   0.055992 0.145792 0.727049 -0.440769
C48   C     C_3   0.192678 0.776475 0.180133 0.026455
C49   C     C_3   0.074756 0.771201 0.109773 -0.243019
C50   C     C_3   0.082681 0.847106 0.001466 -0.459428
C51   C     C_R   0.509961 0.528365 0.940513 -0.021490
C52   C     C_R   0.466305 0.484447 0.866666 0.271672
C53   C     C_R   0.585606 0.500974 0.117398 0.268784
C54   C     C_R   0.454963 0.378841 0.895320 0.151811
Cu1   Cu    Cu3+1 0.469550 0.918260 0.475690 0.969295
Cu2   Cu    Cu3+1 0.530450 0.081740 0.524310 0.966511
H1    H     H_    0.547463 0.687818 0.758981 0.205854
H2    H     H_    0.275326 0.541973 0.800185 0.132116
H3    H     H_    0.312261 0.510836 0.615961 0.210819
H4    H     H_    0.226431 0.427609 0.713456 0.183635
H5    H     H_    0.086924 0.560339 0.649515 0.192462
H6    H     H_    0.094329 0.513608 0.556266 0.167244
H7    H     H_    0.171695 0.636970 0.548382 0.170936
H8    H     H_    0.742259 0.391990 0.333673 0.168369
H9    H     H_    0.625541 0.462996 0.304653 0.140596
H10   H     H_    0.871780 0.558866 0.236821 0.218508
H11   H     H_    0.761032 0.625490 0.238808 0.202314
H12   H     H_    0.522026 0.320138 0.232247 0.164350
H13   H     H_    0.786967 0.534593 0.428524 0.170022
H14   H     H_    0.921133 0.611665 0.383488 0.203993
H15   H     H_    0.904512 0.475152 0.424380 0.161317
H16   H     H_    0.992098 0.337797 0.683027 0.170944
H17   H     H_    0.896814 0.272561 0.610053 0.111182
H18   H     H_    0.005600 0.184522 0.836670 0.208758
H19   H     H_    0.889996 0.111911 0.781234 0.166112
H20   H     H_    0.017105 0.136593 0.654836 0.168329
H21   H     H_    0.084747 0.072371 0.783707 0.179369
H22   H     H_    0.134617 0.205304 0.715569 0.213909
H23   H     H_    0.573148 0.927341 0.853697 0.168637
H24   H     H_    0.261511 0.755057 0.154649 0.189280
H25   H     H_    0.218494 0.856299 0.174551 0.128811
H26   H     H_    0.049540 0.693160 0.110625 0.204472
H27   H     H_    0.004163 0.788056 0.137050 0.194315
H28   H     H_    0.102633 0.926126 0.998059 0.181305
H29   H     H_    0.996501 0.839688 0.952235 0.161366
H30   H     H_    0.153046 0.832076 0.972553 0.176589
H31   H     H_    0.398715 0.063044 0.155014 0.156537
H32   H     H_    0.554275 0.715545 0.549692 0.176284
H33   H     H_    0.446849 0.286125 0.449245 0.168182
H34   H     H_    0.279885 0.860160 0.332583 0.135682
H35   H     H_    0.715579 0.137112 0.670925 0.130032
H36   H     H_    0.325220 0.646508 0.692869 0.169457
I1    I     I_    0.471669 0.331928 0.781319 -0.254263
I2    I     I_    0.477777 0.616521 0.195209 -0.404120
I3    I     I_    0.760699 0.702122 0.499612 -0.359146
I4    I     I_    0.246095 0.293664 0.515937 -0.376310
I5    I     I_    0.304702 0.128450 0.940430 -0.417585
I6    I     I_    0.660339 0.847950 0.077077 -0.328030
I7    I     I_    0.846473 0.492422 0.726797 -0.268017
I8    I     I_    0.130437 0.495786 0.302753 -0.312188
N1    N     N_R   0.576230 0.204580 0.560790 -0.265511
N2    N     N_R   0.423770 0.795420 0.439210 -0.268357
O1    O     O_R   0.459870 0.022090 0.338120 -0.501644
O2    O     O_3   0.683039 0.455457 0.182995 -0.561151
O3    O     O_3   0.824033 0.292093 0.719415 -0.530186
O4    O     O_3   0.178100 0.708426 0.279921 -0.561482
O5    O     O_R   0.540130 0.977910 0.661880 -0.497625
O6    O     O_R   0.511290 0.160150 0.379180 -0.512224
O7    O     O_R   0.488710 0.839850 0.620820 -0.515753
O8    O     O_R   0.311490 0.930960 0.479480 -0.509212
O9    O     O_R   0.688510 0.069040 0.520520 -0.516545
O10   O     O_R   0.362910 0.069020 0.520540 -0.463262
O11   O     O_R   0.637090 0.930980 0.479460 -0.464295
O12   O     O_3   0.442396 0.542555 0.764354 -0.578443

loop_
_geom_bond_atom_site_label_1
_geom_bond_atom_site_label_2
_ccdc_geom_bond_type
C15   C18   A    
Cu1   Cu2   S    
Cu1   O1    S    
C34   C37   A    
C41   C42   S    
C16   O8    A    
C44   O3    S    
C3    O3    S    
Cu1   N2    S    
C40   H7    S    
C12   C28   S    
C23   C29   A    
C35   C37   A    
C24   C26   T    
Cu2   N1    S    
C10   C15   A    
C38   C39   S    
C38   O12   S    
C45   C51   A    
C53   O2    S    
C7    H33   S    
C38   H36   S    
C33   C36   A    
C40   H6    S    
C48   H25   S    
C4    C13   A    
Cu2   O6    S    
C54   I1    S    
C50   H29   S    
C38   H2    S    
C48   O4    S    
C28   C35   A    
C52   C54   A    
C22   C25   T    
C43   H15   S    
C44   H16   S    
C1    O1    A    
Cu2   O9    S    
C2    C34   A    
C45   C53   A    
C43   H13   S    
Cu1   O7    S    
C18   I3    S    
C17   O9    A    
C12   O7    A    
C44   C46   S    
C5    N1    A    
C11   C20   A    
C17   C24   S    
C31   H31   S    
C30   C34   A    
C27   C31   A    
C51   C52   A    
C28   C32   A    
C4    C6    A    
C39   C40   S    
C21   I8    S    
C41   H9    S    
Cu1   O11   S    
C25   C26   S    
C6    H34   S    
C4    O4    S    
C2    C53   A    
C27   C33   A    
C40   H5    S    
C8    H32   S    
C49   H26   S    
C9    C14   A    
Cu2   O5    S    
C2    I2    S    
C39   H3    S    
C13   C21   A    
C36   C45   A    
C5    H35   S    
C9    C11   A    
C17   O11   A    
C48   C49   S    
C23   C36   A    
C43   H14   S    
Cu1   O8    S    
C42   H11   S    
C42   C43   S    
C47   H21   S    
C46   H18   S    
C16   O10   A    
C23   C54   A    
C42   H10   S    
C46   H19   S    
C7    C9    A    
C46   C47   S    
C16   C22   S    
C19   C21   A    
C14   C19   A    
C3    C5    A    
C10   C13   A    
C47   H20   S    
C12   O5    A    
C52   O12   S    
C30   I6    S    
C47   H22   S    
C41   O2    S    
C29   I5    S    
C35   H1    S    
C49   H27   S    
C29   C31   A    
C32   H23   S    
C30   C32   A    
C48   H24   S    
C20   I7    S    
C37   C51   A    
C39   H4    S    
C50   H28   S    
C18   C20   A    
C6    N2    A    
C44   H17   S    
C3    C11   A    
C50   H30   S    
C1    O6    A    
C8    C10   A    
C49   C50   S    
C7    N1    A    
C1    C27   S    
C14   C15   A    
C41   H8    S    
C8    N2    A    
Cu2   O10   S    
C19   I4    S    
C33   H12   S    
