data_mof_unit_66023.cif
_audit_creation_date              2012-12-10T17:04:15-0500
_audit_creation_method            fapswitch 2.2
_symmetry_space_group_name_H-M    P1
_symmetry_Int_Tables_number       1
_space_group_crystal_system       triclinic
_cell_length_a                    15.164623
_cell_length_b                    15.163373
_cell_length_c                    16.021189
_cell_angle_alpha                 89.276852
_cell_angle_beta                  90.383491
_cell_angle_gamma                 89.81528
_cell_volume                      3683.6256017

loop_
_atom_site_label
_atom_site_type_symbol
_atom_type_description
_atom_site_fract_x
_atom_site_fract_y
_atom_site_fract_z
_atom_type_partial_charge
C1    C     C_R   0.260055 0.485717 0.488543 0.530136
C2    C     C_R   0.980056 0.498919 0.462964 -0.089471
C3    C     C_R   0.018336 0.507743 0.543980 -0.148927
C4    C     C_R   0.739596 0.514681 0.513035 0.591818
C5    C     C_R   0.111113 0.501667 0.553348 -0.085902
C6    C     C_R   0.124250 0.471666 0.404373 0.389839
C7    C     C_R   0.033735 0.480153 0.394270 0.478253
C8    C     C_R   0.513134 0.164157 0.524949 0.038314
C9    C     C_R   0.483439 0.835679 0.480932 0.028374
C10   C     C_R   0.481669 0.967725 0.395424 -0.084144
C11   C     C_R   0.478079 0.876489 0.401522 -0.045864
C12   C     C_1   0.474978 0.515728 0.886394 0.042537
C13   C     C_R   0.492523 0.886315 0.554145 -0.033072
C14   C     C_R   0.504125 0.979279 0.546831 -0.085273
C15   C     C_R   0.494445 0.019162 0.466258 0.006307
C16   C     C_R   0.512543 0.259980 0.514267 0.573854
C17   C     C_R   0.497817 0.110718 0.456326 0.320586
C18   C     C_R   0.528370 0.126245 0.603818 0.311193
C19   C     C_R   0.525699 0.034684 0.615560 -0.032889
C20   C     C_R   0.486900 0.739555 0.486445 0.497018
C21   C     C_R   0.512705 0.488810 0.277485 0.520582
C22   C     C_R   0.487280 0.510999 0.722677 0.505374
C23   C     C_1   0.523233 0.482226 0.113655 0.074616
C24   C     C_1   0.518067 0.484786 0.188501 0.048711
C25   C     C_2   0.529802 0.479825 0.024211 0.406273
C26   C     C_2   0.467865 0.517823 0.975777 0.352357
C27   C     C_R   0.555267 0.001336 0.698343 0.096401
C28   C     C_R   0.640199 0.965392 0.708199 -0.068535
C29   C     C_R   0.669222 0.935942 0.786792 -0.094447
C30   C     C_R   0.614167 0.943318 0.856013 -0.084215
C31   C     C_R   0.530349 0.981001 0.846936 -0.088880
C32   C     C_R   0.501177 0.010770 0.768515 -0.027321
C33   C     C_R   0.466551 0.825217 0.323693 0.040617
C34   C     C_1   0.480962 0.513651 0.811614 0.014154
C35   C     C_R   0.527072 0.834692 0.258143 -0.070506
C36   C     C_R   0.517805 0.784852 0.185774 -0.096972
C37   C     C_R   0.448009 0.725513 0.178111 -0.091662
C38   C     C_R   0.387012 0.716249 0.242585 -0.095033
C39   C     C_R   0.395851 0.766131 0.314964 -0.075922
C40   C     C_R   0.482673 0.841096 0.636421 0.048319
C41   C     C_R   0.403431 0.849432 0.680535 -0.080850
C42   C     C_R   0.392286 0.804742 0.756591 -0.108804
C43   C     C_R   0.459764 0.751004 0.788701 -0.089113
C44   C     C_R   0.538237 0.741177 0.744448 -0.090883
C45   C     C_R   0.163586 0.483842 0.482674 -0.053335
C46   C     C_R   0.549550 0.785434 0.668202 -0.070780
C47   C     C_R   0.154428 0.514772 0.635777 0.138854
C48   C     C_R   0.164873 0.600294 0.667131 0.011177
C49   C     C_R   0.209050 0.613071 0.742878 -0.064678
C50   C     C_R   0.243142 0.540789 0.787590 -0.065884
C51   C     C_R   0.233419 0.455602 0.756489 -0.086517
C52   C     C_R   0.189296 0.442473 0.680724 -0.045207
C53   C     C_R   0.834765 0.519599 0.521679 -0.029549
C54   C     C_R   0.962110 0.521255 0.612934 0.412135
C55   C     C_R   0.871581 0.526672 0.601404 0.366361
C56   C     C_R   0.888358 0.507016 0.452446 0.347832
F1    F     F_    0.397009 0.558714 0.009954 -0.672828
F2    F     F_    0.546255 0.178632 0.670148 -0.595191
F3    F     F_    0.600467 0.438748 0.989850 -0.593702
F4    F     F_    0.174266 0.456029 0.336051 -0.549648
F5    F     F_    0.992651 0.525928 0.692558 -0.566041
F6    F     F_    0.999128 0.470162 0.316551 -0.480613
F7    F     F_    0.819138 0.538055 0.668909 -0.556414
F8    F     F_    0.850110 0.497901 0.376020 -0.524782
F9    F     F_    0.487522 0.148109 0.379148 -0.605352
H1    H     H_    0.474999 0.998533 0.334233 0.193802
H2    H     H_    0.332895 0.670358 0.236504 0.155666
H3    H     H_    0.347878 0.758491 0.364288 0.113376
H4    H     H_    0.350633 0.890723 0.656086 0.111375
H5    H     H_    0.331380 0.811878 0.790697 0.113280
H6    H     H_    0.451072 0.716688 0.847694 0.129277
H7    H     H_    0.590184 0.699034 0.769106 0.131371
H8    H     H_    0.610402 0.777018 0.634167 0.105785
H9    H     H_    0.139365 0.656771 0.632550 0.112717
H10   H     H_    0.217100 0.679007 0.766783 0.109591
H11   H     H_    0.277399 0.550842 0.846158 0.158889
H12   H     H_    0.683342 0.959460 0.654944 0.118711
H13   H     H_    0.260408 0.399792 0.790944 0.131084
H14   H     H_    0.182720 0.376327 0.656787 0.111134
H15   H     H_    0.734303 0.907243 0.793992 0.134376
H16   H     H_    0.636590 0.920186 0.916736 0.128391
H17   H     H_    0.487994 0.987155 0.900663 0.125226
H18   H     H_    0.436195 0.040025 0.762123 0.125512
H19   H     H_    0.582036 0.879739 0.263593 0.127711
H20   H     H_    0.564953 0.791990 0.135739 0.126416
H21   H     H_    0.441171 0.686809 0.122187 0.174633
O1    O     O_3   0.500000 0.500000 0.500000 -0.488428
O2    O     O_R   0.461330 0.435620 0.316920 -0.497456
O3    O     O_R   0.434750 0.558200 0.677930 -0.550225
O4    O     O_R   0.559650 0.545720 0.316320 -0.522278
O5    O     O_R   0.544270 0.460460 0.688830 -0.485106
O6    O     O_R   0.559890 0.307360 0.561630 -0.483878
O7    O     O_R   0.434610 0.697530 0.534530 -0.540563
O8    O     O_R   0.307380 0.433810 0.444990 -0.472118
O9    O     O_R   0.698130 0.561300 0.458860 -0.496560
O10   O     O_R   0.296270 0.542620 0.535390 -0.564987
O11   O     O_R   0.698230 0.462280 0.560770 -0.493331
O12   O     O_R   0.461480 0.296280 0.460320 -0.487455
O13   O     O_R   0.544020 0.698820 0.443520 -0.535519
Zn1   Zn    Zn3+2 0.574310 0.433680 0.576480 1.053246
Zn2   Zn    Zn3+2 0.433700 0.417860 0.431740 1.042374
Zn3   Zn    Zn3+2 0.574160 0.575160 0.430870 0.997143
Zn4   Zn    Zn3+2 0.417840 0.573310 0.560900 0.924035

loop_
_geom_bond_atom_site_label_1
_geom_bond_atom_site_label_2
_ccdc_geom_bond_type
C20   O7    A    
C40   C41   A    
C6    C45   A    
C4    C53   S    
C41   C42   A    
C2    C7    A    
C16   O12   A    
O7    Zn4   S    
O2    Zn2   S    
C40   C46   A    
C5    C47   S    
C33   C39   A    
C31   H17   S    
C36   C37   A    
C10   C15   A    
C30   C31   A    
C3    C54   A    
C4    O9    A    
C42   H5    S    
C18   C19   A    
C39   H3    S    
C9    C13   A    
O4    Zn3   S    
C13   C40   S    
O1    Zn2   S    
C18   F2    S    
C31   C32   A    
O8    Zn2   S    
C1    O8    A    
C55   F7    S    
C23   C24   T    
C56   F8    S    
O5    Zn1   S    
C29   C30   A    
C19   C27   S    
O9    Zn3   S    
C10   H1    S    
C21   O2    A    
C8    C16   S    
C13   C14   A    
O3    Zn4   S    
C48   H9    S    
C44   C46   A    
C21   O4    A    
C53   C55   A    
C22   C34   S    
C51   C52   A    
C6    F4    S    
C37   H21   S    
C11   C33   S    
C25   C26   D    
C5    C45   A    
C8    C18   A    
C12   C26   S    
C35   C36   A    
C43   C44   A    
C7    F6    S    
C37   C38   A    
C50   H11   S    
O1    Zn3   S    
C9    C20   S    
C47   C48   A    
C22   O5    A    
C49   H10   S    
C50   C51   A    
C28   H12   S    
C9    C11   A    
C47   C52   A    
O1    Zn4   S    
C48   C49   A    
C16   O6    A    
C21   C24   S    
C42   C43   A    
C12   C34   T    
C52   H14   S    
O11   Zn1   S    
O6    Zn1   S    
C41   H4    S    
O1    Zn1   S    
C53   C56   A    
C15   C17   A    
C32   H18   S    
C54   C55   A    
C28   C29   A    
C43   H6    S    
C27   C32   A    
C14   C19   A    
C3    C5    A    
C35   H19   S    
C6    C7    A    
C54   F5    S    
C36   H20   S    
O12   Zn2   S    
C17   F9    S    
C8    C17   A    
C30   H16   S    
C2    C3    A    
C51   H13   S    
C2    C56   A    
C1    C45   S    
C38   C39   A    
C20   O13   A    
C1    O10   A    
C33   C35   A    
C22   O3    A    
C44   H7    S    
C23   C25   S    
C26   F1    S    
C10   C11   A    
O13   Zn3   S    
C38   H2    S    
C49   C50   A    
O10   Zn4   S    
C27   C28   A    
C14   C15   A    
C25   F3    S    
C4    O11   A    
C29   H15   S    
C46   H8    S    
