data_mof_unit_60220.cif
_audit_creation_date              2012-10-26T18:11:57-0400
_audit_creation_method            fapswitch 2.2
_symmetry_space_group_name_H-M    P1
_symmetry_Int_Tables_number       1
_space_group_crystal_system       triclinic
_cell_length_a                    18.875411
_cell_length_b                    18.744646
_cell_length_c                    18.805061
_cell_angle_alpha                 109.193525
_cell_angle_beta                  109.546283
_cell_angle_gamma                 109.334061
_cell_volume                      5143.17520605

loop_
_atom_site_label
_atom_site_type_symbol
_atom_type_description
_atom_site_fract_x
_atom_site_fract_y
_atom_site_fract_z
_atom_type_partial_charge
C1    C     C_R   0.380277 0.499011 0.381376 0.514360
C2    C     C_R   0.312666 0.498339 0.314553 -0.032678
C3    C     C_R   0.318405 0.238240 0.495315 0.087391
C4    C     C_R   0.621228 0.618704 0.502415 0.545726
C5    C     C_R   0.252914 0.175378 0.495423 -0.121662
C6    C     C_R   0.185001 0.187146 0.500661 0.013105
C7    C     C_R   0.182852 0.263582 0.507693 0.077545
C8    C     C_R   0.248548 0.326632 0.508651 -0.097627
C9    C     C_R   0.315487 0.314079 0.501404 0.018970
C10   C     C_R   0.754615 0.493588 0.672609 0.244279
C11   C     C_R   0.817571 0.488136 0.733930 0.090612
C12   C     C_R   0.765777 0.830237 0.531733 -0.021926
C13   C     C_R   0.815165 0.496709 0.810593 -0.007266
C14   C     C_R   0.748190 0.503891 0.822553 -0.140181
C15   C     C_R   0.683063 0.504223 0.759937 0.040819
C16   C     C_R   0.619130 0.500066 0.618769 0.582342
C17   C     C_R   0.686823 0.499762 0.685184 0.066884
C18   C     C_R   0.000399 0.881079 0.381161 0.564037
C19   C     C_R   0.881929 0.881584 0.500233 0.599880
C20   C     C_R   0.001547 0.120501 0.618813 0.540927
C21   C     C_R   0.118532 0.119805 0.500645 0.533106
C22   C     C_R   0.999489 0.618563 0.117915 0.502690
C23   C     C_3   0.749511 0.901523 0.573273 0.196899
C24   C     C_R   0.118497 0.500191 0.119349 0.522941
C25   C     C_R   0.999877 0.381320 0.881276 0.499254
C26   C     C_R   0.881524 0.498637 0.879710 0.521016
C27   C     C_R   0.980132 0.810137 0.233145 0.103844
C28   C     C_R   0.381859 0.381056 0.500699 0.529327
C29   C     C_R   0.977046 0.744523 0.167410 0.204141
C30   C     C_R   0.000038 0.685089 0.184620 -0.028123
C31   C     C_R   0.025234 0.690792 0.266820 0.252187
C32   C     C_R   0.025409 0.754501 0.331028 0.094196
C33   C     C_R   0.002048 0.814380 0.314495 -0.039611
C34   C     C_3   0.679040 0.830729 0.576733 0.212107
C35   C     C_R   0.925579 0.187617 0.673044 -0.094930
C36   C     C_R   0.923089 0.250297 0.735447 0.187754
C37   C     C_R   0.000604 0.314626 0.814835 -0.040113
C38   C     C_R   0.079935 0.316243 0.828838 0.264507
C39   C     C_R   0.082036 0.256781 0.762616 0.277597
C40   C     C_R   0.706069 0.769142 0.535271 -0.019539
C41   C     C_R   0.003757 0.189949 0.685605 -0.083469
C42   C     C_R   0.692010 0.684652 0.505705 -0.026269
C43   C     C_R   0.747058 0.665253 0.475289 0.228938
C44   C     C_R   0.807784 0.729244 0.469419 0.116744
C45   C     C_R   0.234972 0.419355 0.249581 0.075411
C46   C     C_R   0.817211 0.813322 0.499022 0.002097
C47   C     C_R   0.173594 0.419774 0.182095 0.090898
C48   C     C_R   0.184393 0.499951 0.187418 -0.033663
C49   C     C_R   0.258604 0.579108 0.256841 0.264405
C50   C     C_R   0.324993 0.577652 0.316272 0.268737
Cu1   Cu    Cu3+1 0.499970 0.561780 0.561770 1.045225
Cu2   Cu    Cu3+1 0.500030 0.438220 0.438230 1.054173
Cu3   Cu    Cu3+1 0.061810 0.000000 0.561760 0.999266
Cu4   Cu    Cu3+1 0.938190 0.000070 0.438240 0.996166
Cu5   Cu    Cu3+1 0.938200 0.438300 0.000110 1.001973
Cu6   Cu    Cu3+1 0.061800 0.561880 0.000070 1.027830
H1    H     H_    0.254448 0.116786 0.490887 0.127581
H2    H     H_    0.057265 0.233723 0.460095 0.260615
H3    H     H_    0.814211 0.502803 0.605689 0.359479
H4    H     H_    0.917422 0.459153 0.760375 0.247513
H5    H     H_    0.844743 0.410650 0.656906 0.242950
H6    H     H_    0.556576 0.447721 0.724732 0.224877
H7    H     H_    0.621848 0.515364 0.831886 0.238426
H8    H     H_    0.899251 0.841448 0.164646 0.268969
H9    H     H_    0.005452 0.904942 0.200638 0.264725
H10   H     H_    0.841742 0.711866 0.376782 0.216837
H11   H     H_    0.851550 0.648123 0.419897 0.299693
H12   H     H_    0.246695 0.385274 0.513919 0.158431
H13   H     H_    0.934254 0.683747 0.042136 0.338433
H14   H     H_    0.066116 0.606273 0.246098 0.322145
H15   H     H_    0.004052 0.755988 0.430664 0.260574
H16   H     H_    0.110524 0.813247 0.459992 0.258898
H17   H     H_    0.852355 0.302783 0.753666 0.335552
H18   H     H_    0.145682 0.397940 0.953526 0.321084
H19   H     H_    0.159437 0.243380 0.719146 0.322567
H20   H     H_    0.805060 0.008714 0.692338 0.238511
H21   H     H_    0.855854 0.949202 0.692836 0.222683
H22   H     H_    0.674866 0.883279 0.451417 0.227584
H23   H     H_    0.746742 0.509139 0.881170 0.137210
H24   H     H_    0.685483 0.964018 0.536321 0.237065
H25   H     H_    0.698148 0.902621 0.697569 0.228656
H26   H     H_    0.755044 0.849138 0.698071 0.220526
H27   H     H_    0.574615 0.784772 0.457089 0.229254
H28   H     H_    0.579895 0.857969 0.543331 0.245966
H29   H     H_    0.158892 0.318668 0.255296 0.233720
H30   H     H_    0.261628 0.347000 0.307736 0.249193
H31   H     H_    0.099994 0.284803 0.109830 0.264166
H32   H     H_    0.105691 0.335933 0.052935 0.229022
H33   H     H_    0.212365 0.655538 0.244519 0.324749
H34   H     H_    0.865615 0.136820 0.613680 0.198152
H35   H     H_    0.735430 0.567913 0.494355 0.367221
H36   H     H_    0.449171 0.644606 0.395864 0.329562
H37   H     H_    0.378915 0.165450 0.483115 0.232934
H38   H     H_    0.444737 0.272679 0.551027 0.224718
H39   H     H_    0.113442 0.273634 0.568944 0.235140
N1    N     N_3   0.388683 0.226457 0.491080 -0.579420
N2    N     N_3   0.695748 0.844398 0.663450 -0.551424
N3    N     N_3   0.588856 0.804455 0.521335 -0.540914
N4    N     N_3   0.215675 0.338994 0.251677 -0.601419
N5    N     N_3   0.100047 0.339580 0.107322 -0.568143
N6    N     N_3   0.116538 0.280048 0.516719 -0.608322
N7    N     N_3   0.879656 0.469951 0.714780 -0.610394
N8    N     N_3   0.612377 0.507832 0.771239 -0.581195
N9    N     N_3   0.961863 0.873675 0.217333 -0.565431
N10   N     N_3   0.861059 0.710539 0.435124 -0.605239
N11   N     N_3   0.051114 0.756928 0.413153 -0.524914
N12   N     N_3   0.825386 0.972876 0.656798 -0.583336
N13   N     N_3   0.717944 0.933969 0.515366 -0.570033
O1    O     O_R   0.409790 0.552170 0.461990 -0.491491
O2    O     O_R   0.052170 0.642450 0.090210 -0.499503
O3    O     O_R   0.038000 0.447920 0.090280 -0.475889
O4    O     O_R   0.409840 0.447810 0.357660 -0.503743
O5    O     O_R   0.142370 0.552280 0.090250 -0.496982
O6    O     O_R   0.947830 0.357730 0.909970 -0.498099
O7    O     O_R   0.052200 0.462090 0.909940 -0.499119
O8    O     O_R   0.857630 0.447900 0.909930 -0.516465
O9    O     O_R   0.962000 0.552260 0.909900 -0.496197
O10   O     O_R   0.590140 0.642360 0.552170 -0.469989
O11   O     O_R   0.590190 0.538010 0.447840 -0.490411
O12   O     O_R   0.947790 0.909920 0.357650 -0.471713
O13   O     O_R   0.590160 0.552190 0.642340 -0.487711
O14   O     O_R   0.590210 0.447830 0.538010 -0.469564
O15   O     O_R   0.409810 0.461990 0.552160 -0.523193
O16   O     O_R   0.409860 0.357640 0.447830 -0.483173
O17   O     O_R   0.052180 0.909860 0.461960 -0.533748
O18   O     O_3   0.744746 0.586351 0.453070 -0.668983
O19   O     O_3   0.400473 0.655904 0.376478 -0.615809
O20   O     O_3   0.757179 0.492935 0.599673 -0.692754
O21   O     O_3   0.951006 0.741118 0.087628 -0.688811
O22   O     O_3   0.051416 0.636268 0.288151 -0.631886
O23   O     O_R   0.962030 0.909820 0.552150 -0.487167
O24   O     O_3   0.843893 0.246273 0.715263 -0.681975
O25   O     O_3   0.157318 0.375630 0.905678 -0.613887
O26   O     O_3   0.161924 0.266237 0.775985 -0.608735
O27   O     O_3   0.269761 0.659461 0.267962 -0.607971
O28   O     O_R   0.857630 0.909880 0.447840 -0.498133
O29   O     O_R   0.052210 0.090150 0.642360 -0.484662
O30   O     O_R   0.947820 0.090210 0.538040 -0.509699
O31   O     O_R   0.142360 0.090190 0.552160 -0.515120
O32   O     O_R   0.037970 0.090250 0.447850 -0.512536
O33   O     O_R   0.947800 0.538090 0.090240 -0.503331

loop_
_geom_bond_atom_site_label_1
_geom_bond_atom_site_label_2
_ccdc_geom_bond_type
C8    C9    A    
Cu5   Cu6   S    
H33   O27   S    
H35   O18   S    
Cu4   O12   S    
C27   C29   A    
Cu1   O15   S    
Cu6   O9    S    
C35   C36   A    
C26   O9    A    
C43   C44   A    
Cu1   O10   S    
C20   C41   S    
C19   C46   S    
C7    C8    A    
C39   C41   A    
Cu4   O30   S    
C44   N10   S    
C27   C33   A    
C12   C23   S    
C29   C30   A    
H25   N2    S    
Cu5   O33   S    
C36   C37   A    
H6    N8    S    
C31   O22   S    
C25   O7    A    
C18   O17   A    
C30   C31   A    
H4    N7    S    
Cu5   O8    S    
Cu2   O4    S    
C10   C17   A    
H18   O25   S    
C27   N9    S    
H14   O22   S    
C34   N2    S    
H22   N13   S    
C1    C2    S    
C38   O25   S    
C20   O30   A    
C16   O14   A    
C2    C50   A    
C25   C37   S    
Cu2   O14   S    
C29   O21   S    
C47   C48   A    
C16   C17   S    
C22   O2    A    
H27   N3    S    
Cu6   O5    S    
C4    O11   A    
C3    N1    S    
Cu3   O23   S    
Cu2   O16   S    
C1    O1    A    
C40   C42   A    
C49   O27   S    
H17   O24   S    
C23   N12   S    
C24   O5    A    
Cu1   O1    S    
C32   N11   S    
C13   C14   A    
C4    O10   A    
C24   O3    A    
C10   O20   S    
C43   O18   S    
Cu6   O2    S    
C44   C46   A    
C45   C47   A    
C2    C45   A    
C19   O23   A    
C38   C39   A    
Cu4   O32   S    
C28   O15   A    
Cu1   Cu2   S    
C24   C48   S    
H21   N12   S    
H7    N8    S    
C45   N4    S    
H11   N10   S    
C19   O28   A    
Cu3   Cu4   S    
C6    C21   S    
C47   N5    S    
C20   O29   A    
C12   C40   A    
C16   O13   A    
C35   H34   S    
C37   C38   A    
C3    C9    A    
C31   C32   A    
C23   C34   S    
Cu4   O28   S    
H2    N6    S    
C14   H23   S    
H38   N1    S    
H30   N4    S    
H32   N5    S    
Cu3   O17   S    
C12   C46   A    
C48   C49   A    
H16   N11   S    
C8    H12   S    
H20   N12   S    
Cu1   O13   S    
H26   N2    S    
Cu3   O29   S    
C13   C26   S    
C42   C43   A    
C21   O31   A    
H10   N10   S    
H19   O26   S    
H36   O19   S    
C18   O12   A    
H31   N5    S    
H8    N9    S    
C22   C30   S    
Cu5   O3    S    
Cu3   O31   S    
C3    C5    A    
C28   O16   A    
C15   C17   A    
C6    C7    A    
Cu5   O6    S    
H37   N1    S    
H24   N13   S    
C21   O32   A    
C5    H1    S    
H28   N3    S    
C32   C33   A    
C36   O24   S    
H5    N7    S    
H3    O20   S    
C1    O4    A    
C25   O6    A    
H29   N4    S    
C11   C13   A    
C5    C6    A    
C4    C42   S    
C23   N13   S    
C22   O33   A    
C34   N3    S    
Cu6   O7    S    
C11   N7    S    
C35   C41   A    
C18   C33   S    
C26   O8    A    
C10   C11   A    
Cu2   O11   S    
H13   O21   S    
C49   C50   A    
C7    N6    S    
H15   N11   S    
C14   C15   A    
C34   C40   S    
C50   O19   S    
H9    N9    S    
C15   N8    S    
H39   N6    S    
C9    C28   S    
C39   O26   S    
