data_mof_unit_63799.cif
_audit_creation_date              2012-12-10T17:37:15-0500
_audit_creation_method            fapswitch 2.2
_symmetry_space_group_name_H-M    P1
_symmetry_Int_Tables_number       1
_space_group_crystal_system       triclinic
_cell_length_a                    45.240072
_cell_length_b                    32.002317
_cell_length_c                    32.014194
_cell_angle_alpha                 89.986334
_cell_angle_beta                  134.961594
_cell_angle_gamma                 90.028719
_cell_volume                      32796.1709725

loop_
_atom_site_label
_atom_site_type_symbol
_atom_type_description
_atom_site_fract_x
_atom_site_fract_y
_atom_site_fract_z
_atom_type_partial_charge
C1    C     C_R   0.580257 0.999975 0.580227 0.815854
C2    C     C_R   0.080264 0.499966 0.580246 0.815861
C3    C     C_3   0.466742 0.263821 0.488991 -0.189698
C4    C     C_3   0.467315 0.736011 0.490071 -0.209914
C5    C     C_3   0.966389 0.763823 0.488061 -0.188938
C6    C     C_3   0.967094 0.235997 0.489533 -0.210012
C7    C     C_3   0.499913 0.291457 0.500539 -0.006457
C8    C     C_3   0.500134 0.708588 0.500522 -0.007953
C9    C     C_3   0.999904 0.791453 0.500485 -0.005293
C10   C     C_3   0.000115 0.208585 0.500467 -0.008393
C11   C     C_3   0.465290 0.236197 0.447918 -0.034105
C12   C     C_3   0.464975 0.763731 0.448197 -0.036063
C13   C     C_3   0.965573 0.736192 0.447610 -0.033897
C14   C     C_3   0.965077 0.263721 0.447974 -0.036056
C15   C     C_3   0.497922 0.264405 0.458590 -0.282209
C16   C     C_3   0.497263 0.735758 0.457804 -0.267050
C17   C     C_3   0.998560 0.764395 0.459162 -0.282019
C18   C     C_3   0.997566 0.235756 0.458057 -0.266998
C19   C     C_1   0.500700 0.162698 0.500864 0.133578
C20   C     C_1   0.500550 0.837334 0.500744 0.140716
C21   C     C_1   0.000697 0.662695 0.500860 0.132955
C22   C     C_1   0.000508 0.337334 0.500697 0.140636
C23   C     C_1   0.499860 0.337259 0.500456 0.107087
C24   C     C_1   0.500064 0.662772 0.500429 0.108783
C25   C     C_1   0.999849 0.837257 0.500408 0.106473
C26   C     C_1   0.000047 0.162772 0.500381 0.108575
C27   C     C_3   0.763457 0.965089 0.780829 0.364530
C28   C     C_3   0.763401 0.032406 0.784550 0.409479
C29   C     C_3   0.263455 0.464684 0.780163 0.361600
C30   C     C_3   0.263349 0.531964 0.785115 0.413116
C31   C     C_3   0.735841 0.966582 0.713806 -0.150593
C32   C     C_3   0.735785 0.035288 0.717611 -0.175089
C33   C     C_3   0.235856 0.466925 0.713175 -0.150959
C34   C     C_3   0.235749 0.535552 0.718243 -0.173357
C35   C     C_1   0.625086 0.999895 0.624925 -0.118176
C36   C     C_1   0.125077 0.499831 0.624944 -0.118116
C37   C     C_1   0.874843 0.999967 0.874868 -0.072820
C38   C     C_1   0.374828 0.499977 0.874855 -0.073054
C39   C     C_R   0.500224 0.080222 0.500239 0.812125
C40   C     C_R   0.500182 0.919771 0.500200 0.812894
C41   C     C_R   0.000224 0.580222 0.500239 0.812207
C42   C     C_R   0.000172 0.419774 0.500191 0.812829
C43   C     C_3   0.735546 0.997572 0.775104 -0.271239
C44   C     C_3   0.235499 0.496735 0.775010 -0.273019
C45   C     C_3   0.708561 0.999786 0.708308 0.031181
C46   C     C_3   0.208546 0.499692 0.708266 0.031253
C47   C     C_3   0.791302 0.999891 0.791090 -0.043419
C48   C     C_3   0.291277 0.499858 0.791098 -0.043489
C49   C     C_3   0.763932 0.002083 0.724127 -0.248735
C50   C     C_3   0.263944 0.502779 0.724194 -0.249069
C51   C     C_1   0.662764 0.999825 0.662493 0.052212
C52   C     C_1   0.162757 0.499733 0.662505 0.052271
C53   C     C_1   0.837171 0.999939 0.837081 0.117085
C54   C     C_1   0.337148 0.499942 0.837081 0.117103
C55   C     C_3   0.236184 0.034549 0.255543 0.276209
C56   C     C_3   0.236288 0.966388 0.257175 0.310632
C57   C     C_3   0.736172 0.534986 0.254640 0.277518
C58   C     C_3   0.736285 0.466903 0.257979 0.311009
C59   C     C_3   0.264063 0.033675 0.244079 -0.120909
C60   C     C_3   0.264161 0.965575 0.245701 -0.129055
C61   C     C_3   0.764043 0.533144 0.243214 -0.121435
C62   C     C_3   0.764161 0.465112 0.246540 -0.128775
C63   C     C_1   0.375163 0.000090 0.375490 -0.047645
C64   C     C_1   0.875161 0.500109 0.375494 -0.047786
C65   C     C_1   0.125078 0.999964 0.125329 -0.076545
C66   C     C_1   0.625071 0.499950 0.125314 -0.076696
C67   C     C_R   0.419807 0.000022 0.419867 0.810888
C68   C     C_R   0.919810 0.500032 0.419877 0.810784
C69   C     C_3   0.264006 0.000965 0.303840 0.254952
C70   C     C_3   0.764002 0.501939 0.303766 0.256880
C71   C     C_3   0.291860 0.000097 0.292394 -0.150225
C72   C     C_3   0.791854 0.500098 0.292347 -0.151301
C73   C     C_3   0.208515 0.999967 0.208929 -0.093368
C74   C     C_3   0.708505 0.499949 0.208903 -0.093996
C75   C     C_3   0.236110 0.999118 0.196638 -0.318638
C76   C     C_3   0.736088 0.498108 0.196635 -0.318628
C77   C     C_1   0.337594 0.000131 0.338197 0.212824
C78   C     C_1   0.837597 0.500151 0.338186 0.212839
C79   C     C_1   0.162717 0.999921 0.163053 0.163150
C80   C     C_1   0.662708 0.499897 0.163033 0.163208
C81   C     C_R   0.499954 0.499997 0.580296 0.811770
C82   C     C_R   0.999920 0.000017 0.580262 0.811828
C83   C     C_R   0.499973 0.419733 0.500128 0.814225
C84   C     C_R   0.500003 0.580275 0.500106 0.813080
C85   C     C_R   0.999971 0.919733 0.500119 0.814601
C86   C     C_R   0.000003 0.080272 0.500115 0.812939
C87   C     C_R   0.500022 0.500003 0.419844 0.806765
C88   C     C_R   0.000006 0.999992 0.419820 0.806738
C89   C     C_R   0.000312 0.999997 0.080594 0.815143
C90   C     C_R   0.500322 0.499997 0.080606 0.815226
C91   C     C_3   0.534956 0.263882 0.553117 0.363921
C92   C     C_3   0.535440 0.736247 0.552754 0.372107
C93   C     C_3   0.034653 0.763889 0.553346 0.360257
C94   C     C_3   0.035259 0.236263 0.552832 0.373228
C95   C     C_R   0.919712 0.999991 0.919808 0.807598
C96   C     C_R   0.419717 0.499993 0.919815 0.807757
C97   C     C_R   0.000036 0.000001 0.919805 0.798040
C98   C     C_R   0.500016 0.499998 0.919801 0.798440
C99   C     C_R   0.080253 0.999999 0.080364 0.804661
C100  C     C_R   0.580251 0.499996 0.080362 0.804790
C101  C     C_3   0.013178 0.037566 0.777376 -0.159817
C102  C     C_3   0.026403 0.970000 0.790457 -0.183388
C103  C     C_3   0.515288 0.536534 0.779472 -0.159841
C104  C     C_3   0.524364 0.468280 0.788441 -0.189704
C105  C     C_3   0.476287 0.530678 0.712920 0.424280
C106  C     C_3   0.485188 0.463823 0.721675 0.388302
C107  C     C_3   0.974532 0.029337 0.711200 0.422692
C108  C     C_3   0.987481 0.963133 0.723998 0.398528
C109  C     C_1   0.499861 0.499991 0.625030 -0.069832
C110  C     C_1   0.999878 0.000045 0.625058 -0.070074
C111  C     C_1   0.000237 0.999984 0.875132 -0.128065
C112  C     C_1   0.500124 0.499958 0.875058 -0.128639
C113  C     C_3   0.539389 0.505083 0.775395 -0.245254
C114  C     C_3   0.039109 0.007639 0.775072 -0.248333
C115  C     C_3   0.500000 0.499895 0.708674 -0.055117
C116  C     C_3   0.000069 0.000046 0.708760 -0.058972
C117  C     C_3   0.000315 0.999914 0.791720 0.023368
C118  C     C_3   0.500186 0.499752 0.791583 0.024355
C119  C     C_3   0.532969 0.236527 0.511815 0.378185
C120  C     C_3   0.532586 0.763729 0.510702 0.339750
C121  C     C_3   0.033306 0.736521 0.512658 0.378283
C122  C     C_3   0.032721 0.263748 0.511076 0.343562
C123  C     C_3   0.961111 0.992282 0.725613 -0.238264
C124  C     C_3   0.460593 0.494508 0.725041 -0.237556
C125  C     C_1   0.499915 0.499961 0.662735 0.125421
C126  C     C_1   0.999901 0.000067 0.662747 0.126218
C127  C     C_1   0.000339 0.999941 0.837562 0.051089
C128  C     C_1   0.500185 0.499858 0.837448 0.048728
C129  C     C_3   0.018128 0.965314 0.254531 0.354573
C130  C     C_3   0.020716 0.033173 0.257147 0.338637
C131  C     C_3   0.518415 0.465503 0.254850 0.356221
C132  C     C_3   0.520504 0.533383 0.256913 0.337023
C133  C     C_3   0.478823 0.466554 0.242682 0.311237
C134  C     C_3   0.480920 0.534718 0.244763 0.293203
C135  C     C_3   0.978554 0.966637 0.242394 0.311159
C136  C     C_3   0.981156 0.034773 0.245031 0.294482
C137  C     C_1   0.499907 0.500004 0.374946 -0.078307
C138  C     C_1   0.999911 0.999961 0.374954 -0.078663
C139  C     C_1   0.000695 0.999992 0.125719 -0.038172
C140  C     C_1   0.500707 0.499995 0.125733 -0.038256
C141  C     C_3   0.539431 0.498833 0.303968 -0.317173
C142  C     C_3   0.039405 0.998465 0.303938 -0.319275
C143  C     C_3   0.499312 0.500033 0.291001 -0.160144
C144  C     C_3   0.999297 0.999939 0.290997 -0.159896
C145  C     C_3   0.000097 0.999984 0.208484 -0.208637
C146  C     C_3   0.500141 0.500020 0.208527 -0.208832
C147  C     C_1   0.500567 0.125038 0.500654 -0.075737
C148  C     C_1   0.500464 0.874976 0.500560 -0.071984
C149  C     C_1   0.000566 0.625036 0.500654 -0.075797
C150  C     C_1   0.000441 0.374978 0.500542 -0.072182
C151  C     C_3   0.960335 0.001462 0.196161 -0.293761
C152  C     C_3   0.460355 0.501228 0.196159 -0.293562
C153  C     C_1   0.499611 0.500011 0.337046 0.190238
C154  C     C_1   0.999600 0.999934 0.337038 0.189760
C155  C     C_1   0.000737 0.999983 0.163357 0.230275
C156  C     C_1   0.500768 0.499997 0.163390 0.230303
C157  C     C_1   0.499910 0.374909 0.500328 -0.086804
C158  C     C_1   0.500036 0.625111 0.500295 -0.087604
C159  C     C_1   0.999905 0.874910 0.500299 -0.086882
C160  C     C_1   0.000027 0.125110 0.500272 -0.088104
C161  C     C_3   0.502294 0.235725 0.542311 -0.283232
C162  C     C_3   0.503112 0.764189 0.542987 -0.242949
C163  C     C_3   0.001644 0.735733 0.541669 -0.285136
C164  C     C_3   0.002732 0.264188 0.542592 -0.244262
C165  C     C_3   0.500361 0.208504 0.500504 -0.063400
C166  C     C_3   0.500281 0.791519 0.500427 -0.059653
C167  C     C_3   0.000356 0.708506 0.500487 -0.062682
C168  C     C_3   0.000228 0.291524 0.500341 -0.060963
Cu1   Cu    Cu3+1 0.500020 0.000000 0.541470 1.068039
Cu2   Cu    Cu3+1 0.000020 0.500000 0.541470 1.067899
Cu3   Cu    Cu3+1 0.499960 0.000000 0.458530 1.080770
Cu4   Cu    Cu3+1 0.999960 0.500000 0.458530 1.080755
Cu5   Cu    Cu3+1 0.541430 0.500000 0.541530 1.091443
Cu6   Cu    Cu3+1 0.041430 0.000000 0.541530 1.091335
Cu7   Cu    Cu3+1 0.458550 0.500000 0.458570 1.095770
Cu8   Cu    Cu3+1 0.958550 0.000000 0.458570 1.095095
Cu9   Cu    Cu3+1 0.999990 0.958550 0.000050 1.098758
Cu10  Cu    Cu3+1 0.999990 0.041450 0.000050 1.100019
Cu11  Cu    Cu3+1 0.499990 0.458550 0.000050 1.097306
Cu12  Cu    Cu3+1 0.499990 0.541450 0.000050 1.100165
H1    H     H_    0.723870 0.995720 0.796045 0.195337
H2    H     H_    0.223858 0.494245 0.795943 0.195019
H3    H     H_    0.224608 0.998329 0.152437 0.206806
H4    H     H_    0.724609 0.496509 0.152484 0.206833
H5    H     H_    0.023389 0.068551 0.799360 0.192718
H6    H     H_    0.047547 0.945104 0.823263 0.182602
H7    H     H_    0.527346 0.566829 0.803313 0.192362
H8    H     H_    0.543967 0.442203 0.819752 0.180835
H9    H     H_    0.929063 0.985966 0.705263 0.202657
H10   H     H_    0.428244 0.490155 0.704390 0.202788
H11   H     H_    0.571669 0.509465 0.795687 0.199805
H12   H     H_    0.071061 0.013967 0.795020 0.200479
H13   H     H_    0.571977 0.497843 0.348357 0.231523
H14   H     H_    0.071945 0.997224 0.348305 0.230939
H15   H     H_    0.496194 0.276226 0.424300 0.211810
H16   H     H_    0.494879 0.724021 0.422876 0.213749
H17   H     H_    0.997354 0.776204 0.425353 0.211606
H18   H     H_    0.995430 0.224022 0.423358 0.213795
H19   H     H_    0.439133 0.275262 0.479065 0.197378
H20   H     H_    0.440172 0.724347 0.481152 0.197389
H21   H     H_    0.938499 0.775274 0.477399 0.196849
H22   H     H_    0.939805 0.224343 0.480257 0.197351
H23   H     H_    0.504385 0.223802 0.576881 0.198855
H24   H     H_    0.505825 0.775992 0.578185 0.209031
H25   H     H_    0.003214 0.723823 0.575763 0.198100
H26   H     H_    0.005194 0.275990 0.577562 0.209226
H27   H     H_    0.724175 0.939029 0.684599 0.196429
H28   H     H_    0.724077 0.064603 0.691532 0.187535
H29   H     H_    0.224226 0.439695 0.683477 0.196279
H30   H     H_    0.224024 0.565129 0.692693 0.188221
H31   H     H_    0.775892 0.003910 0.703572 0.197247
H32   H     H_    0.275885 0.505245 0.703645 0.197390
O1    O     O_R   0.560480 0.000000 0.595480 -0.572509
O2    O     O_R   0.060480 0.500000 0.595480 -0.572467
O3    O     O_R   0.465000 0.439530 0.465010 -0.569865
O4    O     O_R   0.465000 0.560470 0.465010 -0.569812
O5    O     O_R   0.965000 0.939530 0.465010 -0.570121
O6    O     O_R   0.965000 0.060470 0.465010 -0.569833
O7    O     O_R   0.535000 0.500000 0.474630 -0.572303
O8    O     O_R   0.035000 0.000000 0.474630 -0.572344
O9    O     O_R   0.465020 0.500000 0.404580 -0.555409
O10   O     O_R   0.965020 0.000000 0.404580 -0.555420
O11   O     O_R   0.000030 0.965010 0.060550 -0.556354
O12   O     O_R   0.000030 0.034990 0.060550 -0.555242
O13   O     O_R   0.500030 0.465010 0.060550 -0.556480
O14   O     O_R   0.500030 0.534990 0.060550 -0.555188
O15   O     O_R   0.939530 0.965000 0.939580 -0.560558
O16   O     O_R   0.939530 0.035000 0.939580 -0.562247
O17   O     O_R   0.439530 0.465000 0.939580 -0.560476
O18   O     O_R   0.439530 0.535000 0.939580 -0.562566
O19   O     O_R   0.999960 0.964990 0.939550 -0.572281
O20   O     O_R   0.999960 0.035010 0.939550 -0.571702
O21   O     O_R   0.499960 0.464990 0.939550 -0.573331
O22   O     O_R   0.499960 0.535010 0.939550 -0.571267
O23   O     O_R   0.060450 0.965000 0.060520 -0.562272
O24   O     O_R   0.060450 0.035000 0.060520 -0.559491
O25   O     O_R   0.560450 0.465000 0.060520 -0.562758
O26   O     O_R   0.560450 0.535000 0.060520 -0.559107
O27   O     O_R   0.560430 0.000000 0.525440 -0.567944
O28   O     O_R   0.060430 0.500000 0.525440 -0.567835
O29   O     O_R   0.500020 0.060460 0.535020 -0.576232
O30   O     O_R   0.500020 0.939540 0.535020 -0.575109
O31   O     O_R   0.000020 0.560460 0.535020 -0.576287
O32   O     O_R   0.000020 0.439540 0.535020 -0.575190
O33   O     O_R   0.499970 0.060450 0.464980 -0.559090
O34   O     O_R   0.499970 0.939550 0.464980 -0.558700
O35   O     O_R   0.999970 0.560450 0.464980 -0.559018
O36   O     O_R   0.999970 0.439550 0.464980 -0.558705
O37   O     O_R   0.439560 0.000000 0.474560 -0.560167
O38   O     O_R   0.939560 0.500000 0.474560 -0.560337
O39   O     O_R   0.439510 0.000000 0.404520 -0.566905
O40   O     O_R   0.939510 0.500000 0.404520 -0.566844
O41   O     O_R   0.534970 0.500000 0.595520 -0.571777
O42   O     O_R   0.034970 0.000000 0.595520 -0.571201
O43   O     O_R   0.464980 0.500000 0.525470 -0.558119
O44   O     O_R   0.964980 0.000000 0.525470 -0.558662
O45   O     O_R   0.534980 0.439530 0.535070 -0.557839
O46   O     O_R   0.534980 0.560470 0.535070 -0.557821
O47   O     O_R   0.034980 0.939530 0.535070 -0.557704
O48   O     O_R   0.034980 0.060470 0.535070 -0.558054
S1    S     S_3+6 0.576530 0.218840 0.525454 0.078050
O49   O     O_2   0.605452 0.193903 0.581602 -0.214553
O50   O     O_2   0.561056 0.191902 0.474806 -0.274340
O51   O     O_3   0.602011 0.260489 0.531454 -0.459418
H33   H     H_    0.618795 0.249461 0.524687 0.390226
S2    S     S_3+6 0.575150 0.782407 0.522527 0.070912
O52   O     O_2   0.558640 0.809315 0.471314 -0.215213
O53   O     O_2   0.603934 0.808025 0.578120 -0.276442
O54   O     O_3   0.601115 0.741654 0.527794 -0.457665
H34   H     H_    0.627158 0.739229 0.570315 0.391303
S3    S     S_3+6 0.077351 0.718803 0.527515 0.077836
O55   O     O_2   0.105715 0.693722 0.583563 -0.214890
O56   O     O_2   0.062445 0.691985 0.477092 -0.274504
O57   O     O_3   0.103300 0.760438 0.534558 -0.459189
H35   H     H_    0.120209 0.749501 0.527969 0.390104
S4    S     S_3+6 0.075568 0.282337 0.523538 0.070487
O58   O     O_2   0.059485 0.309564 0.472796 -0.216697
O59   O     O_2   0.104329 0.307575 0.579486 -0.278390
O60   O     O_3   0.101381 0.241480 0.528649 -0.458526
H36   H     H_    0.128412 0.240318 0.570677 0.392845
C169  C     C_2   0.279176 0.071508 0.235985 0.980559
O61   O     O_2   0.253885 0.095262 0.194818 -0.514645
O62   O     O_R   0.321976 0.079403 0.275333 -0.754343
H37   H     H_    0.328268 0.105830 0.265308 0.346810
C170  C     C_2   0.279282 0.926748 0.239330 0.976234
O63   O     O_2   0.253986 0.902303 0.199218 -0.518540
O64   O     O_R   0.322064 0.918686 0.279075 -0.753173
H38   H     H_    0.328334 0.891573 0.270204 0.345619
C171  C     C_2   0.779141 0.570390 0.234167 0.980785
O65   O     O_2   0.753838 0.593768 0.192471 -0.514788
O66   O     O_R   0.821939 0.578182 0.273247 -0.754278
H39   H     H_    0.828206 0.604209 0.262572 0.347261
C172  C     C_2   0.779320 0.425788 0.241153 0.975840
O67   O     O_2   0.754040 0.400983 0.201655 -0.518981
O68   O     O_R   0.822100 0.417667 0.281089 -0.753180
H40   H     H_    0.828359 0.390168 0.272918 0.345342
S5    S     S_3+6 0.217521 0.081096 0.261272 0.089418
O69   O     O_2   0.190440 0.104752 0.204080 -0.190748
O70   O     O_2   0.192120 0.069867 0.273785 -0.259196
O71   O     O_3   0.258358 0.111246 0.315861 -0.465425
H41   H     H_    0.258541 0.111339 0.346982 0.391414
S6    S     S_3+6 0.218349 0.921042 0.266342 0.103565
O72   O     O_2   0.192461 0.934106 0.277408 -0.202132
O73   O     O_2   0.192286 0.894789 0.211430 -0.226859
O74   O     O_3   0.259887 0.893280 0.324084 -0.465805
H42   H     H_    0.248878 0.874080 0.334727 0.396276
S7    S     S_3+6 0.717548 0.582109 0.259278 0.089936
O75   O     O_2   0.690174 0.604853 0.201375 -0.191864
O76   O     O_2   0.692492 0.571846 0.272621 -0.257507
O77   O     O_3   0.758422 0.612711 0.312726 -0.466367
H43   H     H_    0.758616 0.613992 0.343823 0.391583
S8    S     S_3+6 0.718364 0.422239 0.268269 0.103456
O78   O     O_2   0.692519 0.436078 0.279120 -0.198771
O79   O     O_2   0.692313 0.395329 0.214003 -0.229899
O80   O     O_3   0.759917 0.394825 0.326529 -0.465962
H44   H     H_    0.748573 0.374504 0.335601 0.395516
S9    S     S_3+6 0.283102 0.001754 0.375273 0.107123
O81   O     O_2   0.310612 0.964421 0.409925 -0.188957
O82   O     O_2   0.308248 0.040827 0.407308 -0.278921
O83   O     O_3   0.242686 0.000103 0.368501 -0.418695
H45   H     H_    0.239831 0.028897 0.376594 0.389858
S10   S     S_3+6 0.783022 0.504101 0.375088 0.108037
O84   O     O_2   0.810472 0.466954 0.410746 -0.187824
O85   O     O_2   0.808187 0.543326 0.406096 -0.280075
O86   O     O_3   0.742521 0.503420 0.368166 -0.418163
H46   H     H_    0.740515 0.532198 0.377327 0.390211
S11   S     S_3+6 0.444140 0.572383 0.663076 0.044369
O87   O     O_2   0.469595 0.601468 0.661848 -0.250588
O88   O     O_2   0.408587 0.554875 0.602396 -0.249590
O89   O     O_3   0.425346 0.598384 0.685881 -0.502924
H47   H     H_    0.403479 0.617049 0.652598 0.392786
S12   S     S_3+6 0.465105 0.415329 0.683299 0.056984
O90   O     O_2   0.427555 0.423150 0.618795 -0.204240
O91   O     O_2   0.498023 0.393413 0.690847 -0.271045
O92   O     O_3   0.450996 0.385464 0.710111 -0.479324
H48   H     H_    0.474853 0.366070 0.738596 0.370164
S13   S     S_3+6 0.939887 0.069075 0.658971 0.044846
O93   O     O_2   0.963619 0.100043 0.656525 -0.248024
O94   O     O_2   0.905751 0.049511 0.599229 -0.252004
O95   O     O_3   0.919107 0.093365 0.679898 -0.503101
H49   H     H_    0.894914 0.109140 0.644600 0.392323
S14   S     S_3+6 0.970447 0.913367 0.688898 0.054959
O96   O     O_2   0.931286 0.918465 0.624418 -0.207102
O97   O     O_2   0.003983 0.894353 0.695529 -0.273981
O98   O     O_3   0.960481 0.882301 0.720194 -0.485925
H50   H     H_    0.982763 0.860676 0.742112 0.377158
S15   S     S_3+6 0.450537 0.422180 0.232835 0.102138
O99   O     O_2   0.478413 0.395581 0.287461 -0.203781
O100  O     O_2   0.413790 0.436754 0.221490 -0.241900
O101  O     O_3   0.433734 0.394263 0.174841 -0.456437
H51   H     H_    0.407977 0.380071 0.158783 0.390887
S16   S     S_3+6 0.455293 0.580530 0.237934 0.090753
O102  O     O_2   0.418602 0.568171 0.227835 -0.182882
O103  O     O_2   0.485223 0.605746 0.293789 -0.278009
O104  O     O_3   0.438271 0.608999 0.180149 -0.457152
H52   H     H_    0.455049 0.634999 0.197309 0.390930
S17   S     S_3+6 0.949974 0.922465 0.232217 0.102675
O105  O     O_2   0.977627 0.895734 0.286705 -0.202924
O106  O     O_2   0.913263 0.937274 0.220837 -0.242328
O107  O     O_3   0.933094 0.894577 0.174160 -0.455465
H53   H     H_    0.906932 0.880984 0.157497 0.390718
S18   S     S_3+6 0.955874 0.080778 0.238533 0.090816
O108  O     O_2   0.919140 0.068698 0.228461 -0.183691
O109  O     O_2   0.986018 0.105810 0.294528 -0.277347
O110  O     O_3   0.938989 0.109319 0.180875 -0.457543
H54   H     H_    0.955490 0.135491 0.198084 0.391157
S19   S     S_3+6 0.581245 0.282552 0.624095 0.093916
O111  O     O_2   0.605205 0.309810 0.618253 -0.174406
O112  O     O_2   0.569550 0.307773 0.650263 -0.272916
O113  O     O_3   0.611301 0.241866 0.668395 -0.447640
H55   H     H_    0.605312 0.237269 0.692426 0.366898
S20   S     S_3+6 0.581986 0.717705 0.623513 0.068947
O114  O     O_2   0.570732 0.692083 0.649962 -0.216565
O115  O     O_2   0.605927 0.690879 0.617224 -0.275799
O116  O     O_3   0.611341 0.758646 0.667909 -0.464575
H56   H     H_    0.636376 0.758084 0.674736 0.393843
S21   S     S_3+6 0.080548 0.782575 0.624650 0.095152
O117  O     O_2   0.104951 0.809848 0.619623 -0.173619
O118  O     O_2   0.068301 0.807775 0.650104 -0.270016
O119  O     O_3   0.110434 0.741930 0.669231 -0.445304
H57   H     H_    0.102493 0.736039 0.690641 0.364507
S22   S     S_3+6 0.081655 0.217796 0.623778 0.070733
O120  O     O_2   0.070158 0.191207 0.649236 -0.218961
O121  O     O_2   0.106450 0.191969 0.618164 -0.271554
O122  O     O_3   0.110180 0.258802 0.668690 -0.465886
H58   H     H_    0.135484 0.259020 0.676162 0.394916
S23   S     S_3+6 0.044118 0.919635 0.262238 0.106616
O123  O     O_2   0.015414 0.895150 0.205656 -0.187734
O124  O     O_2   0.082309 0.932466 0.276220 -0.248908
O125  O     O_3   0.058130 0.890131 0.317389 -0.455026
H59   H     H_    0.084297 0.875985 0.334930 0.387895
S24   S     S_3+6 0.050135 0.076700 0.268049 0.094370
O126  O     O_2   0.086135 0.061298 0.278135 -0.191449
O127  O     O_2   0.022689 0.104028 0.214082 -0.263117
O128  O     O_3   0.068731 0.103968 0.327534 -0.455894
H60   H     H_    0.054539 0.131430 0.312197 0.391665
S25   S     S_3+6 0.544795 0.420005 0.263050 0.105899
O129  O     O_2   0.516174 0.394996 0.206933 -0.190310
O130  O     O_2   0.582677 0.433116 0.276402 -0.246681
O131  O     O_3   0.559496 0.390975 0.318979 -0.456513
H61   H     H_    0.584270 0.375122 0.334105 0.389115
S26   S     S_3+6 0.549623 0.577082 0.267465 0.094121
O132  O     O_2   0.585720 0.561872 0.277668 -0.190825
O133  O     O_2   0.522013 0.604202 0.213296 -0.263871
O134  O     O_3   0.568059 0.604519 0.326748 -0.455571
H62   H     H_    0.553250 0.631665 0.311113 0.391388
C173  C     C_2   0.916139 0.003215 0.136434 1.047091
O135  O     O_2   0.887307 0.004286 0.132635 -0.475187
O136  O     O_R   0.908108 0.003685 0.085526 -0.737006
H63   H     H_    0.877152 0.004956 0.048065 0.366609
C174  C     C_2   0.416148 0.502641 0.136426 1.047804
O137  O     O_2   0.387321 0.503503 0.132604 -0.475190
O138  O     O_R   0.408124 0.503037 0.085511 -0.736976
H64   H     H_    0.377155 0.504081 0.048042 0.366699
C175  C     C_2   0.425742 0.221368 0.388271 0.922304
O139  O     O_2   0.400470 0.246890 0.350118 -0.538860
O140  O     O_R   0.417876 0.178598 0.376524 -0.746045
H65   H     H_    0.390096 0.172556 0.334835 0.350984
C176  C     C_2   0.424917 0.778466 0.389013 0.921084
O141  O     O_2   0.399463 0.752895 0.351097 -0.538793
O142  O     O_R   0.416786 0.821213 0.377480 -0.747766
H66   H     H_    0.388705 0.827213 0.336102 0.349643
C177  C     C_2   0.926356 0.721359 0.387661 0.922069
O143  O     O_2   0.901296 0.746875 0.349310 -0.538800
O144  O     O_R   0.918557 0.678585 0.375850 -0.745846
H67   H     H_    0.890998 0.672538 0.333946 0.351533
C178  C     C_2   0.925186 0.278457 0.388626 0.920912
O145  O     O_2   0.899827 0.252884 0.350627 -0.539203
O146  O     O_R   0.917094 0.321207 0.377023 -0.747931
H68   H     H_    0.889130 0.327195 0.335510 0.348881
S27   S     S_3+6 0.781590 0.918038 0.822396 0.068874
O147  O     O_2   0.807950 0.894455 0.817889 -0.207463
O148  O     O_2   0.807437 0.928211 0.886051 -0.249599
O149  O     O_3   0.740541 0.888350 0.795381 -0.464346
H69   H     H_    0.730885 0.900159 0.812657 0.363649
S28   S     S_3+6 0.781334 0.076552 0.831093 0.062740
O150  O     O_2   0.808993 0.062368 0.893862 -0.208627
O151  O     O_2   0.805768 0.104704 0.826889 -0.269716
O152  O     O_3   0.740058 0.102425 0.809607 -0.480023
H70   H     H_    0.739252 0.129409 0.793686 0.386340
S29   S     S_3+6 0.281692 0.417211 0.820916 0.069748
O153  O     O_2   0.307668 0.394032 0.815438 -0.207415
O154  O     O_2   0.307904 0.426737 0.884875 -0.247876
O155  O     O_3   0.240664 0.387457 0.793853 -0.462679
H71   H     H_    0.230319 0.399900 0.809917 0.361466
S30   S     S_3+6 0.281158 0.575615 0.832338 0.062197
O156  O     O_2   0.309035 0.560872 0.894926 -0.210156
O157  O     O_2   0.305324 0.604484 0.828344 -0.269890
O158  O     O_3   0.239754 0.600761 0.811382 -0.481577
H72   H     H_    0.239764 0.628760 0.798205 0.387929

loop_
_geom_bond_atom_site_label_1
_geom_bond_atom_site_label_2
_ccdc_geom_bond_type
C101  C107  S    
S10   O85   D    
C178  O145  D    
C22   C150  T    
C28   C47   S    
S17   O105  D    
C55   C59   S    
C174  O138  S    
Cu1   Cu3   S    
C32   C45   S    
O66   H39   S    
Cu1   O30   S    
Cu11  O21   S    
S23   O125  S    
C89   O12   A    
S13   O93   D    
C120  C166  S    
Cu9   O23   S    
O71   H41   S    
C102  H6    S    
C93   C121  S    
S25   O130  D    
S10   O86   S    
C41   C149  S    
C10   C94   S    
S3    O55   D    
Cu3   O39   S    
C105  S11   S    
C2    C36   S    
S20   O114  D    
C131  C146  S    
O57   H35   S    
O144  H67   S    
Cu1   O37   S    
C57   S7    S    
S21   O119  S    
S18   O109  D    
S30   O158  S    
C134  C143  S    
C11   C15   S    
Cu2   O32   S    
C12   C16   S    
Cu5   O41   S    
C14   C178  S    
C25   C159  T    
C17   H17   S    
C8    C92   S    
C4    C12   S    
C5    C13   S    
C47   C53   S    
C22   C168  S    
C138  C154  T    
C7    C15   S    
Cu12  O22   S    
C8    C16   S    
C109  C125  T    
C73   C75   S    
C113  H11   S    
C124  H10   S    
C44   C46   S    
C30   S30   S    
C133  C143  S    
O89   H47   S    
C27   C31   S    
C164  C168  S    
C120  S2    S    
O95   H49   S    
C65   C99   S    
S24   O127  D    
S14   O96   D    
C58   C70   S    
S29   O155  S    
C129  C142  S    
C29   C48   S    
C33   C50   S    
C162  H24   S    
S9    O83   S    
Cu10  O20   S    
C102  C114  S    
C92   S20   S    
C83   O3    A    
O104  H52   S    
C83   C157  S    
S16   O102  D    
C142  H14   S    
C137  C153  T    
C118  C124  S    
C88   C138  S    
C140  C156  T    
C67   O37   A    
C2    O2    A    
S17   O107  S    
Cu8   O5    S    
C29   C44   S    
C35   C51   T    
C142  C144  S    
Cu6   O8    S    
C14   C168  S    
S23   O123  D    
Cu6   O47   S    
S13   O95   S    
S28   O150  D    
S30   O157  D    
C56   C73   S    
C28   C43   S    
C90   O14   A    
S14   O98   S    
C131  S25   S    
C90   C140  S    
O116  H56   S    
C57   C61   S    
Cu1   O1    S    
S20   O116  S    
C106  C115  S    
Cu7   O4    S    
C101  C117  S    
C170  O64   S    
C164  H26   S    
O110  H54   S    
Cu10  O24   S    
C133  S15   S    
C10   C18   S    
Cu4   O40   S    
S19   O113  S    
C94   S22   S    
C144  C154  S    
O101  H51   S    
C95   O15   A    
C143  C153  S    
O92   H48   S    
S11   O87   D    
C132  C134  S    
C106  C124  S    
C11   C165  S    
C19   C165  S    
C81   O41   A    
O136  H63   S    
O134  H62   S    
C106  S12   S    
C161  C165  S    
O119  H57   S    
C113  C115  S    
O142  H66   S    
C65   C79   T    
C29   C33   S    
C176  O141  D    
C152  C174  S    
O113  H55   S    
S27   O148  D    
O146  H68   S    
C178  O146  S    
C42   O36   A    
C74   C76   S    
Cu3   O33   S    
C5    C163  S    
C30   C48   S    
C16   C120  S    
Cu6   O48   S    
S1    O49   D    
C136  C144  S    
S15   O100  D    
S18   O108  D    
C93   C163  S    
C69   S9    S    
S16   O104  S    
S8    O78   D    
C86   O6    A    
C66   C100  S    
C72   C78   S    
C34   H30   S    
C129  C135  S    
C130  S24   S    
O51   H33   S    
C175  O140  S    
C100  O26   A    
C34   C46   S    
C21   C149  T    
Cu11  O17   S    
C119  C165  S    
C131  C141  S    
S28   O152  S    
C37   C53   T    
C50   H32   S    
S5    O70   D    
C101  H5    S    
O107  H53   S    
Cu6   O42   S    
Cu5   Cu7   S    
C61   C76   S    
C73   C79   S    
C104  H8    S    
S6    O73   D    
C98   C112  S    
C30   C34   S    
S4    O59   D    
Cu2   O31   S    
C3    C11   S    
S12   O90   D    
S11   O88   D    
C84   C158  S    
Cu4   O35   S    
C43   H1    S    
C81   O43   A    
O155  H71   S    
C5    C9    S    
C172  O67   D    
C6    C14   S    
S27   O147  D    
C98   O22   A    
C139  C155  T    
C171  O65   D    
Cu7   O9    S    
C11   C175  S    
C103  C105  S    
C141  H13   S    
C96   O17   A    
C85   O47   A    
C26   C160  T    
C43   C45   S    
C86   O48   A    
C55   C69   S    
C102  C117  S    
S2    O53   D    
C110  C126  T    
Cu4   O28   S    
C93   S21   S    
Cu9   Cu10  S    
C91   C119  S    
C13   C177  S    
C71   C77   S    
C58   C74   S    
S26   O132  D    
C91   S19   S    
C132  C141  S    
C64   C78   T    
C105  C115  S    
C91   C161  S    
Cu1   O29   S    
O131  H61   S    
S23   O124  D    
S2    O54   S    
C89   O11   A    
S1    O51   S    
C114  C116  S    
C169  O62   S    
C66   C80   T    
S8    O80   S    
C13   C17   S    
S7    O77   S    
C92   C120  S    
C132  S26   S    
S25   O129  D    
S15   O101  S    
C99   O24   A    
C7    C23   S    
O138  H64   S    
C23   C157  T    
C48   C50   S    
C8    C24   S    
C15   C119  S    
C173  O136  S    
C130  C142  S    
C107  C116  S    
S21   O118  D    
C104  C113  S    
C55   C73   S    
C4    H20   S    
S4    O58   D    
O158  H72   S    
O62   H37   S    
C74   C80   S    
C39   O29   A    
C58   C62   S    
S3    O57   S    
S22   O120  D    
C101  C114  S    
C59   C75   S    
S12   O92   S    
C107  C123  S    
C30   C44   S    
C104  C106  S    
O149  H69   S    
C9    C25   S    
C177  O144  S    
C1    O27   A    
C28   S28   S    
C41   O31   A    
C176  O142  S    
C3    C7    S    
C141  C143  S    
C97   C111  S    
S14   O97   D    
S29   O154  D    
C97   O20   A    
C94   C164  S    
C27   C47   S    
C60   C170  S    
C37   C95   S    
C135  S17   S    
S9    O82   D    
C162  C166  S    
C55   S5    S    
C56   S6    S    
S16   O103  D    
C18   H18   S    
O60   H36   S    
C57   C70   S    
C121  S3    S    
C15   H15   S    
C68   O40   A    
S10   O84   D    
C59   C169  S    
O80   H44   S    
S17   O106  D    
Cu8   O6    S    
O54   H34   S    
C130  C145  S    
C33   C46   S    
C82   O44   A    
C133  C152  S    
C31   C49   S    
S13   O94   D    
S28   O151  D    
C104  C118  S    
C121  C167  S    
C108  S14   S    
C122  C168  S    
C40   C148  S    
S7    O75   D    
S25   O131  S    
S15   O99   D    
C151  C173  S    
C60   C71   S    
C19   C147  T    
C56   C60   S    
C105  C124  S    
C129  S23   S    
Cu7   O3    S    
Cu11  O13   S    
C48   C54   S    
O152  H70   S    
C170  O63   D    
C16   H16   S    
Cu9   O15   S    
Cu2   O38   S    
O64   H38   S    
C38   C54   T    
S4    O60   S    
C28   C32   S    
C134  C152  S    
C103  H7    S    
S19   O112  D    
Cu9   O11   S    
C117  C127  S    
Cu8   O10   S    
C61   C72   S    
C58   S8    S    
C6    C164  S    
C1    O1    A    
C4    C162  S    
C103  C118  S    
C108  C123  S    
C64   C68   S    
O68   H40   S    
C136  C151  S    
O122  H58   S    
C92   C162  S    
O77   H43   S    
C68   O38   A    
S24   O126  D    
C6    C10   S    
C40   O34   A    
O128  H60   S    
C87   O9    A    
Cu7   O43   S    
O125  H59   S    
Cu2   O2    S    
C20   C166  S    
C60   C75   S    
S22   O122  S    
C132  C146  S    
C108  C116  S    
Cu5   O46   S    
Cu11  O25   S    
C5    H21   S    
C2    O28   A    
Cu2   Cu4   S    
C135  C151  S    
S8    O79   D    
C83   O45   A    
O86   H46   S    
Cu6   Cu8   S    
C112  C128  T    
Cu12  O26   S    
C3    C161  S    
Cu11  Cu12  S    
C27   C43   S    
O74   H42   S    
C31   C45   S    
C38   C96   S    
C174  O137  D    
C45   C51   S    
C82   O42   A    
C85   C159  S    
C86   C160  S    
S18   O110  S    
C136  S18   S    
S30   O156  D    
S5    O69   D    
C14   C18   S    
C90   O13   A    
S19   O111  D    
C4    C8    S    
C75   H3    S    
O140  H65   S    
C47   C49   S    
C119  S1    S    
Cu5   O45   S    
S6    O74   S    
Cu12  O18   S    
C107  S13   S    
C82   C110  S    
C84   O46   A    
C103  C113  S    
S12   O91   D    
C6    H22   S    
C12   C166  S    
C24   C158  T    
C13   C167  S    
Cu4   O36   S    
C46   C52   S    
C62   C172  S    
Cu12  O14   S    
C69   C71   S    
C85   O5    A    
C95   O16   A    
C39   O33   A    
C33   H29   S    
S20   O115  D    
C94   C122  S    
C3    H19   S    
C173  O135  D    
C102  C108  S    
C87   O7    A    
C123  H9    S    
Cu10  O16   S    
C70   S10   S    
C10   C26   S    
C7    C91   S    
C116  C126  S    
C41   O35   A    
C12   C176  S    
Cu10  O12   S    
C118  C128  S    
C87   C137  S    
S24   O128  S    
C42   C150  S    
S27   O149  S    
S26   O133  D    
C32   C49   S    
C63   C67   S    
C34   C50   S    
C114  H12   S    
Cu3   O34   S    
C134  S16   S    
C31   H27   S    
C177  O143  D    
S1    O50   D    
C21   C167  S    
C89   C139  S    
C169  O61   D    
C88   O8    A    
C163  H25   S    
S7    O76   D    
C57   C74   S    
C163  C167  S    
C122  S4    S    
Cu8   O44   S    
S26   O134  S    
C99   O23   A    
C175  O139  D    
C49   H31   S    
C20   C148  T    
C44   H2    S    
C62   C72   S    
C100  O25   A    
C29   S29   S    
S21   O117  D    
C145  C151  S    
C146  C152  S    
C9    C17   S    
C135  C144  S    
C18   C122  S    
C56   C69   S    
C96   O18   A    
C111  C127  T    
S5    O71   S    
C32   H28   S    
C39   C147  S    
C9    C93   S    
C1    C35   S    
C63   C77   T    
C17   C121  S    
S3    O56   D    
S6    O72   D    
S22   O121  D    
C62   C76   S    
C161  H23   S    
C130  C136  S    
C81   C109  S    
C131  C133  S    
C36   C52   T    
Cu9   O19   S    
S11   O89   S    
C115  C125  S    
O83   H45   S    
C117  C123  S    
C172  O68   S    
S29   O153  D    
C97   O19   A    
C98   O21   A    
Cu3   O27   S    
C61   C171  S    
C42   O32   A    
C171  O66   S    
C88   O10   A    
C129  C145  S    
S9    O81   D    
Cu5   O7    S    
S2    O52   D    
C145  C155  S    
C146  C156  S    
C27   S27   S    
C70   C72   S    
O98   H50   S    
C76   H4    S    
C40   O30   A    
C84   O4    A    
C59   C71   S    
C67   O39   A    
