data_mof_unit_68211.cif
_audit_creation_date              2013-03-05T16:03:15-0500
_audit_creation_method            fapswitch 2.2
_symmetry_space_group_name_H-M    P1
_symmetry_Int_Tables_number       1
_space_group_crystal_system       triclinic
_cell_length_a                    7.044473
_cell_length_b                    13.93814
_cell_length_c                    16.497276
_cell_angle_alpha                 89.479681
_cell_angle_beta                  91.125868
_cell_angle_gamma                 90.370113
_cell_volume                      1619.40412097

loop_
_atom_site_label
_atom_site_type_symbol
_atom_site_description
_atom_site_fract_x
_atom_site_fract_y
_atom_site_fract_z
_atom_type_partial_charge
O1    O     O_R   0.361630 0.167340 0.164570 -0.576713
O2    O     O_R   0.638370 0.832660 0.835430 -0.618965
O3    O     O_R   0.690860 0.157560 0.338690 -0.606397
O4    O     O_R   0.309140 0.842440 0.661310 -0.614671
O5    O     O_R   0.861260 0.336420 0.339380 -0.614514
O6    O     O_R   0.138740 0.663580 0.660620 -0.613931
C1    C     C_R   0.523310 0.130642 0.364312 0.886340
C2    C     C_R   0.476132 0.864117 0.631729 0.955638
O7    O     O_R   0.691330 0.156310 0.165190 -0.564747
O8    O     O_R   0.308670 0.843690 0.834810 -0.577978
O9    O     O_R   0.861730 0.335160 0.164640 -0.542404
O10   O     O_R   0.138270 0.664840 0.835360 -0.613218
C3    C     C_R   0.519900 0.130657 0.139017 0.912796
C4    C     C_R   0.481087 0.870296 0.860391 0.895219
O11   O     O_R   0.361150 0.168600 0.339320 -0.579495
O12   O     O_R   0.638850 0.831400 0.660680 -0.571760
O13   O     O_3   0.527950 0.310560 0.252000 -0.264189
O14   O     O_3   0.472050 0.689440 0.748000 -0.266218
V1    V     V_3+5 0.802770 0.240990 0.251980 1.189250
V2    V     V_3+5 0.197230 0.759010 0.748020 1.151547
O15   O     O_R   0.191450 0.346190 0.165260 -0.602771
O16   O     O_R   0.808550 0.653810 0.834740 -0.532979
C5    C     C_R   0.021854 0.367808 0.136869 0.872202
C6    C     C_R   0.978113 0.636113 0.865959 0.893662
O17   O     O_R   0.190980 0.347440 0.338770 -0.583547
O18   O     O_R   0.809020 0.652560 0.661230 -0.582221
C7    C     C_R   0.023494 0.369460 0.367573 0.897887
C8    C     C_R   0.976568 0.629688 0.633138 0.901979
V3    V     V_3+5 0.302780 0.262760 0.251980 1.190172
V4    V     V_3+5 0.697220 0.737240 0.748020 1.191399
O19   O     O_3   0.027730 0.193200 0.251960 -0.260779
O20   O     O_3   0.972270 0.806800 0.748040 -0.290544
C9    C     C_3   0.829288 0.484357 0.468408 0.072604
C10   C     C_3   0.170306 0.513708 0.533303 0.067788
C11   C     C_3   0.885224 0.460592 0.557373 -0.205588
C12   C     C_3   0.114424 0.537346 0.444468 -0.217735
H1    H     H_    0.792229 0.428011 0.603564 0.178389
H2    H     H_    0.210034 0.567516 0.398495 0.188069
C13   C     C_3   0.986164 0.559269 0.563283 -0.184475
C14   C     C_3   0.013624 0.438791 0.438395 -0.175268
C15   C     C_3   0.928119 0.583433 0.474625 -0.140433
C16   C     C_3   0.071638 0.414698 0.527116 -0.143502
H3    H     H_    0.866724 0.652771 0.453884 0.160432
H4    H     H_    0.134340 0.346554 0.549359 0.136217
C17   C     C_R   0.989239 0.704557 0.040266 -0.141421
C18   C     C_R   0.004783 0.298604 0.963576 -0.183492
C19   C     C_R   0.987239 0.730929 0.122054 -0.114152
C20   C     C_R   0.015162 0.273957 0.881563 -0.117203
C21   C     C_R   0.981304 0.662943 0.183671 0.241791
C22   C     C_R   0.031233 0.342558 0.820546 0.238024
C23   C     C_R   0.990370 0.566163 0.164377 -0.270244
C24   C     C_R   0.022033 0.438669 0.840379 -0.288384
C25   C     C_R   0.999192 0.534569 0.082999 0.098241
C26   C     C_R   0.006952 0.469525 0.921349 0.114959
C27   C     C_R   0.992386 0.604028 0.018552 0.019414
C28   C     C_R   0.008192 0.399578 0.985591 0.031690
C29   C     C_R   0.009202 0.434321 0.066905 -0.181069
C30   C     C_R   0.992027 0.569634 0.936933 -0.194151
H5    H     H_    0.977493 0.806014 0.138240 0.179197
H6    H     H_    0.014066 0.199111 0.864809 0.176758
H7    H     H_    0.986361 0.515750 0.214555 0.112355
H8    H     H_    0.028283 0.489210 0.790351 0.117040
C31   C     C_3   0.342886 0.988216 0.447413 -0.265716
C32   C     C_3   0.657268 0.996412 0.541818 -0.184333
C33   C     C_3   0.475314 0.902845 0.469066 -0.043998
C34   C     C_3   0.523933 0.081607 0.521424 -0.004662
H9    H     H_    0.220368 0.985777 0.404936 0.155064
H10   H     H_    0.782889 0.998583 0.581888 0.204667
C35   C     C_3   0.482367 0.932514 0.558682 -0.293078
C36   C     C_3   0.518156 0.053650 0.431287 -0.244154
C37   C     C_3   0.350473 0.017304 0.537549 0.264968
C38   C     C_3   0.650065 0.966743 0.451283 0.294802
H11   H     H_    0.474552 0.799239 0.237189 0.179660
H12   H     H_    0.664652 0.198018 0.774282 0.218032
C39   C     C_R   0.516702 0.203113 0.967534 -0.157377
C40   C     C_R   0.491457 0.794275 0.032136 -0.174236
C41   C     C_R   0.548476 0.236821 0.887782 0.168392
C42   C     C_R   0.498506 0.758785 0.112878 0.230470
C43   C     C_R   0.608886 0.171532 0.830790 -0.144973
C44   C     C_R   0.483619 0.824278 0.175415 -0.259825
C45   C     C_R   0.616853 0.073268 0.848282 -0.109676
C46   C     C_R   0.451799 0.921432 0.159333 -0.121165
C47   C     C_R   0.542765 0.035550 0.922003 0.053388
C48   C     C_R   0.481586 0.961645 0.080722 0.166341
C49   C     C_R   0.516455 0.101419 0.986744 0.113567
C50   C     C_R   0.490647 0.896371 0.014198 0.115538
C51   C     C_R   0.503383 0.934829 0.933200 -0.273060
C52   C     C_R   0.500329 0.063872 0.067763 -0.242306
C53   C     C_3   0.173948 0.041841 0.582856 -0.330357
C54   C     C_3   0.066975 0.124045 0.540368 -0.941561
H13   H     H_    0.163844 0.184743 0.527147 0.241525
H14   H     H_    0.003019 0.100341 0.481977 0.263649
H15   H     H_    0.952382 0.149919 0.579389 0.297638
H16   H     H_    0.084376 0.976521 0.585554 0.188273
H17   H     H_    0.216913 0.059510 0.645645 0.209466
C55   C     C_3   0.824859 0.926437 0.410458 -0.481735
C56   C     C_3   0.854241 0.966157 0.325408 -0.723053
H18   H     H_    0.718021 0.973872 0.291652 0.220339
H19   H     H_    0.930621 0.035613 0.328796 0.283124
H20   H     H_    0.942446 0.917056 0.290633 0.254521
H21   H     H_    0.950181 0.940386 0.449565 0.175763
H22   H     H_    0.813615 0.847638 0.407715 0.241762
C57   C     C_2   0.472126 0.277317 0.027131 0.489684
H23   H     H_    0.334165 0.278482 0.052206 0.013828
O21   O     O_2   0.587118 0.339400 0.045779 -0.572050
C58   C     C_2   0.463305 0.721001 0.969339 0.461359
H24   H     H_    0.330677 0.718973 0.937458 0.080516
O22   O     O_2   0.580234 0.658933 0.957816 -0.597284
C59   C     C_3   0.527712 0.344168 0.867557 -0.357041
C60   C     C_3   0.536358 0.376067 0.778729 -0.780173
H25   H     H_    0.684024 0.388359 0.760788 0.239910
H26   H     H_    0.469624 0.324166 0.736906 0.295248
H27   H     H_    0.462016 0.445725 0.771197 0.272624
H28   H     H_    0.388536 0.367882 0.889954 0.197844
H29   H     H_    0.637576 0.385423 0.901515 0.246668
C61   C     C_3   0.505532 0.649496 0.128165 -0.341235
C62   C     C_3   0.494454 0.608786 0.214285 -0.796355
H30   H     H_    0.564946 0.653740 0.260392 0.283499
H31   H     H_    0.345214 0.595519 0.230058 0.259444
H32   H     H_    0.564494 0.537576 0.216542 0.267907
H33   H     H_    0.387628 0.614788 0.093419 0.205289
H34   H     H_    0.638575 0.622707 0.102618 0.236134
C63   C     C_2   0.747433 0.017829 0.798367 0.505803
H35   H     H_    0.845751 0.968038 0.827224 0.083271
O23   O     O_2   0.753963 0.031068 0.725371 -0.609843
C64   C     C_2   0.343678 0.970310 0.221848 0.459490
H36   H     H_    0.386892 0.963581 0.284696 -0.014023
O24   O     O_2   0.193172 0.008702 0.204180 -0.544580
C65   C     C_2   0.637207 0.468601 0.430802 0.529235
H37   H     H_    0.566962 0.399524 0.436691 0.027799
O25   O     O_2   0.559704 0.533166 0.392805 -0.621714
C66   C     C_2   0.362935 0.529610 0.570291 0.508803
H38   H     H_    0.432012 0.599099 0.564881 0.044904
O26   O     O_2   0.442559 0.464562 0.606849 -0.647805
C67   C     C_3   0.055514 0.315775 0.732813 -0.406849
C68   C     C_3   0.152947 0.219946 0.721997 -0.895351
H39   H     H_    0.259731 0.205389 0.770371 0.268766
H40   H     H_    0.045413 0.161492 0.722953 0.284066
H41   H     H_    0.227819 0.221590 0.663783 0.287843
H42   H     H_    0.916047 0.312969 0.700796 0.213822
H43   H     H_    0.141905 0.372013 0.702370 0.219353
C69   C     C_3   0.945401 0.693904 0.269353 -0.387214
C70   C     C_3   0.115712 0.744146 0.307741 -0.927879
H44   H     H_    0.235571 0.694876 0.316079 0.293576
H45   H     H_    0.160187 0.805555 0.269869 0.265340
H46   H     H_    0.077908 0.770442 0.368279 0.243078
H47   H     H_    0.825046 0.744860 0.268943 0.221567
H48   H     H_    0.905558 0.631467 0.307729 0.216143
C71   C     C_2   0.976428 0.787042 0.982834 0.457804
H49   H     H_    0.885209 0.785106 0.930277 0.083607
O27   O     O_2   0.060145 0.862182 0.997124 -0.572456
C72   C     C_2   0.992657 0.213186 0.019704 0.534806
H50   H     H_    0.040021 0.213120 0.081659 0.068507
O28   O     O_2   0.936918 0.135481 0.994834 -0.580367
C73   C     C_2   0.430977 0.801091 0.446478 0.446372
H51   H     H_    0.311219 0.764998 0.474001 0.000955
O29   O     O_2   0.528022 0.757819 0.398838 -0.617278
C74   C     C_2   0.552662 0.181758 0.551583 0.486826
H52   H     H_    0.527494 0.242424 0.511314 -0.015921
O30   O     O_2   0.598403 0.195701 0.622097 -0.597858

loop_
_geom_bond_atom_site_label_1
_geom_bond_atom_site_label_2
_geom_bond_distance
_ccdc_geom_bond_type
C70   H46   1.105017 S    
C18   C72   1.504636 S    
C31   C33   1.551542 S    
C64   H36   1.078269 S    
C55   H22   1.101927 S    
C73   O29   1.218139 D    
O13   V3    1.716465 S    
C47   C51   1.440207 A    
C23   H7    1.081620 S    
O4    C2    1.314752 A    
V1    O19   1.722995 S    
C1    C36   1.534052 S    
C56   H18   1.105327 S    
C71   H49   1.069456 S    
C67   C68   1.519196 S    
C13   C15   1.545698 S    
C28   C29   1.430185 A    
O9    V1    1.988353 S    
C2    C35   1.530892 S    
C61   H34   1.103781 S    
C45   C63   1.473716 S    
C32   H10   1.094538 S    
C11   H1    1.107045 S    
C40   C42   1.416758 A    
C4    C51   1.512242 S    
O3    C1    1.312837 A    
C22   C67   1.511231 S    
C62   H31   1.102061 S    
V2    O20   1.722994 S    
C9    C11   1.545696 S    
C42   C44   1.389715 A    
C63   O23   1.218353 D    
C58   H24   1.063454 S    
O12   V4    1.979132 S    
C70   H44   1.097556 S    
C39   C57   1.472999 S    
C61   C62   1.528305 S    
C5    C29   1.475544 S    
C17   C19   1.402042 A    
C53   H16   1.105425 S    
C35   C37   1.541256 S    
C11   C16   1.557319 S    
O7    C3    1.322646 A    
C60   H25   1.099051 S    
C46   C64   1.469086 S    
C56   H19   1.105853 S    
O5    C7    1.307945 A    
O7    V1    2.008467 S    
O6    C8    1.307815 A    
C33   C73   1.499055 S    
O8    V2    2.008468 S    
C66   H38   1.084840 S    
C21   C23   1.390948 A    
C10   C16   1.544464 S    
C22   C24   1.384088 A    
O3    V1    2.005556 S    
O14   V4    1.716465 S    
O14   V2    2.170831 S    
C54   H15   1.106571 S    
C20   H6    1.081574 S    
C14   C16   1.546425 S    
C10   C66   1.492935 S    
C2    O12   1.315779 A    
C55   H21   1.100497 S    
C21   C69   1.508237 S    
C74   O30   1.217942 D    
C15   H3    1.109831 S    
C12   C15   1.557229 S    
C16   H4    1.106612 S    
C68   H41   1.104704 S    
C45   C47   1.427475 A    
C24   C26   1.413225 A    
O11   V3    1.979133 S    
C18   C20   1.402345 A    
C25   C27   1.431737 A    
O17   V3    2.037251 S    
C67   H42   1.106913 S    
C26   C28   1.433442 A    
C73   H51   1.084610 S    
C9    C14   1.541552 S    
C61   H33   1.110676 S    
C10   C13   1.540173 S    
C6    C30   1.488651 S    
C69   H48   1.109387 S    
C12   C14   1.545416 S    
C17   C71   1.485200 S    
C19   C21   1.384423 A    
O8    C4    1.329558 A    
C62   H32   1.111260 S    
C43   C45   1.398381 A    
C25   C29   1.427088 A    
C50   C51   1.439442 A    
C1    O11   1.319147 A    
C8    C13   1.523303 S    
O15   V3    1.987844 S    
C23   C25   1.419326 A    
O4    V2    2.005560 S    
C53   H17   1.102988 S    
C11   C13   1.547206 S    
C31   H9    1.101546 S    
C54   H14   1.107651 S    
C34   C37   1.536712 S    
C37   C53   1.506214 S    
C31   C36   1.555942 S    
C7    C14   1.525883 S    
C55   C56   1.521132 S    
O10   V2    1.988353 S    
O1    V3    2.021287 S    
C41   C43   1.389053 A    
C57   O21   1.218858 D    
C32   C35   1.543842 S    
C41   C59   1.537278 S    
C20   C22   1.387793 A    
C39   C41   1.414534 A    
C60   H27   1.110934 S    
C59   H28   1.107991 S    
C44   C46   1.396212 A    
C47   C49   1.430308 A    
C72   O28   1.221385 D    
O18   V4    2.037253 S    
C46   C48   1.426888 A    
H12   C43   1.079773 S    
O15   C5    1.310575 A    
C74   H52   1.083908 S    
O16   C6    1.315376 A    
O1    C3    1.308407 A    
C12   H2    1.102855 S    
C40   C50   1.450863 A    
C34   C74   1.497363 S    
C56   H20   1.100104 S    
C64   O24   1.219738 D    
C68   H40   1.109126 S    
C39   C49   1.449606 A    
C65   H37   1.084127 S    
C26   C30   1.426023 A    
C49   C52   1.437284 A    
C9    C65   1.493207 S    
C70   H45   1.102562 S    
C63   H35   1.084074 S    
C40   C58   1.471103 S    
O16   V4    1.987843 S    
C69   H47   1.109402 S    
C42   C61   1.542701 S    
C48   C52   1.444466 A    
C31   C37   1.544654 S    
C68   H39   1.104244 S    
O5    V1    2.005579 S    
O17   C7    1.319614 A    
C33   C38   1.545954 S    
O6    V2    2.005581 S    
O10   C6    1.304188 A    
O18   C8    1.318535 A    
O2    V4    2.021283 S    
C9    C15   1.545815 S    
C71   O27   1.221177 D    
V3    O19   2.161004 S    
C24   H8    1.081583 S    
C59   C60   1.529757 S    
V4    O20   2.161003 S    
C54   H13   1.106347 S    
C34   C36   1.540346 S    
C58   O22   1.217130 D    
C33   C35   1.538552 S    
C3    C52   1.509686 S    
O9    C5    1.303540 A    
O13   V1    2.170831 S    
H11   C44   1.077157 S    
C10   C12   1.543228 S    
C32   C38   1.553170 S    
O2    C4    1.304502 A    
C60   H26   1.101046 S    
C59   H29   1.107486 S    
C19   H5    1.085352 S    
C38   C55   1.527671 S    
C67   H43   1.111633 S    
C72   H50   1.068917 S    
C17   C27   1.449806 A    
C66   O26   1.218088 D    
C27   C30   1.433340 A    
C18   C28   1.456618 A    
C57   H23   1.063973 S    
C69   C70   1.515979 S    
C48   C50   1.434531 A    
C36   C38   1.560392 S    
C53   C54   1.532246 S    
C62   H30   1.098879 S    
C32   C34   1.549273 S    
C65   O25   1.218005 D    
