data_mof_unit_31228.cif
_audit_creation_date              2012-12-10T20:45:29-0500
_audit_creation_method            fapswitch 2.2
_symmetry_space_group_name_H-M    P1
_symmetry_Int_Tables_number       1
_space_group_crystal_system       triclinic
_cell_length_a                    10.756891
_cell_length_b                    10.722628
_cell_length_c                    9.860652
_cell_angle_alpha                 88.559286
_cell_angle_beta                  89.288897
_cell_angle_gamma                 91.375788
_cell_volume                      1136.56501916

loop_
_atom_site_label
_atom_site_type_symbol
_atom_type_description
_atom_site_fract_x
_atom_site_fract_y
_atom_site_fract_z
_atom_type_partial_charge
C1    C     C_R   0.499631 0.259960 0.501291 0.879280
C2    C     C_R   0.285339 0.804319 0.109289 -0.102265
C3    C     C_R   0.940903 0.593101 0.407166 0.332317
C4    C     C_R   0.873674 0.511535 0.499352 -0.228253
C5    C     C_R   0.935653 0.436541 0.595984 -0.041614
C6    C     C_R   0.063157 0.439621 0.597122 -0.237154
C7    C     C_R   0.129141 0.510945 0.500293 -0.131573
C8    C     C_R   0.070335 0.587175 0.403606 -0.141339
C9    C     C_R   0.856650 0.387557 0.831376 -0.117291
C10   C     C_R   0.792172 0.309348 0.925115 -0.135987
C11   C     C_R   0.743120 0.194404 0.884817 -0.110022
C12   C     C_R   0.260596 0.502514 0.500363 0.879360
C13   C     C_R   0.758139 0.157691 0.750648 -0.106223
C14   C     C_R   0.820797 0.236472 0.656009 -0.151834
C15   C     C_R   0.870485 0.351832 0.696014 0.148398
C16   C     C_R   0.473308 0.058550 0.618910 0.115429
C17   C     C_R   0.508111 0.128136 0.502975 -0.101024
C18   C     C_R   0.555933 0.069234 0.388624 -0.255079
C19   C     C_R   0.554307 0.940492 0.385483 -0.155366
C20   C     C_R   0.508452 0.871752 0.498401 -0.106863
C21   C     C_R   0.474713 0.931163 0.616231 0.123453
C22   C     C_3   0.356217 0.914490 0.694870 -0.473201
C23   C     C_R   0.500173 0.739841 0.498648 0.927778
C24   C     C_3   0.352374 0.054948 0.696351 -0.501070
C25   C     C_R   0.412788 0.431588 0.074410 0.224872
C26   C     C_R   0.574490 0.580442 0.068710 -0.139449
C27   C     C_R   0.575881 0.579352 0.924662 -0.123978
C28   C     C_R   0.412118 0.432534 0.931955 0.209435
C29   C     C_3   0.391245 0.295438 0.930359 -0.536952
C30   C     C_3   0.392304 0.294042 0.084120 -0.506758
C31   C     C_R   0.740252 0.504791 0.499245 0.955496
C32   C     C_R   0.272545 0.845799 0.241745 -0.117230
C33   C     C_R   0.203692 0.774467 0.337912 -0.078553
C34   C     C_R   0.144534 0.662513 0.301206 0.219111
C35   C     C_R   0.156870 0.621630 0.167554 -0.042934
C36   C     C_R   0.227434 0.692406 0.072051 -0.131522
H1    H     H_    0.339775 0.859304 0.035691 0.118501
H2    H     H_    0.693504 0.133795 0.957533 0.127882
H3    H     H_    0.721072 0.068239 0.719940 0.143452
H4    H     H_    0.830651 0.207802 0.551948 0.130376
H5    H     H_    0.589378 0.122090 0.299927 0.166304
H6    H     H_    0.583304 0.895870 0.293503 0.207505
H7    H     H_    0.279841 0.871269 0.636445 0.193737
H8    H     H_    0.371430 0.870395 0.796193 0.201325
H9    H     H_    0.274358 0.094603 0.637580 0.204578
H10   H     H_    0.361176 0.087432 0.800927 0.208247
H11   H     H_    0.634010 0.645334 0.120496 0.227466
H12   H     H_    0.639181 0.641354 0.867804 0.168855
H13   H     H_    0.298522 0.271257 0.888539 0.198915
H14   H     H_    0.472031 0.247953 0.885314 0.226506
H15   H     H_    0.300683 0.267653 0.131186 0.205056
H16   H     H_    0.473084 0.244705 0.127077 0.212055
H17   H     H_    0.193592 0.807486 0.439886 0.102329
H18   H     H_    0.112575 0.534891 0.137939 0.106031
H19   H     H_    0.237281 0.660521 0.969266 0.125951
H20   H     H_    0.111428 0.381430 0.670173 0.157592
H21   H     H_    0.894070 0.476578 0.863495 0.140784
N1    N     N_R   0.499160 0.499140 0.142800 -0.116258
N2    N     N_R   0.499160 0.499180 0.857150 -0.108707
O1    O     O_R   0.500020 0.316790 0.614690 -0.611326
O2    O     O_R   0.500000 0.316760 0.385350 -0.634690
O3    O     O_R   0.316770 0.500030 0.614670 -0.626598
O4    O     O_R   0.316750 0.499990 0.385330 -0.626019
O5    O     O_R   0.500000 0.683240 0.614650 -0.631725
O6    O     O_R   0.499980 0.683210 0.385310 -0.592013
O7    O     O_R   0.683250 0.500010 0.614670 -0.613022
O8    O     O_R   0.683230 0.499970 0.385330 -0.593376
Zn1   Zn    Zn3+2 0.500010 0.500020 0.653130 0.957184
Zn2   Zn    Zn3+2 0.499990 0.499980 0.346870 0.972236
H22   H     H_    0.315561 0.933479 0.269761 0.136384
S1    S     S_3+6 0.869163 0.706524 0.299390 -0.000146
O9    O     O_2   0.740724 0.734471 0.346634 -0.334098
O10   O     O_2   0.942983 0.827285 0.297381 -0.274692
O11   O     O_3   0.865519 0.653459 0.140418 -0.569781
H23   H     H_    0.850634 0.562149 0.150938 0.322704
H24   H     H_    0.780168 0.337856 0.028919 0.129099

loop_
_geom_bond_atom_site_label_1
_geom_bond_atom_site_label_2
_ccdc_geom_bond_type
C27   H12   S    
C31   O7    A    
O7    Zn1   S    
C30   H15   S    
C16   C21   A    
C35   C36   A    
C7    C8    A    
C29   H13   S    
C25   C28   A    
C31   O8    A    
C26   C27   A    
C24   H9    S    
O5    Zn1   S    
C28   C29   S    
C18   C19   A    
C5    C6    A    
O2    Zn2   S    
C2    C32   A    
C34   C35   A    
C10   H24   S    
C22   H8    S    
C19   C20   A    
C16   C17   A    
C9    C10   A    
C19   H6    S    
C16   C24   S    
C21   C22   S    
C35   H18   S    
C17   C18   A    
C29   H14   S    
C33   H17   S    
C7    C12   S    
C5    C15   S    
O11   H23   S    
O4    Zn2   S    
C3    C8    A    
C18   H5    S    
S1    O10   D    
C12   O4    A    
C32   H22   S    
O8    Zn2   S    
C11   H2    S    
C3    S1    S    
C29   C30   S    
N2    Zn1   S    
C12   O3    A    
C22   H7    S    
C20   C23   S    
C33   C34   A    
C8    C34   S    
C26   N1    A    
C26   H11   S    
C23   O5    A    
C22   C24   S    
C1    O1    A    
C25   N1    A    
C3    C4    A    
C28   N2    A    
C2    C36   A    
C25   C30   S    
C30   H16   S    
C6    H20   S    
C4    C5    A    
C1    O2    A    
S1    O11   S    
N1    Zn2   S    
C6    C7    A    
C1    C17   S    
O3    Zn1   S    
C24   H10   S    
C32   C33   A    
C23   O6    A    
C9    C15   A    
S1    O9    D    
C36   H19   S    
C27   N2    A    
C11   C13   A    
C2    H1    S    
O6    Zn2   S    
C9    H21   S    
C13   H3    S    
C4    C31   S    
C10   C11   A    
C14   H4    S    
C20   C21   A    
O1    Zn1   S    
C14   C15   A    
C13   C14   A    
