data_mof_unit_10182.cif
_audit_creation_date              2012-12-10T16:59:21-0500
_audit_creation_method            fapswitch 2.2
_symmetry_space_group_name_H-M    P1
_symmetry_Int_Tables_number       1
_space_group_crystal_system       triclinic
_cell_length_a                    7.725271
_cell_length_b                    8.557005
_cell_length_c                    27.691288
_cell_angle_alpha                 90.820354
_cell_angle_beta                  86.331671
_cell_angle_gamma                 93.662121
_cell_volume                      1822.96074855

loop_
_atom_site_label
_atom_site_type_symbol
_atom_type_description
_atom_site_fract_x
_atom_site_fract_y
_atom_site_fract_z
_atom_type_partial_charge
C1    C     C_R   0.545932 0.794891 0.498728 0.972715
C2    C     C_R   0.510220 0.647938 0.127398 -0.012639
C3    C     C_R   0.512434 0.497719 0.646958 -0.060554
C4    C     C_R   0.487479 0.501944 0.353047 -0.060640
C5    C     C_R   0.548886 0.639633 0.025300 0.068617
C6    C     C_R   0.450881 0.359193 0.974708 0.068608
C7    C     C_R   0.424420 0.366541 0.025843 0.022531
C8    C     C_R   0.575371 0.632277 0.974167 0.022532
C9    C     C_R   0.476557 0.505519 0.050923 0.070288
C10   C     C_R   0.523219 0.493306 0.949086 0.070286
C11   C     C_R   0.590073 0.778000 0.051911 -0.233201
C12   C     C_R   0.454068 0.205108 0.501271 0.972677
C13   C     C_R   0.409655 0.220841 0.948095 -0.233203
C14   C     C_R   0.573235 0.781024 0.101914 -0.161618
C15   C     C_R   0.426477 0.217829 0.898091 -0.161586
C16   C     C_R   0.503182 0.500318 0.594116 0.880459
C17   C     C_R   0.496802 0.499617 0.405886 0.880211
C18   C     C_R   0.656381 0.758741 0.947206 -0.281966
C19   C     C_R   0.343444 0.240068 0.052807 -0.281963
C20   C     C_2   0.570270 0.958308 0.497989 -0.374095
C21   C     C_2   0.429730 0.041692 0.502009 -0.374032
C22   C     C_R   0.618537 0.613970 0.820611 0.522880
C23   C     C_R   0.542845 0.488291 0.897787 -0.091574
C24   C     C_R   0.381243 0.384879 0.179402 0.522861
C25   C     C_R   0.498028 0.350220 0.822134 0.511305
C26   C     C_R   0.501678 0.648654 0.177872 0.511352
C27   C     C_R   0.686152 0.459028 0.715337 -0.098866
C28   C     C_R   0.313988 0.541351 0.284667 -0.099221
C29   C     C_R   0.671302 0.465112 0.665771 -0.252890
C30   C     C_R   0.328933 0.535645 0.334234 -0.252644
C31   C     C_R   0.366891 0.525362 0.679063 0.090252
C32   C     C_R   0.632594 0.472785 0.320946 0.090081
C33   C     C_R   0.384108 0.517718 0.728903 -0.139976
C34   C     C_R   0.456922 0.510544 0.102223 -0.091573
C35   C     C_R   0.615305 0.480081 0.271102 -0.140039
C36   C     C_R   0.542647 0.484980 0.746711 0.299990
C37   C     C_R   0.457094 0.513938 0.253294 0.300032
C38   C     C_R   0.613959 0.620505 0.871533 -0.032812
C39   C     C_R   0.385833 0.378327 0.128480 -0.032825
C40   C     C_R   0.675349 0.754475 0.896883 0.136932
C41   C     C_R   0.324470 0.244344 0.103131 0.136923
C42   C     C_R   0.489507 0.350916 0.872608 -0.012641
H1    H     H_    0.014252 0.383520 0.463406 0.193291
H2    H     H_    0.388985 0.109931 0.879428 0.192451
H3    H     H_    0.635031 0.887564 0.035488 0.142561
H4    H     H_    0.364665 0.111281 0.964516 0.142559
H5    H     H_    0.709701 0.863801 0.963902 0.140852
H6    H     H_    0.290159 0.134990 0.036112 0.140848
H7    H     H_    0.702965 0.009440 0.494148 0.180644
H8    H     H_    0.297034 0.990560 0.505850 0.180653
H9    H     H_    0.106417 0.560612 0.689434 0.180379
H10   H     H_    0.218720 0.678322 0.649133 0.198545
H11   H     H_    0.892495 0.434783 0.310545 0.180981
H12   H     H_    0.985748 0.616478 0.536594 0.193199
H13   H     H_    0.779015 0.318909 0.351148 0.198401
H14   H     H_    0.884576 0.906157 0.884192 0.183634
H15   H     H_    0.690622 0.985702 0.881638 0.194073
H16   H     H_    0.115241 0.092674 0.115827 0.183636
H17   H     H_    0.309192 0.013113 0.118375 0.194046
H18   H     H_    0.275000 0.539051 0.754181 0.133326
H19   H     H_    0.724089 0.457658 0.245823 0.133337
H20   H     H_    0.215752 0.558340 0.357816 0.181674
H21   H     H_    0.784825 0.443596 0.642191 0.181585
H22   H     H_    0.191480 0.567138 0.270568 0.141209
H23   H     H_    0.808904 0.434111 0.729438 0.140765
H24   H     H_    0.610701 0.888933 0.120575 0.192432
N1    N     N_R   0.557464 0.481636 0.797607 -0.361836
N2    N     N_R   0.442271 0.517236 0.202401 -0.361857
N3    N     N_2   0.950320 0.457960 0.486880 -0.172176
N4    N     N_2   0.049680 0.542040 0.513120 -0.172211
N5    N     N_3   0.203762 0.562913 0.661364 -0.428504
N6    N     N_3   0.795314 0.434007 0.338657 -0.428530
N7    N     N_3   0.759391 0.887403 0.872080 -0.365229
N8    N     N_3   0.240433 0.111419 0.127937 -0.365257
O1    O     O_R   0.389250 0.738570 0.503220 -0.614887
O2    O     O_2   0.320747 0.259835 0.206007 -0.512508
O3    O     O_2   0.555148 0.778509 0.202435 -0.537999
O4    O     O_2   0.444538 0.220376 0.797568 -0.537967
O5    O     O_R   0.610750 0.261430 0.496780 -0.614896
O6    O     O_R   0.678390 0.711630 0.494810 -0.628677
O7    O     O_R   0.321610 0.288370 0.505190 -0.628625
O8    O     O_R   0.355440 0.513440 0.575450 -0.595965
O9    O     O_R   0.644560 0.486560 0.424550 -0.595923
O10   O     O_R   0.644590 0.486500 0.567040 -0.635189
O11   O     O_R   0.355410 0.513500 0.432960 -0.635196
O12   O     O_2   0.679035 0.739029 0.794013 -0.512453
Zn1   Zn    Zn3+2 0.306940 0.517990 0.505620 0.954914
Zn2   Zn    Zn3+2 0.693060 0.482010 0.494380 0.954918

loop_
_geom_bond_atom_site_label_1
_geom_bond_atom_site_label_2
_ccdc_geom_bond_type
C29   H21   S    
C27   C29   A    
C25   N1    A    
C18   H5    S    
C33   C36   A    
C36   N1    S    
C39   C41   A    
C23   C42   A    
C17   O11   A    
C35   C37   A    
C15   H2    S    
C5    C11   A    
C13   H4    S    
C11   C14   A    
O8    Zn1   S    
C22   C38   A    
C37   N2    S    
C16   O10   A    
C24   C39   A    
C40   N7    S    
H15   N7    S    
C3    C29   A    
C18   C40   A    
O5    Zn2   S    
C41   N8    S    
C31   C33   A    
H13   N6    S    
C2    C34   A    
C31   N5    S    
O9    Zn2   S    
H1    N3    S    
H9    N5    S    
N4    Zn1   S    
C21   H8    S    
O11   Zn1   S    
C26   O3    S    
C34   C39   A    
C1    O1    A    
C32   C35   A    
C35   H19   S    
C19   H6    S    
C24   O2    S    
C12   C21   S    
C8    C18   A    
C25   O4    S    
C17   O9    A    
C5    C9    A    
C20   H7    S    
C27   H23   S    
H12   N4    S    
C16   O8    A    
C14   H24   S    
C2    C26   A    
O7    Zn1   S    
C3    C31   A    
H17   N8    S    
C4    C32   A    
N3    Zn2   S    
C4    C17   S    
C28   H22   S    
O1    Zn1   S    
C33   H18   S    
C7    C19   A    
C13   C15   A    
C9    C34   A    
C10   C23   A    
C11   H3    S    
H16   N8    S    
C7    C9    A    
C1    C20   S    
H14   N7    S    
O10   Zn2   S    
C15   C42   A    
C25   C42   A    
C6    C10   A    
C5    C8    A    
C6    C7    A    
C27   C36   A    
C23   C38   A    
C26   N2    A    
C30   H20   S    
O6    Zn2   S    
H10   N5    S    
C6    C13   A    
C38   C40   A    
C28   C37   A    
C28   C30   A    
C12   O7    A    
C22   O12   S    
N3    N4    D    
C2    C14   A    
C22   N1    A    
C24   N2    A    
C20   C21   D    
C8    C10   A    
C1    O6    A    
H11   N6    S    
C4    C30   A    
C3    C16   S    
C19   C41   A    
C12   O5    A    
C32   N6    S    
