data_mof_unit_25200.cif
_audit_creation_date              2012-12-10T20:34:14-0500
_audit_creation_method            fapswitch 2.2
_symmetry_space_group_name_H-M    P1
_symmetry_Int_Tables_number       1
_space_group_crystal_system       triclinic
_cell_length_a                    9.870093
_cell_length_b                    10.657566
_cell_length_c                    13.671255
_cell_angle_alpha                 90.06293
_cell_angle_beta                  84.469156
_cell_angle_gamma                 90.16443
_cell_volume                      1431.39377973

loop_
_atom_site_label
_atom_site_type_symbol
_atom_type_description
_atom_site_fract_x
_atom_site_fract_y
_atom_site_fract_z
_atom_type_partial_charge
C1    C     C_R   0.499546 0.740039 0.504359 0.874880
C2    C     C_3   0.258993 0.927141 0.465465 -0.512054
C3    C     C_R   0.922684 0.586786 0.553386 0.145138
C4    C     C_R   0.476941 0.500798 0.685452 0.919401
C5    C     C_R   0.935150 0.420980 0.440986 -0.255615
C6    C     C_R   0.080293 0.422149 0.439091 0.500801
C7    C     C_R   0.065145 0.589549 0.550757 0.005421
C8    C     C_3   0.061871 0.615229 0.657592 -0.685879
C9    C     C_3   0.905370 0.604044 0.662529 0.877652
C10   C     C_R   0.499391 0.259839 0.503933 0.866876
C11   C     C_R   0.522607 0.500585 0.314715 0.881629
C12   C     C_1   0.459537 0.506571 0.788458 -0.178383
C13   C     C_1   0.536144 0.505986 0.211964 -0.188908
C14   C     C_2   0.544406 0.517060 0.022018 -0.266927
C15   C     C_2   0.428011 0.517454 0.980412 0.530761
C16   C     C_1   0.442189 0.512151 0.875559 -0.203317
C17   C     C_1   0.543123 0.511435 0.125049 0.072190
C18   C     C_3   0.191048 0.533497 0.983460 0.106783
C19   C     C_3   0.061074 0.538643 0.052888 -0.877413
C20   C     C_3   0.147266 0.360076 0.281792 0.103491
C21   C     C_3   0.242830 0.272909 0.220047 -0.787421
C22   C     C_3   0.853092 0.494438 0.809330 0.102366
C23   C     C_R   0.373796 0.935394 0.528995 0.124553
C24   C     C_3   0.817323 0.364448 0.849961 -0.844204
C25   C     C_3   0.871377 0.791354 0.755815 0.017105
C26   C     C_3   0.751978 0.861024 0.809338 -0.811103
C27   C     C_R   0.496925 0.871080 0.523445 -0.094486
C28   C     C_R   0.617211 0.935389 0.538946 -0.215894
C29   C     C_R   0.617101 0.065176 0.538607 -0.237552
C30   C     C_R   0.496733 0.128626 0.522690 -0.103630
C31   C     C_R   0.373725 0.063463 0.528466 0.113181
C32   C     C_3   0.259414 0.069307 0.464443 -0.414844
H1    H     H_    0.111281 0.539039 0.696508 0.219941
H2    H     H_    0.210718 0.173887 0.232887 0.228427
H3    H     H_    0.239989 0.294595 0.140880 0.241283
H4    H     H_    0.348677 0.284684 0.239640 0.252048
H5    H     H_    0.103356 0.710118 0.670190 0.174582
H6    H     H_    0.776248 0.562215 0.841540 0.168624
H7    H     H_    0.954985 0.519793 0.831683 0.104174
H8    H     H_    0.890907 0.294523 0.816190 0.257172
H9    H     H_    0.821936 0.363709 0.930791 0.205351
H10   H     H_    0.713019 0.337857 0.833489 0.263190
H11   H     H_    0.941518 0.861743 0.718241 0.155704
H12   H     H_    0.165885 0.110909 0.503107 0.221466
H13   H     H_    0.925565 0.740810 0.811493 0.118181
H14   H     H_    0.679686 0.793118 0.847738 0.248563
H15   H     H_    0.789283 0.926148 0.864323 0.208381
H16   H     H_    0.698005 0.916035 0.756133 0.263839
H17   H     H_    0.642282 0.517937 0.979091 0.112171
H18   H     H_    0.712682 0.886743 0.543273 0.199535
H19   H     H_    0.712532 0.114444 0.542817 0.181902
H20   H     H_    0.291547 0.109257 0.390827 0.230212
H21   H     H_    0.165595 0.886405 0.505322 0.207943
H22   H     H_    0.289679 0.884933 0.392250 0.209119
H23   H     H_    0.181858 0.454078 0.931494 0.149201
H24   H     H_    0.885051 0.353984 0.397060 0.157965
H25   H     H_    0.201067 0.623681 0.942225 0.141990
H26   H     H_    0.069210 0.613344 0.108747 0.261684
H27   H     H_    0.972911 0.559393 0.010953 0.203465
H28   H     H_    0.043348 0.447031 0.090551 0.246197
H29   H     H_    0.176090 0.458792 0.262347 0.179191
H30   H     H_    0.042294 0.341434 0.262258 0.113514
N1    N     N_R   0.857130 0.500860 0.500650 -0.117690
N2    N     N_R   0.142770 0.500820 0.500650 -0.116309
O1    O     O_R   0.385310 0.683210 0.499990 -0.615928
O2    O     O_3   0.158455 0.336703 0.382433 -0.603270
O3    O     O_3   0.851757 0.491702 0.706436 -0.593020
O4    O     O_3   0.822033 0.711105 0.684797 -0.624669
O5    O     O_R   0.614650 0.683240 0.500000 -0.608758
O6    O     O_R   0.368820 0.499950 0.640340 -0.631927
O7    O     O_R   0.598170 0.499990 0.640350 -0.539639
O8    O     O_R   0.385350 0.316760 0.500000 -0.574069
O9    O     O_R   0.614690 0.316790 0.500010 -0.623971
O10   O     O_R   0.401830 0.500010 0.359650 -0.584268
O11   O     O_R   0.631180 0.500050 0.359660 -0.621478
O12   O     O_3   0.303353 0.515626 0.038725 -0.611321
Zn1   Zn    Zn3+2 0.346870 0.499980 0.499990 0.982317
Zn2   Zn    Zn3+2 0.653130 0.500020 0.500010 0.994388

loop_
_geom_bond_atom_site_label_1
_geom_bond_atom_site_label_2
_ccdc_geom_bond_type
C24   H10   S    
N2    Zn1   S    
C5    H24   S    
C25   H11   S    
C4    O6    A    
C7    C8    S    
C21   H4    S    
C29   C30   A    
C20   O2    S    
C28   C29   A    
C3    C7    A    
C30   C31   A    
C10   O9    A    
C14   H17   S    
C15   C16   S    
C22   H6    S    
C5    N1    A    
C2    C32   S    
C18   C19   S    
C6    N2    A    
C20   H29   S    
C32   H20   S    
C28   H18   S    
C12   C16   T    
C8    C9    S    
O10   Zn1   S    
C1    O1    A    
O9    Zn2   S    
C23   C27   A    
C4    C12   S    
C26   H16   S    
C15   O12   S    
O6    Zn1   S    
C24   H9    S    
C14   C17   S    
O5    Zn2   S    
C25   O4    S    
C19   H26   S    
C7    N2    A    
O1    Zn1   S    
C2    H22   S    
C21   H2    S    
C19   H27   S    
C25   C26   S    
C2    H21   S    
C1    O5    A    
C23   C31   A    
C9    O3    S    
O8    Zn1   S    
C3    C9    S    
C10   C30   S    
C18   H25   S    
C31   C32   S    
C32   H12   S    
C26   H15   S    
C18   H23   S    
C22   C24   S    
C8    H5    S    
C25   H13   S    
C2    C23   S    
C29   H19   S    
C18   O12   S    
C11   O10   A    
C21   H3    S    
C3    N1    A    
C19   H28   S    
C13   C17   T    
C9    O4    S    
C11   O11   A    
C11   C13   S    
C5    C6    A    
C22   H7    S    
C24   H8    S    
C8    H1    S    
C4    O7    A    
C20   H30   S    
O11   Zn2   S    
C22   O3    S    
C26   H14   S    
C6    O2    S    
C20   C21   S    
C27   C28   A    
C1    C27   S    
C14   C15   D    
O7    Zn2   S    
N1    Zn2   S    
C10   O8    A    
