data_mof_unit_25782.cif
_audit_creation_date              2012-12-11T14:54:36-0500
_audit_creation_method            fapswitch 2.2
_symmetry_space_group_name_H-M    P1
_symmetry_Int_Tables_number       1
_space_group_crystal_system       triclinic
_cell_length_a                    18.963497
_cell_length_b                    10.890066
_cell_length_c                    18.832245
_cell_angle_alpha                 90.032639
_cell_angle_beta                  89.986936
_cell_angle_gamma                 89.849715
_cell_volume                      3889.10312113

loop_
_atom_site_label
_atom_site_type_symbol
_atom_type_description
_atom_site_fract_x
_atom_site_fract_y
_atom_site_fract_z
_atom_type_partial_charge
Br1   Br    Br    0.894659 0.060396 0.073523 -0.542981
Br2   Br    Br    0.372754 0.741407 0.575305 -0.443606
Br3   Br    Br    0.108796 0.342920 0.408500 -0.396916
Br4   Br    Br    0.872754 0.241407 0.575305 -0.443610
Br5   Br    Br    0.157150 0.135343 0.901983 -0.523544
Br6   Br    Br    0.394680 0.560351 0.073513 -0.542949
Br7   Br    Br    0.657064 0.635248 0.902022 -0.523562
Br8   Br    Br    0.604848 0.810239 0.581604 -0.425881
Br9   Br    Br    0.349960 0.733724 0.402201 -0.424013
Br10  Br    Br    0.104848 0.310239 0.581604 -0.425877
Br11  Br    Br    0.849960 0.233724 0.402201 -0.424008
Br12  Br    Br    0.608796 0.842921 0.408500 -0.396914
C1    C     C_R   0.730912 0.376933 0.645902 0.560489
C2    C     C_R   0.296012 0.848156 0.459250 0.145725
C3    C     C_R   0.939148 0.555494 0.480584 -0.116649
C4    C     C_R   0.190063 0.371967 0.537630 0.155923
C5    C     C_R   0.796012 0.348156 0.459250 0.145725
C6    C     C_R   0.693496 0.872170 0.463292 0.151344
C7    C     C_R   0.299529 0.842054 0.533472 0.156812
C8    C     C_R   0.193496 0.372170 0.463292 0.151343
C9    C     C_R   0.799529 0.342054 0.533472 0.156814
C10   C     C_R   0.757889 0.900672 0.430043 0.012802
C11   C     C_R   0.252081 0.914048 0.574755 -0.008018
C12   C     C_R   0.257889 0.400672 0.430043 0.012802
C13   C     C_R   0.270880 0.374724 0.355418 0.574345
C14   C     C_R   0.752081 0.414048 0.574755 -0.008018
C15   C     C_R   0.817204 0.930330 0.471171 -0.131880
C16   C     C_R   0.210687 0.003485 0.542302 -0.187966
C17   C     C_R   0.317204 0.430330 0.471171 -0.131880
C18   C     C_R   0.710687 0.503485 0.542302 -0.187967
C19   C     C_R   0.813307 0.934228 0.543662 -0.147695
C20   C     C_R   0.210194 0.014058 0.469883 -0.180564
C21   C     C_R   0.313308 0.434228 0.543663 -0.147695
C22   C     C_R   0.710194 0.514058 0.469883 -0.180563
C23   C     C_R   0.749314 0.913221 0.577465 -0.004925
C24   C     C_R   0.230912 0.876933 0.645902 0.560497
C25   C     C_R   0.251837 0.936306 0.427528 -0.008168
C26   C     C_R   0.249314 0.413220 0.577465 -0.004924
C27   C     C_R   0.751837 0.436306 0.427528 -0.008168
C28   C     C_R   0.461546 0.061927 0.949267 -0.121631
C29   C     C_R   0.442293 0.059202 0.020278 -0.131016
C30   C     C_R   0.961562 0.561914 0.949272 -0.121653
C31   C     C_R   0.942311 0.559190 0.020283 -0.131018
C32   C     C_R   0.453802 0.161585 0.063575 0.017640
C33   C     C_R   0.493683 0.166862 0.920718 0.018746
C34   C     C_R   0.953800 0.661584 0.063574 0.017635
C35   C     C_R   0.770880 0.874724 0.355418 0.574346
C36   C     C_R   0.993682 0.666858 0.920717 0.018744
C37   C     C_R   0.481349 0.269623 0.033953 -0.105379
C38   C     C_R   0.501062 0.272394 0.962764 -0.125732
C39   C     C_R   0.981327 0.769631 0.033946 -0.105406
C40   C     C_R   0.001041 0.772400 0.962758 -0.125743
C41   C     C_R   0.531229 0.155292 0.646581 0.547291
C42   C     C_R   0.435595 0.150968 0.360947 0.546870
C43   C     C_R   0.031229 0.655292 0.646581 0.547289
C44   C     C_R   0.935595 0.650968 0.360947 0.546870
C45   C     C_R   0.808919 0.975431 0.963966 -0.111135
C46   C     C_3   0.525686 0.357984 0.448802 -0.244338
C47   C     C_R   0.215272 0.031858 0.026826 -0.095013
C48   C     C_R   0.308923 0.475413 0.963964 -0.111149
C49   C     C_R   0.715226 0.531778 0.026840 -0.095019
C50   C     C_R   0.812040 0.977984 0.036520 0.139071
C51   C     C_R   0.213269 0.018842 0.954129 0.144779
C52   C     C_R   0.312048 0.477968 0.036518 0.139060
C53   C     C_R   0.713226 0.518788 0.954144 0.144778
C54   C     C_R   0.756477 0.923853 0.076441 0.033148
C55   C     C_R   0.249504 0.920202 0.922566 0.032557
C56   C     C_R   0.256478 0.423861 0.076443 0.033138
C57   C     C_3   0.547690 0.360634 0.526239 -0.245944
C58   C     C_R   0.749494 0.420206 0.922569 0.032560
C59   C     C_R   0.694041 0.889575 0.042338 -0.162256
C60   C     C_R   0.292067 0.842458 0.964334 -0.166656
C61   C     C_R   0.194032 0.389620 0.042345 -0.162281
C62   C     C_R   0.792085 0.342506 0.964328 -0.166668
C63   C     C_R   0.688289 0.903673 0.969327 -0.107207
C64   C     C_R   0.293968 0.856981 0.037429 -0.157547
C65   C     C_R   0.188277 0.403725 0.969335 -0.107193
C66   C     C_R   0.793988 0.357017 0.037423 -0.157536
C67   C     C_R   0.747196 0.940381 0.929556 0.014117
C68   C     C_3   0.025685 0.857984 0.448802 -0.244338
C69   C     C_R   0.253917 0.949344 0.068926 -0.009146
C70   C     C_R   0.247191 0.440394 0.929559 0.014158
C71   C     C_R   0.753908 0.449318 0.068931 -0.009148
C72   C     C_R   0.741290 0.966456 0.648006 0.568067
C73   C     C_R   0.258814 0.970386 0.353343 0.566415
C74   C     C_R   0.241290 0.466456 0.648006 0.568075
C75   C     C_R   0.758814 0.470385 0.353343 0.566415
C76   C     C_R   0.730218 0.379697 0.851934 0.568704
C77   C     C_R   0.270705 0.380402 0.147868 0.559459
C78   C     C_R   0.230219 0.879696 0.851934 0.568722
C79   C     C_3   0.047690 0.860634 0.526239 -0.245945
C80   C     C_R   0.770705 0.880401 0.147867 0.559470
C81   C     C_R   0.530761 0.157342 0.852840 0.535751
C82   C     C_R   0.436496 0.153194 0.139092 0.549039
C83   C     C_R   0.030761 0.657342 0.852840 0.535744
C84   C     C_R   0.936496 0.653193 0.139092 0.549043
C85   C     C_R   0.740282 0.974232 0.855644 0.558026
C86   C     C_R   0.259842 0.975911 0.143840 0.547687
C87   C     C_R   0.240280 0.474236 0.855645 0.558058
C88   C     C_R   0.759840 0.475903 0.143842 0.547694
C89   C     C_R   0.449513 0.158661 0.437211 0.010632
C90   C     C_R   0.690063 0.871968 0.537630 0.155923
C91   C     C_R   0.489639 0.164451 0.581369 0.012708
C92   C     C_R   0.949513 0.658660 0.437211 0.010632
C93   C     C_R   0.989639 0.664451 0.581369 0.012706
C94   C     C_R   0.469676 0.268776 0.469699 -0.006429
C95   C     C_R   0.489650 0.271572 0.540432 -0.000133
C96   C     C_R   0.969675 0.768776 0.469699 -0.006429
C97   C     C_R   0.989649 0.771572 0.540432 -0.000134
C98   C     C_R   0.458413 0.058568 0.552285 -0.106328
C99   C     C_R   0.439147 0.055495 0.480584 -0.116649
C100  C     C_R   0.958413 0.558568 0.552285 -0.106330
Cr1   Cr    Cr6+3 0.771950 0.169480 0.750100 1.077047
Cr2   Cr    Cr6+3 0.383410 0.010620 0.249390 1.100154
Cr3   Cr    Cr6+3 0.116590 0.510620 0.750610 1.107295
Cr4   Cr    Cr6+3 0.883410 0.510620 0.249390 1.100155
Cr5   Cr    Cr6+3 0.228050 0.169480 0.249900 1.071258
Cr6   Cr    Cr6+3 0.271950 0.669480 0.750100 1.077057
Cr7   Cr    Cr6+3 0.728050 0.669480 0.249900 1.071257
Cr8   Cr    Cr6+3 0.614930 0.323340 0.749170 1.075319
Cr9   Cr    Cr6+3 0.385070 0.323340 0.250830 1.087163
Cr10  Cr    Cr6+3 0.114930 0.823340 0.749170 1.075303
Cr11  Cr    Cr6+3 0.885070 0.823340 0.250830 1.087165
Cr12  Cr    Cr6+3 0.616590 0.010620 0.750610 1.107291
H1    H     H_    0.455148 0.974750 0.582872 0.208012
H2    H     H_    0.320526 0.765873 0.941229 0.164169
H3    H     H_    0.150273 0.351332 0.071877 0.153536
H4    H     H_    0.820569 0.265968 0.941214 0.164158
H5    H     H_    0.637999 0.886030 0.944189 0.188343
H6    H     H_    0.326132 0.796530 0.069422 0.190011
H7    H     H_    0.137981 0.386110 0.944201 0.188312
H8    H     H_    0.826178 0.296609 0.069408 0.190020
H9    H     H_    0.003317 0.946724 0.430158 0.177814
H10   H     H_    0.100765 0.820109 0.535475 0.160773
H11   H     H_    0.503318 0.446724 0.430158 0.177814
H12   H     H_    0.420990 0.970136 0.457955 0.194258
H13   H     H_    0.600765 0.320107 0.535475 0.160773
H14   H     H_    0.566259 0.316780 0.413328 0.170623
H15   H     H_    0.538209 0.450933 0.552136 0.182055
H16   H     H_    0.066259 0.816781 0.413328 0.170623
H17   H     H_    0.038208 0.950933 0.552136 0.182054
H18   H     H_    0.867921 0.949980 0.447514 0.188263
H19   H     H_    0.175374 0.061328 0.572801 0.194580
H20   H     H_    0.367921 0.449980 0.447514 0.188264
H21   H     H_    0.675374 0.561328 0.572801 0.194578
H22   H     H_    0.859912 0.961076 0.573063 0.187438
H23   H     H_    0.955149 0.474750 0.582871 0.208012
H24   H     H_    0.177258 0.085433 0.447338 0.201824
H25   H     H_    0.359912 0.461076 0.573063 0.187439
H26   H     H_    0.677258 0.585433 0.447338 0.201824
H27   H     H_    0.454901 0.979459 0.917792 0.148578
H28   H     H_    0.420718 0.975525 0.042106 0.145670
H29   H     H_    0.954931 0.479437 0.917802 0.148573
H30   H     H_    0.920753 0.475505 0.042115 0.145664
H31   H     H_    0.491076 0.349698 0.066436 0.190249
H32   H     H_    0.526271 0.354073 0.942108 0.167434
H33   H     H_    0.991037 0.849716 0.066425 0.190251
H34   H     H_    0.920991 0.470135 0.457954 0.194259
H35   H     H_    0.026236 0.854088 0.942096 0.167401
H36   H     H_    0.853747 0.010457 0.934635 0.170955
H37   H     H_    0.186947 0.108360 0.050216 0.169126
H38   H     H_    0.353755 0.510414 0.934630 0.170963
H39   H     H_    0.686872 0.608230 0.050237 0.169161
H40   H     H_    0.650287 0.851264 0.071866 0.153549
O1    O     O_R   0.787510 0.042610 0.670410 -0.484960
O2    O     O_R   0.454250 0.051070 0.169440 -0.490679
O3    O     O_R   0.045750 0.551070 0.830560 -0.516504
O4    O     O_R   0.954250 0.551070 0.169440 -0.490689
O5    O     O_R   0.681210 0.959150 0.825320 -0.481590
O6    O     O_R   0.318790 0.959150 0.174680 -0.508020
O7    O     O_R   0.181210 0.459150 0.825320 -0.481565
O8    O     O_R   0.818790 0.459150 0.174680 -0.508016
O9    O     O_3   0.667820 0.167810 0.749960 -0.277830
O10   O     O_3   0.332180 0.167810 0.250040 -0.327194
O11   O     O_3   0.167820 0.667810 0.749960 -0.277837
O12   O     O_R   0.212490 0.042610 0.329590 -0.508003
O13   O     O_3   0.832180 0.667810 0.250040 -0.327191
O14   O     O_R   0.765670 0.292090 0.675090 -0.454032
O15   O     O_R   0.234330 0.292090 0.324910 -0.467458
O16   O     O_R   0.265670 0.792090 0.675090 -0.454031
O17   O     O_R   0.734330 0.792090 0.324910 -0.467458
O18   O     O_R   0.670220 0.409020 0.668560 -0.516215
O19   O     O_R   0.329780 0.409020 0.331440 -0.505064
O20   O     O_R   0.170220 0.909020 0.668560 -0.516211
O21   O     O_R   0.829780 0.909020 0.331440 -0.505062
O22   O     O_R   0.556580 0.251590 0.674980 -0.504908
O23   O     O_R   0.287510 0.542610 0.670410 -0.484958
O24   O     O_R   0.443420 0.251590 0.325020 -0.496077
O25   O     O_R   0.056580 0.751590 0.674980 -0.504910
O26   O     O_R   0.943420 0.751590 0.325020 -0.496077
O27   O     O_R   0.545890 0.049670 0.670030 -0.475417
O28   O     O_R   0.454110 0.049670 0.329970 -0.451553
O29   O     O_R   0.045890 0.549670 0.670030 -0.475417
O30   O     O_R   0.954110 0.549670 0.329970 -0.451554
O31   O     O_R   0.681340 0.957860 0.676500 -0.453181
O32   O     O_R   0.318660 0.957860 0.323500 -0.475235
O33   O     O_R   0.181340 0.457860 0.676500 -0.453175
O34   O     O_R   0.712490 0.542610 0.329590 -0.508004
O35   O     O_R   0.818660 0.457860 0.323500 -0.475234
O36   O     O_R   0.787380 0.044010 0.830940 -0.532289
O37   O     O_R   0.212620 0.044010 0.169060 -0.510433
O38   O     O_R   0.287380 0.544010 0.830940 -0.532297
O39   O     O_R   0.712620 0.544010 0.169060 -0.510458
O40   O     O_R   0.765540 0.293390 0.823910 -0.519865
O41   O     O_R   0.234460 0.293390 0.176090 -0.511215
O42   O     O_R   0.265540 0.793390 0.823910 -0.519868
O43   O     O_R   0.734460 0.793390 0.176090 -0.511210
O44   O     O_R   0.670090 0.410410 0.829090 -0.455971
O45   O     O_R   0.556450 0.252890 0.823790 -0.501150
O46   O     O_R   0.329910 0.410410 0.170910 -0.456662
O47   O     O_R   0.170090 0.910410 0.829090 -0.455981
O48   O     O_R   0.829910 0.910410 0.170910 -0.456661
O49   O     O_R   0.443550 0.252890 0.176210 -0.479881
O50   O     O_R   0.056450 0.752890 0.823790 -0.501162
O51   O     O_R   0.943550 0.752890 0.176210 -0.479886
O52   O     O_R   0.545750 0.051070 0.830560 -0.516491

loop_
_geom_bond_atom_site_label_1
_geom_bond_atom_site_label_2
_ccdc_geom_bond_type
Cr5   O10   S    
C32   C37   A    
C9    C14   A    
C57   H15   S    
C36   C83   S    
Cr11  O51   S    
C88   O8    A    
Cr7   O34   S    
C70   C87   S    
C45   C67   A    
C86   O37   A    
C24   O16   A    
C75   O35   A    
Cr11  O13   S    
C23   C90   A    
C58   C76   S    
Br1   C50   S    
C82   O2    A    
C57   C95   S    
C45   C50   A    
C21   H25   S    
C29   H28   S    
Cr3   O33   S    
Cr5   O15   S    
Br5   C51   S    
C84   O51   A    
Cr2   O32   S    
C73   O12   A    
C43   C93   S    
C91   C98   A    
C52   C56   A    
C25   C73   S    
Cr6   O42   S    
Cr5   O41   S    
C35   O17   A    
C5    C27   A    
C78   O47   A    
C88   O39   A    
C99   H12   S    
C87   O7    A    
C69   C86   S    
C72   O31   A    
Cr10  O11   S    
C17   C21   A    
Cr8   O45   S    
C15   H18   S    
C85   O5    A    
C96   C97   A    
Cr4   O8    S    
C55   C60   A    
C6    C90   A    
Cr1   O40   S    
Br6   C52   S    
C37   C38   A    
C66   H8    S    
C12   C17   A    
Cr3   O11   S    
C72   O1    A    
C42   C89   S    
C98   C99   A    
C19   H22   S    
C64   H6    S    
C66   C71   A    
C77   O41   A    
Cr12  O5    S    
C8    C12   A    
C38   H32   S    
C58   C62   A    
C48   H38   S    
C84   O4    A    
C24   O20   A    
C27   C75   S    
C3    C92   A    
C35   O21   A    
C31   H30   S    
C62   C66   A    
C60   C64   A    
Cr9   O19   S    
Cr4   O30   S    
C46   H14   S    
C40   H35   S    
Cr10  O20   S    
C10   C35   S    
Cr3   O29   S    
C33   C81   S    
C74   O23   A    
C78   O42   A    
Cr4   O13   S    
C81   O52   A    
C68   H16   S    
C85   O36   A    
Cr6   O38   S    
C48   C70   A    
C76   O44   A    
Cr5   O37   S    
C2    C7    A    
Br8   C90   S    
C67   C85   S    
Cr2   O2    S    
C44   O26   A    
C57   H13   S    
C28   C33   A    
C62   H4    S    
Cr1   O1    S    
Cr2   O28   S    
C59   H40   S    
C50   C54   A    
C15   C19   A    
C22   C27   A    
Cr8   O44   S    
C16   C20   A    
C30   H29   S    
Cr7   O39   S    
C12   C13   S    
C44   C92   S    
C3    H34   S    
Cr3   O7    S    
C49   C71   A    
Br10  C4    S    
Cr4   O35   S    
C18   C22   A    
C54   C80   S    
Cr12  O9    S    
C74   O33   A    
C56   C61   A    
C20   C25   A    
C17   H20   S    
C63   H5    S    
C34   C39   A    
C39   H33   S    
C55   C78   S    
C5    C9    A    
C68   H9    S    
C39   C40   A    
C28   H27   S    
C60   H2    S    
C46   C94   S    
Cr9   O49   S    
Cr11  O21   S    
C7    C11   A    
C41   O22   A    
C51   C55   A    
C47   H37   S    
C49   C53   A    
Br7   C53   S    
Cr9   O10   S    
Cr2   O10   S    
C4    C8    A    
Cr11  O48   S    
C56   C77   S    
Br9   C2    S    
Br3   C8    S    
C73   O32   A    
C16   H19   S    
C30   C36   A    
Cr9   O46   S    
C76   O40   A    
Cr11  O26   S    
C41   O27   A    
C1    O14   A    
C42   O28   A    
C54   C59   A    
C44   O30   A    
Cr5   O12   S    
C28   C29   A    
C43   O29   A    
C45   H36   S    
C26   C74   S    
Cr6   O11   S    
C11   C24   S    
C71   C88   S    
C87   O38   A    
C81   O45   A    
C29   C32   A    
C19   C23   A    
C1    C14   S    
C80   O48   A    
C11   C16   A    
C30   C31   A    
C93   C100  A    
C43   O25   A    
C92   C96   A    
Cr6   O23   S    
Cr10  O25   S    
Cr1   O9    S    
Cr12  O52   S    
C89   C94   A    
Cr2   O6    S    
C93   C97   A    
Br11  C5    S    
C82   O49   A    
Br2   C7    S    
C49   H39   S    
C3    C100  A    
C37   H31   S    
C65   H7    S    
C47   C69   A    
Cr3   O3    S    
Cr8   O22   S    
C64   C69   A    
Cr7   O43   S    
C91   C95   A    
C23   C72   S    
C13   O15   A    
C46   C57   S    
Cr7   O17   S    
C77   O46   A    
C20   H24   S    
C46   H11   S    
C89   C99   A    
C68   C96   S    
C47   C51   A    
C21   C26   A    
C100  H23   S    
C48   C52   A    
C10   C15   A    
C79   C97   S    
C68   C79   S    
C6    C10   A    
C80   O43   A    
C61   H3    S    
Cr9   O24   S    
C59   C63   A    
Br4   C9    S    
C79   H10   S    
Cr8   O18   S    
C65   C70   A    
C41   C91   S    
Cr12  O31   S    
Cr1   O36   S    
Cr1   O14   S    
C83   O3    A    
C22   H26   S    
C31   C34   A    
C32   C82   S    
C98   H1    S    
C86   O6    A    
C18   H21   S    
Cr10  O50   S    
Cr8   O9    S    
C36   C40   A    
C34   C84   S    
C1    O18   A    
C94   C95   A    
Br12  C6    S    
C83   O50   A    
C61   C65   A    
Cr10  O47   S    
Cr4   O4    S    
C42   O24   A    
C33   C38   A    
Cr7   O13   S    
C75   O34   A    
C79   H17   S    
C53   C58   A    
C63   C67   A    
Cr12  O27   S    
C13   O19   A    
C4    C26   A    
C2    C25   A    
C14   C18   A    
Cr6   O16   S    
