data_mof_unit_8564.cif
_audit_creation_date              2012-12-10T18:46:13-0500
_audit_creation_method            fapswitch 2.2
_symmetry_space_group_name_H-M    P1
_symmetry_Int_Tables_number       1
_space_group_crystal_system       triclinic
_cell_length_a                    9.917453
_cell_length_b                    10.815084
_cell_length_c                    13.025577
_cell_angle_alpha                 91.778891
_cell_angle_beta                  68.445902
_cell_angle_gamma                 89.402427
_cell_volume                      1298.41642905

loop_
_atom_site_label
_atom_site_type_symbol
_atom_type_description
_atom_site_fract_x
_atom_site_fract_y
_atom_site_fract_z
_atom_type_partial_charge
C1    C     C_R   0.501990 0.739579 0.494527 0.982023
C2    C     C_R   0.461125 0.513729 0.975006 -0.124517
C3    C     C_R   0.461510 0.451107 0.877332 -0.174723
C4    C     C_R   0.571693 0.478834 0.015922 -0.052767
C5    C     C_R   0.658126 0.369453 0.971022 -0.119784
C6    C     C_R   0.652592 0.307501 0.876778 0.375342
C7    C     C_R   0.550232 0.344578 0.833896 0.394846
C8    C     C_R   0.592861 0.539422 0.107035 0.461450
C9    C     C_R   0.701478 0.350758 0.140346 0.428648
C10   C     C_R   0.364724 0.490046 0.827907 -0.184818
C11   C     C_R   0.633386 0.933612 0.476482 0.402406
C12   C     C_R   0.418055 0.495856 0.705902 0.958972
C13   C     C_R   0.628573 0.059839 0.495171 0.340700
C14   C     C_R   0.499679 0.127151 0.508661 -0.415222
C15   C     C_R   0.371488 0.065036 0.519294 0.365034
C16   C     C_R   0.377066 0.938953 0.499611 0.347046
C17   C     C_R   0.504705 0.872061 0.487432 -0.424897
C18   C     C_R   0.960932 0.418874 0.432436 0.440378
C19   C     C_R   0.101854 0.413852 0.438039 0.252466
C20   C     C_R   0.043451 0.588707 0.560638 0.403648
C21   C     C_R   0.897035 0.586205 0.562873 0.244201
C22   C     C_R   0.499414 0.260057 0.503531 1.041074
C23   C     C_R   0.581799 0.499064 0.294811 0.934873
C24   C     C_R   0.733624 0.313752 0.030438 -0.177256
C25   C     C_R   0.636509 0.467567 0.177143 -0.234814
C26   C     C_R   0.234192 0.547314 0.894493 0.265306
C27   C     C_R   0.224327 0.606521 0.993705 0.279366
C28   C     C_R   0.339560 0.596117 0.032203 0.452179
H1    H     H_    0.799033 0.230471 0.999641 0.207203
N1    N     N_R   0.142790 0.500030 0.500030 -0.187273
N2    N     N_R   0.857180 0.499940 0.500010 -0.182320
O1    O     O_R   0.385370 0.683250 0.500010 -0.543792
O2    O     O_R   0.614700 0.683220 0.500010 -0.535931
O3    O     O_R   0.328400 0.499990 0.653620 -0.571409
O4    O     O_R   0.557730 0.499960 0.653620 -0.564388
O5    O     O_R   0.385300 0.316780 0.499990 -0.540128
O6    O     O_R   0.614630 0.316750 0.499990 -0.509438
O7    O     O_R   0.442270 0.500040 0.346380 -0.615390
O8    O     O_R   0.671600 0.500010 0.346380 -0.602607
Zn1   Zn    Zn3+2 0.346870 0.500020 0.500000 1.060758
Zn2   Zn    Zn3+2 0.653130 0.499980 0.500000 1.093947
O9    O     O_3   0.731060 0.273509 0.212666 -0.601202
C29   C     C_3   0.652900 0.163350 0.221761 -0.284845
H2    H     H_    0.534046 0.183154 0.252626 0.196922
H3    H     H_    0.675584 0.104834 0.281793 0.168830
H4    H     H_    0.688130 0.107672 0.142904 0.165692
Cl1   Cl    Cl    0.787360 0.124387 0.504690 -0.362534
O10   O     O_3   0.239761 0.126814 0.544298 -0.533417
C30   C     C_3   0.169982 0.136549 0.660076 -0.013425
H5    H     H_    0.237087 0.186170 0.699613 0.152828
H6    H     H_    0.141138 0.043785 0.695483 0.159357
H7    H     H_    0.068202 0.191645 0.679771 0.225706
O11   O     O_3   0.253117 0.881485 0.500026 -0.523995
C31   C     C_3   0.244713 0.891517 0.394788 -0.067952
H8    H     H_    0.149195 0.840036 0.393447 0.183799
H9    H     H_    0.342846 0.850192 0.328593 0.133087
H10   H     H_    0.228705 0.989395 0.377151 0.210270
O12   O     O_3   0.924092 0.335727 0.364813 -0.495895
C32   C     C_3   0.989398 0.369422 0.253678 -0.102486
H11   H     H_    0.976813 0.293289 0.199508 0.233279
H12   H     H_    0.938386 0.455274 0.238498 0.164821
H13   H     H_    0.107684 0.380090 0.226492 0.115077
Cl2   Cl    Cl    0.224563 0.295601 0.362243 -0.565358
O13   O     O_3   0.096881 0.689098 0.601572 -0.533650
C33   C     C_3   0.016517 0.721963 0.713160 -0.020832
H14   H     H_    0.093788 0.739876 0.755187 0.190205
H15   H     H_    0.939839 0.650312 0.758453 0.170570
H16   H     H_    0.957020 0.810817 0.718267 0.205958
Cl3   Cl    Cl    0.766237 0.697223 0.642419 -0.526837
Cl4   Cl    Cl    0.762487 0.173793 0.817595 -0.559436
O14   O     O_3   0.572958 0.665588 0.130554 -0.596980
C34   C     C_3   0.667041 0.729835 0.040393 -0.171882
H17   H     H_    0.631884 0.723526 0.968653 0.190137
H18   H     H_    0.781487 0.696043 0.015748 0.199691
H19   H     H_    0.663376 0.829098 0.065672 0.180601
Cl5   Cl    Cl    0.076863 0.521332 0.865898 -0.639060
O15   O     O_3   0.328511 0.665441 0.125878 -0.531815
C35   C     C_3   0.251725 0.599182 0.220253 -0.221296
H20   H     H_    0.294935 0.502954 0.214114 0.168246
H21   H     H_    0.134015 0.600445 0.236249 0.144499
H22   H     H_    0.265047 0.645228 0.292844 0.198247
Cl6   Cl    Cl    0.069093 0.699087 0.067682 -0.644958
Cl7   Cl    Cl    0.505593 0.236310 0.747793 -0.581458
O16   O     O_3   0.764051 0.870394 0.453378 -0.505147
C36   C     C_3   0.832900 0.854603 0.337730 -0.153738
H23   H     H_    0.861671 0.945301 0.298188 0.171799
H24   H     H_    0.764832 0.801964 0.300821 0.140650
H25   H     H_    0.935107 0.800312 0.319462 0.197535

loop_
_geom_bond_atom_site_label_1
_geom_bond_atom_site_label_2
_ccdc_geom_bond_type
C7    Cl7   S    
C4    C8    A    
C9    C25   A    
O8    Zn2   S    
C20   N1    A    
O15   C35   S    
C21   N2    A    
C26   C27   A    
O3    Zn1   S    
C3    C7    A    
C36   H23   S    
C5    C6    A    
C35   H21   S    
C33   H15   S    
C15   C16   A    
C18   C19   A    
C24   H1    S    
C16   O11   S    
C18   O12   S    
C19   Cl2   S    
C16   C17   A    
C32   H13   S    
C26   Cl5   S    
C10   C26   A    
C23   C25   S    
C32   H11   S    
C13   C14   A    
C8    C25   A    
C15   O10   S    
C34   H19   S    
C36   H24   S    
C31   H9    S    
C32   H12   S    
C1    O2    A    
O5    Zn1   S    
O16   C36   S    
C34   H18   S    
C13   Cl1   S    
C35   H20   S    
C4    C5    A    
C30   H6    S    
O12   C32   S    
O11   C31   S    
C22   O6    A    
C1    O1    A    
C21   Cl3   S    
C20   O13   S    
C2    C4    A    
C29   H2    S    
C33   H16   S    
C9    O9    S    
N1    Zn1   S    
C12   O4    A    
C28   O15   S    
C29   H3    S    
C10   C12   S    
O10   C30   S    
C30   H5    S    
O9    C29   S    
C12   O3    A    
C36   H25   S    
C6    Cl4   S    
C31   H8    S    
C11   C17   A    
C8    O14   S    
N2    Zn2   S    
C27   Cl6   S    
C30   H7    S    
C34   H17   S    
C9    C24   A    
C6    C7    A    
C11   O16   S    
C23   O7    A    
C22   O5    A    
C1    C17   S    
O2    Zn2   S    
O13   C33   S    
C14   C22   S    
C2    C3    A    
O14   C34   S    
C3    C10   A    
O7    Zn1   S    
C11   C13   A    
C35   H22   S    
C5    C24   A    
C23   O8    A    
O1    Zn1   S    
O6    Zn2   S    
O4    Zn2   S    
C29   H4    S    
C20   C21   A    
C33   H14   S    
C27   C28   A    
C14   C15   A    
C2    C28   A    
C18   N2    A    
C19   N1    A    
C31   H10   S    
