data_mof_unit_26456.cif
_audit_creation_date              2012-12-10T18:43:07-0500
_audit_creation_method            fapswitch 2.2
_symmetry_space_group_name_H-M    P1
_symmetry_Int_Tables_number       1
_space_group_crystal_system       triclinic
_cell_length_a                    8.716808
_cell_length_b                    19.404024
_cell_length_c                    18.146063
_cell_angle_alpha                 89.773518
_cell_angle_beta                  97.95047
_cell_angle_gamma                 90.141763
_cell_volume                      3039.71492223

loop_
_atom_site_label
_atom_site_type_symbol
_atom_type_description
_atom_site_fract_x
_atom_site_fract_y
_atom_site_fract_z
_atom_type_partial_charge
C1    C     C_R   0.497442 0.367488 0.499855 0.817734
C2    C     C_R   0.500125 0.632588 0.499883 0.815120
C3    C     C_R   0.357536 0.963468 0.524155 0.511248
C4    C     C_R   0.581178 0.037442 0.457418 0.514674
C5    C     C_R   0.356943 0.035411 0.523979 -0.360162
C6    C     C_R   0.586668 0.965431 0.461264 -0.378234
C7    C     C_R   0.468414 0.072399 0.491306 -0.026255
C8    C     C_R   0.477451 0.928251 0.495142 -0.029974
C9    C     C_R   0.584578 0.451652 0.726148 0.086507
C10   C     C_R   0.609163 0.536942 0.286136 0.081016
C11   C     C_R   0.587481 0.450075 0.803698 -0.313452
C12   C     C_R   0.612529 0.537018 0.208996 -0.312691
C13   C     C_R   0.504277 0.499214 0.838689 0.152600
C14   C     C_R   0.502244 0.498997 0.161619 0.155544
C15   C     C_R   0.417915 0.548530 0.793611 -0.238246
C16   C     C_R   0.389723 0.462085 0.194337 -0.230823
C17   C     C_R   0.416935 0.547919 0.716097 0.044110
C18   C     C_R   0.391320 0.462893 0.271825 0.047641
C19   C     C_R   0.540731 0.559895 0.964055 0.472989
C20   C     C_R   0.484468 0.436250 0.037209 0.443647
C21   C     C_R   0.533831 0.559211 0.041085 -0.326123
C22   C     C_R   0.482702 0.437677 0.959460 -0.325169
C23   C     C_R   0.203521 0.500057 0.480998 0.888795
C24   C     C_R   0.796475 0.500080 0.518997 0.890910
C25   C     C_R   0.505537 0.497980 0.078916 -0.056079
C26   C     C_R   0.508686 0.499157 0.921684 -0.065479
C27   C     C_2   0.037764 0.500138 0.470441 -0.374875
C28   C     C_2   0.962229 0.500191 0.529539 -0.369500
C29   C     C_R   0.495664 0.744745 0.432825 -0.187218
C30   C     C_R   0.505448 0.253474 0.564487 -0.197457
C31   C     C_R   0.490179 0.816181 0.432455 -0.291583
C32   C     C_R   0.496525 0.181779 0.561914 -0.228704
C33   C     C_R   0.489875 0.852613 0.498952 0.079987
C34   C     C_R   0.467456 0.147936 0.493301 0.086704
C35   C     C_R   0.500259 0.817477 0.567690 0.532588
C36   C     C_R   0.441014 0.186274 0.426952 0.484194
C37   C     C_R   0.500995 0.744525 0.566708 -0.354637
C38   C     C_R   0.455223 0.257983 0.429708 -0.287672
C39   C     C_R   0.499365 0.708346 0.499749 -0.081209
C40   C     C_R   0.486996 0.292000 0.498298 -0.088570
Cu1   Cu    Cu3+1 0.499960 0.500000 0.573360 0.932978
Cu2   Cu    Cu3+1 0.500040 0.500000 0.426640 0.932938
H1    H     H_    0.977697 0.500099 0.413774 0.169385
H2    H     H_    0.022301 0.500268 0.586202 0.174361
H3    H     H_    0.350550 0.586867 0.818081 0.159200
H4    H     H_    0.300118 0.433230 0.160353 0.165788
H5    H     H_    0.349697 0.585941 0.681933 0.123052
H6    H     H_    0.305122 0.433778 0.296333 0.117412
H7    H     H_    0.551947 0.607119 0.071504 0.169930
H8    H     H_    0.460434 0.390249 0.928487 0.173960
H9    H     H_    0.494650 0.718039 0.380465 0.164255
H10   H     H_    0.529260 0.278611 0.618048 0.157778
H11   H     H_    0.483514 0.843325 0.379811 0.154059
H12   H     H_    0.515171 0.152517 0.613334 0.160722
H13   H     H_    0.501349 0.715019 0.617268 0.161042
H14   H     H_    0.440195 0.286834 0.377981 0.159856
H15   H     H_    0.268904 0.062529 0.549107 0.178253
H16   H     H_    0.678250 0.938420 0.439137 0.161932
H17   H     H_    0.650682 0.414095 0.699951 0.120156
H18   H     H_    0.694636 0.566382 0.321908 0.119343
H19   H     H_    0.656397 0.411424 0.836240 0.134824
H20   H     H_    0.702218 0.565912 0.186723 0.130624
N1    N     N_R   0.499980 0.500020 0.683620 -0.168835
N2    N     N_R   0.500020 0.499980 0.316380 -0.167605
O1    O     O_R   0.499930 0.400180 0.561970 -0.593790
O2    O     O_R   0.500070 0.599820 0.438030 -0.590316
O3    O     O_R   0.500010 0.400190 0.438070 -0.587149
O4    O     O_R   0.499990 0.599810 0.561930 -0.593885
O5    O     O_R   0.274810 0.500000 0.547650 -0.577309
O6    O     O_R   0.725190 0.500000 0.452350 -0.583975
O7    O     O_R   0.274880 0.500000 0.423750 -0.596719
O8    O     O_R   0.725120 0.500000 0.576250 -0.591016
O9    O     O_3   0.575245 0.621227 0.930738 -0.619746
C41   C     C_3   0.732047 0.620851 0.917960 0.060334
H21   H     H_    0.741042 0.654200 0.868877 0.164029
H22   H     H_    0.774051 0.568906 0.903767 0.132759
C42   C     C_3   0.837610 0.650491 0.984951 -0.371162
H23   H     H_    0.796283 0.702680 0.997694 0.227525
H24   H     H_    0.833562 0.616914 0.034369 0.210003
C43   C     C_3   0.005135 0.655471 0.969607 -0.903415
H25   H     H_    0.049582 0.603599 0.957915 0.258066
H26   H     H_    0.078674 0.676933 0.019088 0.259102
H27   H     H_    0.013405 0.689930 0.921274 0.252009
O10   O     O_3   0.459272 0.374248 0.071341 -0.622151
C44   C     C_3   0.603961 0.344148 0.097662 0.048308
H28   H     H_    0.679270 0.380399 0.134117 0.145266
H29   H     H_    0.664149 0.328889 0.049923 0.140781
C45   C     C_3   0.577124 0.279916 0.143266 -0.311859
H30   H     H_    0.514017 0.294544 0.190080 0.225054
H31   H     H_    0.504737 0.242526 0.107420 0.222331
C46   C     C_3   0.729663 0.245519 0.174721 -0.938466
H32   H     H_    0.793910 0.229471 0.128894 0.255395
H33   H     H_    0.705755 0.199092 0.207287 0.250985
H34   H     H_    0.802610 0.281525 0.212068 0.257454
O11   O     O_3   0.502936 0.857469 0.631945 -0.589003
C47   C     C_3   0.552860 0.822792 0.699687 0.066184
H35   H     H_    0.610233 0.861484 0.739321 0.161732
H36   H     H_    0.644048 0.783617 0.694908 0.117110
C48   C     C_3   0.413338 0.793771 0.732938 -0.368469
H37   H     H_    0.346269 0.837142 0.752338 0.230210
H38   H     H_    0.334676 0.765218 0.690204 0.212601
C49   C     C_3   0.464752 0.745519 0.798158 -0.886693
H39   H     H_    0.525240 0.700179 0.778692 0.253830
H40   H     H_    0.361901 0.727094 0.822477 0.263645
H41   H     H_    0.543654 0.772753 0.841946 0.261987
O12   O     O_3   0.410251 0.153120 0.359241 -0.611061
C50   C     C_3   0.252193 0.161812 0.331087 0.049673
H42   H     H_    0.177336 0.142281 0.371728 0.102057
H43   H     H_    0.224411 0.217051 0.318896 0.133143
C51   C     C_3   0.213570 0.120641 0.259289 -0.334259
H44   H     H_    0.240044 0.065283 0.270672 0.210226
H45   H     H_    0.087735 0.125542 0.239323 0.182138
C52   C     C_3   0.304049 0.146469 0.198328 -0.788058
H46   H     H_    0.278029 0.201668 0.186023 0.235945
H47   H     H_    0.270141 0.116253 0.146798 0.224938
H48   H     H_    0.430515 0.140152 0.215629 0.267334
O13   O     O_3   0.248265 0.928564 0.558560 -0.576288
C53   C     C_3   0.132605 0.901888 0.503820 0.036350
H49   H     H_    0.183295 0.872366 0.460528 0.140952
H50   H     H_    0.061372 0.944747 0.476423 0.133144
C54   C     C_3   0.028054 0.853468 0.541367 -0.303866
H51   H     H_    0.100768 0.817065 0.578592 0.226660
H52   H     H_    0.957334 0.884169 0.575777 0.221781
C55   C     C_3   0.920855 0.811816 0.484413 -0.925044
H53   H     H_    0.852663 0.846449 0.443614 0.252009
H54   H     H_    0.839825 0.780855 0.513325 0.264360
H55   H     H_    0.989620 0.776189 0.454187 0.256171
O14   O     O_3   0.695245 0.074461 0.428139 -0.605239
C56   C     C_3   0.694919 0.059188 0.351723 0.116534
H56   H     H_    0.680290 0.108513 0.320263 0.184767
H57   H     H_    0.598196 0.024805 0.327179 0.129453
C57   C     C_3   0.850489 0.027902 0.339868 -0.388631
H58   H     H_    0.945298 0.064393 0.360077 0.220708
H59   H     H_    0.870080 0.979262 0.372059 0.208028
C58   C     C_3   0.855361 0.012500 0.257837 -0.953173
H60   H     H_    0.765249 0.973897 0.237437 0.261418
H61   H     H_    0.970607 0.991299 0.250783 0.255076
H62   H     H_    0.835469 0.060316 0.224039 0.253878

loop_
_geom_bond_atom_site_label_1
_geom_bond_atom_site_label_2
_ccdc_geom_bond_type
C58   H62   S    
C38   C40   A    
C20   C25   A    
C17   H5    S    
Cu1   Cu2   S    
C6    H16   S    
O11   C47   S    
O14   C56   S    
C21   H7    S    
C24   O6    A    
C58   H60   S    
C42   H23   S    
C41   H22   S    
Cu1   O5    S    
C35   C37   A    
C56   H56   S    
C2    O4    A    
C43   H27   S    
C42   C43   S    
O12   C50   S    
C47   C48   S    
Cu2   O6    S    
C49   H41   S    
C58   H61   S    
O9    C41   S    
C19   C26   A    
C23   O5    A    
C53   H49   S    
C54   C55   S    
C21   C25   A    
C3    O13   S    
C1    C40   S    
C1    O3    A    
C51   H44   S    
C2    C39   S    
C57   H58   S    
C41   C42   S    
C47   H36   S    
C1    O1    A    
C50   H42   S    
C31   C33   A    
C23   C27   S    
C22   H8    S    
C56   C57   S    
C44   H29   S    
C50   H43   S    
C4    C7    A    
C32   H12   S    
Cu1   O4    S    
C51   H45   S    
C42   H24   S    
C41   H21   S    
C4    O14   S    
C36   O12   S    
C23   O7    A    
C19   O9    S    
O10   C44   S    
C43   H26   S    
C3    C8    A    
C16   H4    S    
C46   H32   S    
C5    C7    A    
Cu1   O1    S    
C11   H19   S    
C44   H28   S    
C28   H2    S    
C9    H17   S    
C53   C54   S    
C32   C34   A    
C10   H18   S    
C46   H33   S    
C12   H20   S    
C48   H37   S    
C45   C46   S    
C20   C22   A    
C47   H35   S    
C29   C39   A    
C30   C40   A    
C16   C18   A    
C31   H11   S    
C49   H40   S    
C9    C11   A    
C51   C52   S    
C54   H51   S    
C10   C12   A    
C55   H55   S    
C4    C6    A    
C48   H38   S    
C12   C14   A    
C20   O10   S    
Cu2   O3    S    
C50   C51   S    
C14   C16   A    
C13   C26   S    
C15   H3    S    
Cu2   N2    S    
C7    C34   S    
C24   O8    A    
C55   H54   S    
C52   H46   S    
C29   H9    S    
C44   C45   S    
C15   C17   A    
C30   H10   S    
C19   C21   A    
C9    N1    A    
C10   N2    A    
C24   C28   S    
C45   H31   S    
C43   H25   S    
C3    C5    A    
C18   H6    S    
C6    C8    A    
C2    O2    A    
C35   O11   S    
Cu1   O8    S    
C5    H15   S    
C52   H48   S    
C13   C15   A    
C29   C31   A    
O13   C53   S    
C17   N1    A    
C46   H34   S    
C30   C32   A    
C11   C13   A    
C18   N2    A    
C57   C58   S    
C57   H59   S    
C36   C38   A    
Cu2   O7    S    
C33   C35   A    
C34   C36   A    
C8    C33   S    
C14   C25   S    
C49   H39   S    
C53   H50   S    
C54   H52   S    
C37   H13   S    
C27   H1    S    
C48   C49   S    
C38   H14   S    
C45   H30   S    
C37   C39   A    
C22   C26   A    
C27   C28   D    
Cu2   O2    S    
Cu1   N1    S    
C52   H47   S    
C55   H53   S    
C56   H57   S    
