data_mof_unit_60991.cif
_audit_creation_date              2012-12-10T19:18:39-0500
_audit_creation_method            fapswitch 2.2
_symmetry_space_group_name_H-M    P1
_symmetry_Int_Tables_number       1
_space_group_crystal_system       triclinic
_cell_length_a                    24.432108
_cell_length_b                    24.43214
_cell_length_c                    36.251469
_cell_angle_alpha                 90.000882
_cell_angle_beta                  89.99913
_cell_angle_gamma                 90.004461
_cell_volume                      21639.5415818

loop_
_atom_site_label
_atom_site_type_symbol
_atom_type_description
_atom_site_fract_x
_atom_site_fract_y
_atom_site_fract_z
_atom_type_partial_charge
C1    C     C_R   0.729001 0.229003 0.250001 0.034769
C2    C     C_R   0.270988 0.229022 0.250005 0.034897
C3    C     C_R   0.743148 0.825649 0.256321 -0.171810
C4    C     C_R   0.825491 0.257099 0.742732 -0.171457
C5    C     C_R   0.224701 0.691676 0.220507 -0.169127
C6    C     C_R   0.690920 0.774609 0.779119 -0.169093
C7    C     C_R   0.256847 0.174357 0.256288 -0.171803
C8    C     C_R   0.225445 0.309132 0.220913 -0.169069
C9    C     C_R   0.825645 0.743141 0.743641 -0.171778
C10   C     C_R   0.257033 0.825529 0.257019 -0.171519
C11   C     C_R   0.691894 0.224499 0.779599 -0.169162
C12   C     C_R   0.774554 0.690861 0.220913 -0.169082
C13   C     C_R   0.771034 0.271020 0.750006 0.034598
C14   C     C_R   0.174308 0.256778 0.744022 -0.171904
C15   C     C_R   0.743069 0.174409 0.256626 -0.171663
C16   C     C_R   0.308929 0.774744 0.779190 -0.169048
C17   C     C_R   0.633434 0.203083 0.243532 0.148589
C18   C     C_R   0.315199 0.849430 0.720392 0.148051
C19   C     C_R   0.849644 0.685006 0.279494 0.148180
C20   C     C_R   0.203243 0.366669 0.755823 0.148602
C21   C     C_R   0.366499 0.797023 0.243135 0.148608
C22   C     C_R   0.684036 0.151401 0.719986 0.147914
C23   C     C_R   0.150369 0.315010 0.279504 0.148140
C24   C     C_R   0.228464 0.728466 0.249999 0.032995
C25   C     C_R   0.796851 0.633399 0.756206 0.148565
C26   C     C_R   0.684951 0.849584 0.720476 0.148244
C27   C     C_R   0.366623 0.203174 0.243874 0.148570
C28   C     C_R   0.797097 0.366449 0.757122 0.148613
C29   C     C_R   0.151186 0.684233 0.279912 0.148016
C30   C     C_R   0.314530 0.149847 0.720767 0.148312
C31   C     C_R   0.633390 0.796842 0.243832 0.148560
C32   C     C_R   0.203099 0.633418 0.756400 0.148627
C33   C     C_R   0.849219 0.315392 0.279712 0.148100
C34   C     C_R   0.133426 0.703095 0.743600 0.148566
C35   C     C_R   0.271590 0.228421 0.749993 0.032990
C36   C     C_R   0.815391 0.349220 0.220289 0.147999
C37   C     C_R   0.350147 0.185471 0.779229 0.148393
C38   C     C_R   0.703162 0.866617 0.256169 0.148583
C39   C     C_R   0.866460 0.297092 0.742877 0.148676
C40   C     C_R   0.184233 0.651187 0.220088 0.147915
C41   C     C_R   0.650413 0.815053 0.779528 0.148197
C42   C     C_R   0.296829 0.133385 0.256125 0.148560
C43   C     C_R   0.184993 0.349630 0.220498 0.148265
C44   C     C_R   0.866612 0.703153 0.743792 0.148601
C45   C     C_R   0.297022 0.866500 0.256865 0.148611
C46   C     C_R   0.729020 0.770990 0.249995 0.034925
C47   C     C_R   0.651403 0.184032 0.780017 0.147850
C48   C     C_R   0.814998 0.650354 0.220503 0.148246
C49   C     C_R   0.133338 0.296760 0.744178 0.148610
C50   C     C_R   0.703083 0.133436 0.256468 0.148579
C51   C     C_R   0.349430 0.815197 0.779604 0.148083
C52   C     C_R   0.647739 0.147740 0.250000 -0.022302
C53   C     C_R   0.352638 0.852639 0.749999 -0.009211
C54   C     C_R   0.852642 0.647356 0.250000 -0.009071
C55   C     C_R   0.147760 0.352244 0.750001 -0.023218
C56   C     C_R   0.352273 0.852274 0.250000 -0.021742
C57   C     C_R   0.229010 0.728999 0.749994 0.034881
C58   C     C_R   0.647383 0.147383 0.750001 -0.009941
C59   C     C_R   0.147357 0.352642 0.250000 -0.009086
C60   C     C_R   0.852255 0.647751 0.749999 -0.022686
C61   C     C_R   0.647358 0.852640 0.750001 -0.009122
C62   C     C_R   0.352251 0.147753 0.249999 -0.022820
C63   C     C_R   0.852284 0.352279 0.749999 -0.021403
C64   C     C_R   0.147377 0.647378 0.250000 -0.009754
C65   C     C_R   0.352654 0.147343 0.749999 -0.008653
C66   C     C_R   0.647751 0.852253 0.250000 -0.022754
C67   C     C_R   0.147742 0.647738 0.750001 -0.022402
C68   C     C_R   0.771550 0.271553 0.250001 0.032940
C69   C     C_R   0.852632 0.352633 0.250000 -0.009400
C70   C     C_3   0.575126 0.220069 0.236147 -0.902388
C71   C     C_3   0.317548 0.889221 0.688629 -0.915736
C72   C     C_3   0.889640 0.682862 0.311146 -0.916207
C73   C     C_3   0.220418 0.425102 0.762557 -0.901000
C74   C     C_3   0.424722 0.780160 0.235335 -0.903284
C75   C     C_3   0.680881 0.112457 0.687779 -0.914485
C76   C     C_3   0.110383 0.317167 0.311162 -0.916132
C77   C     C_3   0.779775 0.575034 0.763299 -0.901767
C78   C     C_3   0.682748 0.889516 0.688789 -0.916340
C79   C     C_1   0.500001 1.000000 0.111524 -0.137722
C80   C     C_3   0.425001 0.220266 0.236845 -0.901637
C81   C     C_3   0.780316 0.424615 0.765189 -0.903866
C82   C     C_3   0.112025 0.681285 0.312008 -0.915038
C83   C     C_3   0.316178 0.109329 0.689405 -0.917075
C84   C     C_3   0.575019 0.779756 0.236769 -0.901694
C85   C     C_3   0.220100 0.575099 0.763735 -0.902321
C86   C     C_3   0.888788 0.317951 0.311594 -0.915681
C87   C     C_3   0.075104 0.720103 0.736283 -0.902246
C88   C     C_3   0.817949 0.388788 0.188407 -0.915423
C89   C     C_3   0.390654 0.183819 0.810597 -0.917195
C90   C     C_1   0.499999 0.000000 0.888469 -0.138692
C91   C     C_3   0.720240 0.924987 0.263248 -0.901733
C92   C     C_3   0.924623 0.280320 0.734791 -0.904054
C93   C     C_3   0.181285 0.612025 0.187992 -0.914775
C94   C     C_3   0.610469 0.817250 0.811209 -0.916265
C95   C     C_3   0.279730 0.075005 0.263138 -0.901597
C96   C     C_3   0.182833 0.389607 0.188836 -0.916424
C97   C     C_3   0.924974 0.720218 0.736668 -0.901808
C98   C     C_3   0.280160 0.924723 0.264667 -0.903298
C99   C     C_3   0.612451 0.180883 0.812220 -0.914408
C100  C     C_3   0.817139 0.610352 0.188854 -0.916411
C101  C     C_1   0.000000 0.499999 0.111531 -0.138712
C102  C     C_3   0.074902 0.279576 0.737471 -0.900966
C103  C     C_3   0.720070 0.075127 0.263851 -0.902383
C104  C     C_3   0.389212 0.817550 0.811372 -0.915777
C105  C     C_R   0.271563 0.771552 0.749995 0.033014
C106  C     C_1   0.999999 0.500001 0.888476 -0.137722
C107  C     C_1   0.000001 0.500000 0.611524 -0.137721
C108  C     C_1   0.999999 0.500000 0.388469 -0.138711
C109  C     C_1   0.500002 0.999999 0.611531 -0.138692
C110  C     C_1   0.500001 0.000001 0.388476 -0.137722
C111  C     C_R   0.049551 0.502901 0.480708 -0.179871
C112  C     C_R   0.950449 0.497099 0.519281 -0.179698
C113  C     C_R   0.497769 0.049586 0.480721 -0.179706
C114  C     C_R   0.502237 0.950414 0.519290 -0.179860
C115  C     C_R   0.950448 0.497099 0.480710 -0.179863
C116  C     C_R   0.771572 0.728438 0.249995 0.032951
C117  C     C_R   0.049552 0.502900 0.519279 -0.179704
C118  C     C_R   0.502237 0.950415 0.480719 -0.179700
C119  C     C_R   0.497769 0.049585 0.519292 -0.179866
C120  C     C_R   0.549600 0.998094 0.980708 -0.179886
C121  C     C_R   0.450402 0.001906 0.019281 -0.179701
C122  C     C_R   0.997436 0.549570 0.980721 -0.179705
C123  C     C_R   0.002563 0.450430 0.019290 -0.179863
C124  C     C_R   0.450401 0.001906 0.980710 -0.179840
C125  C     C_R   0.549600 0.998094 0.019279 -0.179705
C126  C     C_R   0.002563 0.450431 0.980719 -0.179700
C127  C     C_R   0.229036 0.270976 0.749992 0.035129
C128  C     C_R   0.997436 0.549570 0.019292 -0.179874
C129  C     C_R   1.000000 0.500000 0.461361 0.162321
C130  C     C_R   0.000000 0.500000 0.538629 0.162068
C131  C     C_R   0.500002 0.000001 0.461371 0.162061
C132  C     C_R   0.500003 1.000000 0.538639 0.162309
C133  C     C_R   0.500000 0.000000 0.961360 0.162308
C134  C     C_R   0.500001 1.000000 0.038629 0.162060
C135  C     C_R   0.999999 0.500001 0.961371 0.162066
C136  C     C_R   1.000000 0.500000 0.038639 0.162319
C137  C     C_R   0.500000 0.000000 0.348948 0.822274
C138  C     C_R   0.271015 0.771018 0.249999 0.034650
C139  C     C_R   0.500000 1.000000 0.651055 0.821647
C140  C     C_R   1.000000 0.500000 0.348945 0.821670
C141  C     C_R   0.000000 0.500000 0.651052 0.822278
C142  C     C_R   1.000000 0.500000 0.848948 0.822277
C143  C     C_R   0.000000 0.500000 0.151055 0.821669
C144  C     C_R   0.500000 0.000000 0.848945 0.821650
C145  C     C_R   0.500000 1.000000 0.151052 0.822276
C146  C     C_R   0.605222 0.894780 0.250000 0.818454
C147  C     C_R   0.394928 0.105071 0.750000 0.822040
C148  C     C_R   0.105083 0.605083 0.250000 0.821565
C149  C     C_R   0.728482 0.228467 0.750005 0.033070
C150  C     C_R   0.894792 0.394790 0.749999 0.819001
C151  C     C_R   0.394779 0.105223 0.249999 0.818427
C152  C     C_R   0.605076 0.894923 0.750000 0.821868
C153  C     C_R   0.894920 0.394921 0.250000 0.821708
C154  C     C_R   0.105218 0.605216 0.750001 0.818634
C155  C     C_R   0.605085 0.105085 0.750000 0.821469
C156  C     C_R   0.394788 0.894788 0.250000 0.818864
C157  C     C_R   0.105225 0.394776 0.750001 0.818292
C158  C     C_R   0.894924 0.605076 0.250000 0.821885
C159  C     C_R   0.394923 0.894923 0.750000 0.821751
C160  C     C_R   0.228438 0.271572 0.250004 0.032915
C161  C     C_R   0.605217 0.105217 0.250000 0.818664
C162  C     C_R   0.894780 0.605222 0.749999 0.818479
C163  C     C_R   0.105076 0.394923 0.250000 0.821877
C164  C     C_1   0.999999 0.500000 0.421700 -0.076594
C165  C     C_1   0.000001 0.500000 0.578292 -0.076412
C166  C     C_1   0.500001 0.000001 0.421708 -0.076414
C167  C     C_1   0.500003 0.999999 0.578300 -0.076586
C168  C     C_1   0.500000 0.000000 0.921700 -0.076586
C169  C     C_1   0.500001 1.000000 0.078292 -0.076415
C170  C     C_1   0.999999 0.500001 0.921708 -0.076414
C171  C     C_R   0.770994 0.729021 0.750008 0.034901
C172  C     C_1   1.000000 0.499999 0.078300 -0.076595
C173  C     C_R   0.674407 0.243070 0.243375 -0.171673
C174  C     C_R   0.274752 0.808923 0.720802 -0.169094
C175  C     C_R   0.809144 0.725455 0.279080 -0.169022
C176  C     C_R   0.243230 0.325704 0.755967 -0.171927
C177  C     C_R   0.325526 0.757035 0.242980 -0.171526
C178  C     C_R   0.724510 0.191885 0.720409 -0.169190
C179  C     C_R   0.190872 0.274563 0.279093 -0.169030
C180  C     C_R   0.756869 0.674371 0.756369 -0.171751
C181  C     C_R   0.725404 0.809087 0.720892 -0.169039
C182  C     C_R   0.728443 0.771573 0.750007 0.032942
C183  C     C_R   0.325653 0.243159 0.243718 -0.171805
C184  C     C_R   0.757108 0.325477 0.757274 -0.171448
C185  C     C_R   0.191674 0.724703 0.279492 -0.169176
C186  C     C_R   0.274105 0.190370 0.721168 -0.168999
C187  C     C_R   0.674361 0.756859 0.243672 -0.171784
C188  C     C_R   0.243089 0.674387 0.756547 -0.171727
C189  C     C_R   0.808724 0.274931 0.279295 -0.169126
C190  C     C_R   0.174398 0.743082 0.743446 -0.171712
C191  C     C_R   0.774929 0.308726 0.220706 -0.169073
C192  C     C_R   0.309633 0.225904 0.778822 -0.169020
H1    H     H_    0.588176 0.996611 0.033987 0.143300
H2    H     H_    0.911910 0.494843 0.466001 0.143150
H3    H     H_    0.784965 0.381024 0.167977 0.240112
H4    H     H_    0.813336 0.431348 0.198706 0.231028
H5    H     H_    0.857873 0.384771 0.174040 0.254808
H6    H     H_    0.383428 0.217318 0.830734 0.240450
H7    H     H_    0.387145 0.144261 0.825477 0.253570
H8    H     H_    0.432890 0.188234 0.799672 0.231852
H9    H     H_    0.764357 0.928115 0.270350 0.235983
H10   H     H_    0.713132 0.949864 0.238119 0.262166
H11   H     H_    0.696366 0.942192 0.286593 0.230080
H12   H     H_    0.927621 0.236362 0.727233 0.236636
H13   H     H_    0.496031 0.088150 0.534002 0.143154
H14   H     H_    0.941021 0.304739 0.711438 0.229647
H15   H     H_    0.950278 0.287003 0.759614 0.262124
H16   H     H_    0.214049 0.620020 0.167442 0.239940
H17   H     H_    0.185977 0.569333 0.198021 0.230728
H18   H     H_    0.141211 0.616258 0.173847 0.255301
H19   H     H_    0.618021 0.784068 0.831527 0.240232
H20   H     H_    0.614281 0.857035 0.825776 0.254278
H21   H     H_    0.568037 0.812702 0.800660 0.231371
H22   H     H_    0.235608 0.071873 0.270226 0.235953
H23   H     H_    0.286842 0.050187 0.237981 0.262034
H24   H     H_    0.503974 0.911850 0.466010 0.143312
H25   H     H_    0.303584 0.057736 0.286470 0.230248
H26   H     H_    0.216043 0.382080 0.168533 0.240245
H27   H     H_    0.143067 0.385806 0.174244 0.254214
H28   H     H_    0.187362 0.432029 0.199408 0.231428
H29   H     H_    0.928098 0.764329 0.729549 0.236010
H30   H     H_    0.949886 0.713126 0.761784 0.262166
H31   H     H_    0.942142 0.696322 0.713322 0.230066
H32   H     H_    0.236159 0.927756 0.272106 0.236450
H33   H     H_    0.304435 0.941358 0.288013 0.229812
H34   H     H_    0.286949 0.950154 0.239752 0.262067
H35   H     H_    0.911910 0.494843 0.533990 0.143309
H36   H     H_    0.620567 0.213531 0.832832 0.239847
H37   H     H_    0.569692 0.185620 0.802330 0.230577
H38   H     H_    0.616790 0.140730 0.826248 0.255550
H39   H     H_    0.783923 0.617870 0.168555 0.240252
H40   H     H_    0.856900 0.614133 0.174253 0.254195
H41   H     H_    0.812604 0.567939 0.199441 0.231429
H42   H     H_    0.071733 0.235406 0.730527 0.235751
H43   H     H_    0.050317 0.286827 0.762715 0.262053
H44   H     H_    0.057393 0.303258 0.714141 0.230445
H45   H     H_    0.764139 0.072041 0.271093 0.236178
H46   H     H_    0.088089 0.505157 0.465998 0.143135
H47   H     H_    0.696027 0.058162 0.287197 0.229910
H48   H     H_    0.713097 0.050015 0.238811 0.262181
H49   H     H_    0.381570 0.784450 0.831737 0.240196
H50   H     H_    0.431700 0.812979 0.800930 0.231192
H51   H     H_    0.385312 0.857393 0.825856 0.254544
H52   H     H_    0.503975 0.911849 0.533999 0.143161
H53   H     H_    0.496031 0.088151 0.466013 0.143303
H54   H     H_    0.663764 0.285544 0.238555 0.145020
H55   H     H_    0.245959 0.805987 0.698141 0.144690
H56   H     H_    0.806369 0.754408 0.301658 0.144700
H57   H     H_    0.411826 0.003389 0.966001 0.143180
H58   H     H_    0.285799 0.336454 0.760273 0.144929
H59   H     H_    0.336110 0.714625 0.237854 0.145010
H60   H     H_    0.752711 0.195425 0.697450 0.144759
H61   H     H_    0.193655 0.245618 0.301674 0.144725
H62   H     H_    0.714354 0.663683 0.760981 0.145003
H63   H     H_    0.754316 0.806269 0.698292 0.144717
H64   H     H_    0.336352 0.285685 0.239164 0.145011
H65   H     H_    0.714741 0.336021 0.762594 0.144985
H66   H     H_    0.195055 0.753063 0.302372 0.144778
H67   H     H_    0.244803 0.192780 0.698777 0.144624
H68   H     H_    0.995442 0.588122 0.034002 0.143140
H69   H     H_    0.663667 0.714338 0.239090 0.144993
H70   H     H_    0.285573 0.663726 0.761305 0.144962
H71   H     H_    0.805640 0.246277 0.302027 0.144760
H72   H     H_    0.163738 0.785567 0.738688 0.144971
H73   H     H_    0.746275 0.305642 0.197974 0.144784
H74   H     H_    0.307221 0.255209 0.801211 0.144598
H75   H     H_    0.785668 0.836345 0.260904 0.144981
H76   H     H_    0.836038 0.214732 0.737412 0.144981
H77   H     H_    0.253061 0.695058 0.197627 0.144801
H78   H     H_    0.693737 0.745700 0.801720 0.144686
H79   H     H_    0.004557 0.411878 0.966010 0.143308
H80   H     H_    0.214320 0.163660 0.260840 0.145014
H81   H     H_    0.254393 0.306349 0.198333 0.144702
H82   H     H_    0.836335 0.785655 0.739026 0.144985
H83   H     H_    0.214623 0.836113 0.262145 0.145013
H84   H     H_    0.695435 0.252698 0.802559 0.144789
H85   H     H_    0.745604 0.693635 0.198334 0.144675
H86   H     H_    0.163559 0.214207 0.739719 0.144940
H87   H     H_    0.785543 0.163766 0.261446 0.145024
H88   H     H_    0.305992 0.745949 0.801850 0.144721
H89   H     H_    0.572039 0.264139 0.228905 0.236180
H90   H     H_    0.411826 0.003388 0.033990 0.143317
H91   H     H_    0.558165 0.196028 0.212798 0.229894
H92   H     H_    0.550010 0.213093 0.261184 0.262198
H93   H     H_    0.284449 0.881577 0.668263 0.240189
H94   H     H_    0.312969 0.931705 0.699075 0.231190
H95   H     H_    0.357392 0.885329 0.674145 0.254543
H96   H     H_    0.882122 0.716082 0.331444 0.240280
H97   H     H_    0.885850 0.643103 0.325748 0.254279
H98   H     H_    0.932055 0.687390 0.300563 0.231388
H99   H     H_    0.264593 0.428274 0.769487 0.235746
H100  H     H_    0.213140 0.449724 0.737335 0.262324
H101  H     H_    0.588175 0.996612 0.965998 0.143135
H102  H     H_    0.196748 0.442571 0.785907 0.230136
H103  H     H_    0.427754 0.736159 0.227895 0.236451
H104  H     H_    0.441360 0.804436 0.211991 0.229833
H105  H     H_    0.450149 0.786945 0.260252 0.262042
H106  H     H_    0.713532 0.120572 0.667169 0.239828
H107  H     H_    0.685610 0.069695 0.697665 0.230586
H108  H     H_    0.640730 0.116807 0.673751 0.255554
H109  H     H_    0.117910 0.283960 0.331466 0.240279
H110  H     H_    0.114176 0.356935 0.325754 0.254298
H111  H     H_    0.067965 0.312632 0.300586 0.231362
H112  H     H_    0.004557 0.411878 0.033999 0.143152
H113  H     H_    0.735669 0.571914 0.770434 0.236008
H114  H     H_    0.786837 0.550161 0.738160 0.261927
H115  H     H_    0.803684 0.557821 0.786624 0.230306
H116  H     H_    0.715935 0.881964 0.668473 0.240239
H117  H     H_    0.642965 0.885690 0.674221 0.254280
H118  H     H_    0.687286 0.931953 0.699331 0.231388
H119  H     H_    0.428136 0.264391 0.229766 0.235953
H120  H     H_    0.449841 0.213137 0.261988 0.262185
H121  H     H_    0.442245 0.196419 0.213501 0.230092
H122  H     H_    0.736361 0.427610 0.772758 0.236624
H123  H     H_    0.995442 0.588123 0.966013 0.143298
H124  H     H_    0.804743 0.441043 0.788529 0.229813
H125  H     H_    0.786978 0.450244 0.740352 0.261926
H126  H     H_    0.120020 0.714050 0.332558 0.239907
H127  H     H_    0.069332 0.685976 0.301980 0.230782
H128  H     H_    0.116260 0.641211 0.326153 0.255218
H129  H     H_    0.282683 0.116553 0.669267 0.240468
H130  H     H_    0.355739 0.112826 0.674525 0.253569
H131  H     H_    0.311755 0.067097 0.700336 0.231817
H132  H     H_    0.571893 0.735642 0.229658 0.235981
H133  H     H_    0.550164 0.786847 0.261912 0.262022
H134  H     H_    0.088091 0.505156 0.533987 0.143292
H135  H     H_    0.557789 0.803637 0.213437 0.230230
H136  H     H_    0.264182 0.572003 0.770938 0.236136
H137  H     H_    0.196102 0.558109 0.787094 0.229803
H138  H     H_    0.213079 0.550012 0.738690 0.262335
H139  H     H_    0.881023 0.284967 0.332024 0.240081
H140  H     H_    0.931347 0.313336 0.301295 0.231081
H141  H     H_    0.884771 0.357875 0.325961 0.254727
H142  H     H_    0.072011 0.764182 0.729070 0.236130
H143  H     H_    0.058086 0.696097 0.712937 0.229915
H144  H     H_    0.050042 0.713102 0.761342 0.262201
O1    O     O_3   0.500000 0.000000 0.250000 -0.477149
O2    O     O_R   0.500000 0.045450 0.668550 -0.637451
O3    O     O_R   0.045450 0.500000 0.331450 -0.637480
O4    O     O_R   0.954550 0.500000 0.668550 -0.635370
O5    O     O_R   0.000000 0.545450 0.831450 -0.635399
O6    O     O_R   0.000000 0.454550 0.168550 -0.637440
O7    O     O_R   0.454550 0.000000 0.831450 -0.637364
O8    O     O_R   0.545450 0.000000 0.168550 -0.635402
O9    O     O_R   1.000000 0.454550 0.831450 -0.635382
O10   O     O_R   0.000000 0.545450 0.168550 -0.637479
O11   O     O_R   0.545450 0.000000 0.831450 -0.637518
O12   O     O_3   0.500000 0.000000 0.750000 -0.480275
O13   O     O_R   0.454550 0.000000 0.168550 -0.635383
O14   O     O_R   0.564020 0.890520 0.271340 -0.640410
O15   O     O_R   0.435980 0.109480 0.728660 -0.639038
O16   O     O_R   0.109480 0.564020 0.271340 -0.639176
O17   O     O_R   0.890520 0.435980 0.728660 -0.640469
O18   O     O_R   0.435980 0.109480 0.271340 -0.640442
O19   O     O_R   0.564020 0.890520 0.728660 -0.639111
O20   O     O_R   0.890520 0.435980 0.271340 -0.639147
O21   O     O_R   0.109480 0.564020 0.728660 -0.640503
O22   O     O_R   0.564020 0.109480 0.728660 -0.639187
O23   O     O_3   1.000000 0.500000 0.250000 -0.480242
O24   O     O_R   0.435980 0.890520 0.271340 -0.640434
O25   O     O_R   0.109480 0.435980 0.728660 -0.640410
O26   O     O_R   0.890520 0.564020 0.271340 -0.639076
O27   O     O_R   0.435980 0.890520 0.728660 -0.639101
O28   O     O_R   0.564020 0.109480 0.271340 -0.640439
O29   O     O_R   0.890520 0.564020 0.728660 -0.640350
O30   O     O_R   0.109480 0.435980 0.271340 -0.639059
O31   O     O_R   0.064020 0.390520 0.771340 -0.640418
O32   O     O_R   0.935980 0.609480 0.228660 -0.639089
O33   O     O_R   0.609480 0.064020 0.771340 -0.639164
O34   O     O_3   1.000000 0.500000 0.750000 -0.477146
O35   O     O_R   0.390520 0.935980 0.228660 -0.640435
O36   O     O_R   0.935980 0.609480 0.771340 -0.640466
O37   O     O_R   0.064020 0.390520 0.228660 -0.639107
O38   O     O_R   0.390520 0.935980 0.771340 -0.639122
O39   O     O_R   0.609480 0.064020 0.228660 -0.640434
O40   O     O_R   0.064020 0.609480 0.228660 -0.639148
O41   O     O_R   0.935980 0.390520 0.771340 -0.640438
O42   O     O_R   0.609480 0.935980 0.228660 -0.640446
O43   O     O_R   0.390520 0.064020 0.771340 -0.639070
O44   O     O_R   0.935980 0.390520 0.228660 -0.639117
O45   O     O_R   0.500000 0.045450 0.331450 -0.635402
O46   O     O_R   0.064020 0.609480 0.771340 -0.640414
O47   O     O_R   0.390520 0.064020 0.228660 -0.640412
O48   O     O_R   0.609480 0.935980 0.771340 -0.639082
O49   O     O_R   0.500000 0.954550 0.668550 -0.637429
O50   O     O_R   0.954550 0.500000 0.331450 -0.637439
O51   O     O_R   0.045450 0.500000 0.668550 -0.635412
O52   O     O_R   0.500000 0.954550 0.331450 -0.635381
Zn1   Zn    Zn3+2 0.564990 1.000000 0.219470 0.965301
Zn2   Zn    Zn3+2 0.935010 0.500000 0.280530 0.969661
Zn3   Zn    Zn3+2 0.500000 0.064990 0.719470 0.969622
Zn4   Zn    Zn3+2 0.500000 0.935010 0.280530 0.965423
Zn5   Zn    Zn3+2 0.935010 0.500000 0.719470 0.965516
Zn6   Zn    Zn3+2 0.064990 0.500000 0.280530 0.969570
Zn7   Zn    Zn3+2 0.500000 0.935010 0.719470 0.969688
Zn8   Zn    Zn3+2 0.500000 0.064990 0.280530 0.965289
Zn9   Zn    Zn3+2 0.435010 0.000000 0.780530 0.969804
Zn10  Zn    Zn3+2 1.000000 0.564990 0.219470 0.969571
Zn11  Zn    Zn3+2 0.000000 0.435010 0.780530 0.965399
Zn12  Zn    Zn3+2 0.435010 1.000000 0.219470 0.965410
Zn13  Zn    Zn3+2 0.564990 0.000000 0.780530 0.969504
Zn14  Zn    Zn3+2 0.000000 0.435010 0.219470 0.969657
Zn15  Zn    Zn3+2 0.000000 0.564990 0.780530 0.965298
Zn16  Zn    Zn3+2 0.064990 0.500000 0.719470 0.965183

loop_
_geom_bond_atom_site_label_1
_geom_bond_atom_site_label_2
_ccdc_geom_bond_type
C102  H44   S    
C35   C192  A    
C110  C166  T    
C6    H78   S    
C36   C191  A    
C191  H73   S    
O41   Zn11  S    
C41   C61   A    
C40   C93   S    
O38   Zn9   S    
C76   H110  S    
C143  O10   A    
C89   H6    S    
C108  C164  T    
C124  C133  A    
C84   H132  S    
C128  H68   S    
O23   Zn2   S    
C176  H58   S    
C153  O44   A    
C18   C71   S    
C1    C68   S    
C33   C189  A    
C120  C133  A    
C7    C42   A    
O32   Zn10  S    
C75   H108  S    
C162  O29   A    
C88   H4    S    
C118  C131  A    
C117  H134  S    
C131  C166  S    
C134  C169  S    
C50   C52   A    
C8    C43   A    
C1    C15   A    
C25   C60   A    
C65   C147  S    
C10   H83   S    
C23   C179  A    
C99   H36   S    
C33   C69   A    
C52   C161  S    
C14   H86   S    
C21   C177  A    
C29   C64   A    
C50   C103  S    
C154  O21   A    
C141  O4    A    
C147  O43   A    
O6    Zn14  S    
C17   C52   A    
C17   C173  A    
C106  C142  S    
C48   C100  S    
C53   C159  S    
C42   C95   S    
C87   H142  S    
C86   H140  S    
C154  O46   A    
C137  O52   A    
C49   C102  S    
O28   Zn8   S    
C120  C125  A    
C123  C126  A    
C82   H128  S    
C51   C104  S    
C96   H28   S    
C187  H69   S    
C97   H31   S    
C129  C164  S    
O18   Zn8   S    
C24   C185  A    
O10   Zn10  S    
C88   H5    S    
O42   Zn1   S    
C41   C94   S    
C125  H1    S    
C13   C184  A    
C43   C96   S    
C148  O16   A    
C35   C127  S    
C157  O25   A    
C72   H97   S    
C102  H42   S    
C139  O2    A    
C9    C171  A    
C96   H27   S    
C127  C176  A    
C89   H8    S    
C3    C46   A    
C158  O32   A    
C22   C58   A    
C46   C116  S    
C153  O20   A    
C75   H106  S    
C29   C82   S    
C16   H88   S    
O9    Zn11  S    
C130  C165  S    
C140  O50   A    
C68   C189  A    
C146  O42   A    
C113  H53   S    
C155  O33   A    
C95   H25   S    
C20   C73   S    
C73   H100  S    
O47   Zn12  S    
O48   Zn13  S    
C27   C183  A    
C66   C146  S    
C28   C63   A    
C81   H122  S    
C147  O15   A    
C31   C187  A    
C10   C138  A    
C159  O27   A    
C173  H54   S    
C114  H52   S    
C107  C165  T    
C94   H20   S    
C155  O22   A    
C2    C7    A    
C16   C51   A    
C23   C76   S    
C56   C156  S    
C25   C180  A    
C36   C88   S    
C23   C59   A    
C1    C173  A    
C26   C78   S    
C6    C182  A    
C67   C154  S    
C7    H80   S    
O8    Zn1   S    
C80   H120  S    
C78   H116  S    
C87   H144  S    
C104  H49   S    
C47   C99   S    
C144  O11   A    
O29   Zn5   S    
C135  C170  S    
C72   H98   S    
C103  H48   S    
C37   C65   A    
O14   Zn4   S    
C107  C141  S    
C42   C62   A    
O52   Zn4   S    
C34   C87   S    
C64   C148  S    
O27   Zn7   S    
C106  C170  T    
C85   H138  S    
C10   C45   A    
C99   H37   S    
C111  C129  A    
C34   C190  A    
O40   Zn10  S    
C45   C56   A    
C27   C80   S    
C133  C168  S    
C68   C191  A    
C49   C55   A    
C31   C84   S    
C73   H102  S    
C51   C53   A    
C144  O7    A    
C63   C150  S    
C117  C130  A    
C27   C62   A    
C185  H66   S    
C81   H124  S    
O26   Zn2   S    
C186  H67   S    
O43   Zn9   S    
C83   H130  S    
O15   Zn3   S    
O51   Zn16  S    
C91   H9    S    
O7    Zn9   S    
C161  O28   A    
C16   C105  A    
C32   C67   A    
C119  H13   S    
C18   C174  A    
C19   C54   A    
C151  O47   A    
C115  H2    S    
C46   C187  A    
O23   Zn10  S    
O1    Zn4   S    
C116  C175  A    
C90   C168  T    
O12   Zn13  S    
C100  H39   S    
C137  O45   A    
C140  O3    A    
O36   Zn15  S    
C159  O38   A    
C156  O35   A    
C104  H51   S    
C111  C117  A    
O34   Zn11  S    
C15   H87   S    
C123  H112  S    
C28   C184  A    
C92   H15   S    
C20   C176  A    
C163  O30   A    
C35   C186  A    
C149  C178  A    
C29   C185  A    
C75   H107  S    
C19   C175  A    
C11   H84   S    
C30   C65   A    
C145  O13   A    
C179  H61   S    
C37   C192  A    
C2    C160  S    
C93   H18   S    
C71   H94   S    
C118  H24   S    
C112  C130  A    
C93   H16   S    
C12   H85   S    
O3    Zn6   S    
C90   C144  S    
O23   Zn14  S    
C12   C116  A    
C125  C134  A    
O1    Zn8   S    
O21   Zn16  S    
C11   C47   A    
C132  C167  S    
C12   C48   A    
C181  C182  A    
C122  H123  S    
C139  O49   A    
C86   H141  S    
C74   H103  S    
C26   C61   A    
O34   Zn15  S    
C45   C98   S    
C128  C136  A    
O16   Zn6   S    
C2    C183  A    
C70   H91   S    
C151  O18   A    
C71   H95   S    
C97   H30   S    
C30   C83   S    
C152  O48   A    
C18   C53   A    
C113  C119  A    
C11   C149  A    
C77   H113  S    
C136  C172  S    
C78   H118  S    
C121  C134  A    
C85   H136  S    
C8    H81   S    
C92   H12   S    
C98   H33   S    
C102  H43   S    
C112  H35   S    
C88   H3    S    
O19   Zn7   S    
C100  H41   S    
O50   Zn2   S    
O17   Zn5   S    
C76   H109  S    
C174  H55   S    
C89   H7    S    
C111  H46   S    
C3    H75   S    
C62   C151  S    
C126  H79   S    
O30   Zn6   S    
C183  H64   S    
C180  H62   S    
O25   Zn16  S    
O44   Zn14  S    
C38   C91   S    
C82   H126  S    
C14   C127  A    
O37   Zn14  S    
C80   H121  S    
O49   Zn7   S    
C73   H99   S    
O39   Zn1   S    
C158  O26   A    
C175  H56   S    
C126  C135  A    
C83   H131  S    
O23   Zn6   S    
O12   Zn3   S    
C8    C160  A    
C39   C92   S    
O11   Zn13  S    
O35   Zn12  S    
C94   H21   S    
O24   Zn4   S    
C86   H139  S    
C110  C137  S    
C34   C67   A    
C21   C56   A    
O46   Zn15  S    
C142  O9    A    
O1    Zn1   S    
C82   H127  S    
C4    H76   S    
C70   H89   S    
C5    H77   S    
C37   C89   S    
C79   C169  T    
C87   H143  S    
C77   H115  S    
C44   C60   A    
C143  O6    A    
C104  H50   S    
C32   C85   S    
C122  C128  A    
C69   C153  S    
C122  C135  A    
C163  O37   A    
C92   H14   S    
O34   Zn16  S    
C26   C181  A    
C55   C157  S    
C150  O41   A    
C103  H47   S    
C5    C40   A    
O12   Zn7   S    
C76   H111  S    
C91   H11   S    
C31   C66   A    
C57   C105  S    
C84   H133  S    
C95   H23   S    
C171  C182  S    
C72   H96   S    
C85   H137  S    
C22   C178  A    
C79   C145  S    
C48   C54   A    
C101  C172  T    
C25   C77   S    
C30   C186  A    
C120  H101  S    
C70   H92   S    
O34   Zn5   S    
C14   C49   A    
O33   Zn13  S    
C177  H59   S    
C188  H70   S    
O2    Zn3   S    
C189  H71   S    
C15   C50   A    
C190  H72   S    
C4    C13   A    
O22   Zn3   S    
C57   C188  A    
C109  C167  T    
O1    Zn12  S    
C77   H114  S    
C3    C38   A    
C121  C124  A    
C6    C41   A    
C83   H129  S    
C152  O19   A    
C181  H63   S    
O31   Zn11  S    
C78   H117  S    
C141  O51   A    
C94   H19   S    
C19   C72   S    
C22   C75   S    
C20   C55   A    
O20   Zn2   S    
O45   Zn8   S    
C32   C188  A    
C162  O36   A    
C91   H10   S    
C38   C66   A    
C9    H82   S    
C100  H40   S    
C59   C163  S    
C80   H119  S    
C108  C140  S    
C24   C138  S    
C21   C74   S    
C98   H32   S    
C33   C86   S    
C160  C179  A    
C124  H57   S    
C54   C158  S    
C44   C97   S    
C60   C162  S    
C4    C39   A    
C103  H45   S    
C119  C132  A    
C150  O17   A    
C192  H74   S    
O12   Zn9   S    
C114  C118  A    
O13   Zn12  S    
O4    Zn5   S    
C105  C174  A    
C84   H135  S    
C93   H17   S    
C71   H93   S    
C171  C180  A    
C121  H90   S    
C145  O8    A    
C99   H38   S    
C36   C69   A    
C115  C129  A    
C95   H22   S    
C9    C44   A    
C113  C131  A    
C28   C81   S    
C114  C132  A    
O5    Zn15  S    
C138  C177  A    
C43   C59   A    
C39   C63   A    
C156  O24   A    
C184  H65   S    
C40   C64   A    
C123  C136  A    
C109  C139  S    
C74   H104  S    
C13   C149  S    
C57   C190  A    
C47   C58   A    
C101  C143  S    
C81   H125  S    
C5    C24   A    
C96   H26   S    
C97   H29   S    
C161  O39   A    
C146  O14   A    
C61   C152  S    
C58   C155  S    
C148  O40   A    
C178  H60   S    
C74   H105  S    
C17   C70   S    
C157  O31   A    
C112  C115  A    
C142  O5    A    
C98   H34   S    
