data_mof_unit_18070.cif
_audit_creation_date              2012-12-11T17:01:13-0500
_audit_creation_method            fapswitch 2.2
_symmetry_space_group_name_H-M    P1
_symmetry_Int_Tables_number       1
_space_group_crystal_system       triclinic
_cell_length_a                    19.345583
_cell_length_b                    7.089921
_cell_length_c                    17.628166
_cell_angle_alpha                 90.000011
_cell_angle_beta                  108.572009
_cell_angle_gamma                 90.0
_cell_volume                      2291.94358594

loop_
_atom_site_label
_atom_site_type_symbol
_atom_type_description
_atom_site_fract_x
_atom_site_fract_y
_atom_site_fract_z
_atom_type_partial_charge
O1    O     O_R   0.413720 0.494330 0.415730 -0.537922
O2    O     O_R   0.586280 0.994330 0.584270 -0.537922
O3    O     O_R   0.560210 0.819300 0.430070 -0.548107
O4    O     O_R   0.439790 0.319300 0.569930 -0.548107
C1    C     C_R   0.580762 0.655194 0.413680 0.791372
C2    C     C_R   0.419238 0.155194 0.586320 0.791372
O5    O     O_R   0.412670 0.823730 0.406310 -0.499485
O6    O     O_R   0.587330 0.323730 0.593690 -0.499485
O7    O     O_R   0.437690 0.998790 0.560340 -0.512995
O8    O     O_R   0.562310 0.498790 0.439660 -0.512995
C3    C     C_R   0.385952 0.654815 0.382546 0.771508
C4    C     C_R   0.614048 0.154815 0.617454 0.771508
O9    O     O_3   0.508380 0.662350 0.550560 -0.363774
O10   O     O_3   0.491620 0.162350 0.449440 -0.363774
V1    V     V_3+5 0.498450 0.935370 0.490620 1.664785
V2    V     V_3+5 0.501550 0.435370 0.509380 1.664785
C5    C     C_R   0.726357 0.984331 0.700271 -0.073725
C6    C     C_R   0.273643 0.484330 0.299729 -0.073725
C7    C     C_R   0.680285 0.141983 0.688984 -0.162967
C8    C     C_R   0.319715 0.641983 0.311016 -0.162968
C9    C     C_R   0.697030 0.278334 0.751107 0.528106
C10   C     C_R   0.302970 0.778335 0.248893 0.528107
C11   C     C_R   0.764504 0.268320 0.814351 -0.180269
C12   C     C_R   0.235496 0.768321 0.185649 -0.180269
H1    H     H_    0.778737 0.379778 0.858626 0.148819
H2    H     H_    0.221263 0.879779 0.141375 0.148820
C13   C     C_R   0.813697 0.118120 0.819490 -0.156108
C14   C     C_R   0.186303 0.618119 0.180510 -0.156108
C15   C     C_R   0.790533 0.971302 0.764278 -0.032140
C16   C     C_R   0.209467 0.471302 0.235722 -0.032140
C17   C     C_3   0.830048 0.871686 0.715795 0.216644
C18   C     C_3   0.169952 0.371685 0.284205 0.216644
C19   C     C_3   0.759325 0.886032 0.644904 0.620975
C20   C     C_3   0.240675 0.386031 0.355095 0.620975
H3    H     H_    0.876083 0.956594 0.709052 0.114355
H4    H     H_    0.123917 0.456593 0.290948 0.114355
C21   C     C_R   0.324216 0.296471 0.636423 -0.155365
C22   C     C_R   0.675783 0.796471 0.363577 -0.155365
C23   C     C_R   0.372094 0.146921 0.638214 -0.198833
C24   C     C_R   0.627906 0.646921 0.361786 -0.198833
C25   C     C_R   0.375514 0.992389 0.690184 0.453306
C26   C     C_R   0.624486 0.492389 0.309815 0.453307
C27   C     C_R   0.326416 0.981347 0.735439 -0.096070
C28   C     C_R   0.673583 0.481347 0.264561 -0.096070
C29   C     C_R   0.278003 0.134164 0.731951 -0.090601
C30   C     C_R   0.721997 0.634164 0.268049 -0.090602
C31   C     C_R   0.277498 0.291687 0.682698 0.127039
C32   C     C_R   0.722502 0.791687 0.317302 0.127038
C33   C     C_R   0.325009 0.823188 0.784515 0.492059
C34   C     C_R   0.674991 0.323188 0.215485 0.492060
C35   C     C_R   0.274530 0.819949 0.827488 -0.320086
C36   C     C_R   0.725470 0.319949 0.172512 -0.320088
C37   C     C_R   0.227833 0.972102 0.824985 0.042587
C38   C     C_R   0.772167 0.472102 0.175015 0.042588
C39   C     C_R   0.229624 0.130231 0.777507 0.081893
C40   C     C_R   0.770376 0.630231 0.222493 0.081893
C41   C     C_R   0.182370 0.284096 0.774941 0.098181
C42   C     C_R   0.817630 0.784096 0.225059 0.098180
C43   C     C_R   0.182835 0.439106 0.725839 -0.192601
C44   C     C_R   0.817165 0.939106 0.274161 -0.192601
C45   C     C_R   0.229573 0.442222 0.679690 -0.054285
C46   C     C_R   0.770427 0.942222 0.320311 -0.054286
C47   C     C_R   0.178675 0.967215 0.868839 -0.190688
C48   C     C_R   0.821325 0.467215 0.131161 -0.190688
C49   C     C_R   0.132303 0.120892 0.867621 -0.079705
C50   C     C_R   0.867697 0.620892 0.132379 -0.079705
C51   C     C_R   0.134921 0.279700 0.820905 -0.203735
C52   C     C_R   0.865079 0.779699 0.179095 -0.203735
H5    H     H_    0.322804 0.416834 0.598050 0.199549
H6    H     H_    0.677196 0.916834 0.401950 0.199549
H7    H     H_    0.270511 0.696580 0.862013 0.135402
H8    H     H_    0.729489 0.196580 0.137987 0.135401
H9    H     H_    0.177416 0.844596 0.905154 0.117543
H10   H     H_    0.822584 0.344596 0.094845 0.117543
H11   H     H_    0.099029 0.398289 0.819078 0.144908
H12   H     H_    0.900970 0.898289 0.180922 0.144908
H13   H     H_    0.146859 0.557969 0.722929 0.147307
H14   H     H_    0.853141 0.057969 0.277071 0.147307
H15   H     H_    0.228691 0.563630 0.642024 0.160300
H16   H     H_    0.771309 0.063630 0.357976 0.160301
O11   O     O_R   0.937800 0.775460 0.060470 -0.541874
O12   O     O_R   0.062200 0.275460 0.939530 -0.541874
O13   O     O_R   0.087350 0.441340 0.093710 -0.524254
O14   O     O_R   0.912650 0.941340 0.906290 -0.524254
C53   C     C_R   0.115164 0.609967 0.115825 0.731919
C54   C     C_R   0.884836 0.109967 0.884175 0.731919
O15   O     O_R   0.939820 0.446010 0.069950 -0.545632
O16   O     O_R   0.060180 0.946010 0.930050 -0.545632
O17   O     O_R   0.913690 0.271230 0.915700 -0.529033
O18   O     O_R   0.086310 0.771230 0.084300 -0.529033
C55   C     C_R   0.918283 0.614217 0.084512 0.699462
C56   C     C_R   0.081717 0.114217 0.915488 0.699461
O19   O     O_3   0.991670 0.603050 0.949510 -0.357870
O20   O     O_3   0.008330 0.103050 0.050490 -0.357870
V3    V     V_3+5 0.001550 0.329940 0.009370 1.512142
V4    V     V_3+5 0.998450 0.829940 0.990630 1.512142
O21   O     O_3   0.649127 0.425679 0.747547 -0.521026
C57   C     C_3   0.623120 0.414762 0.813733 -0.297368
H17   H     H_    0.608958 0.267854 0.825921 0.096693
H18   H     H_    0.572362 0.498726 0.800383 0.169320
H19   H     H_    0.663409 0.475986 0.867923 0.138271
O22   O     O_3   0.350873 0.925681 0.252454 -0.521025
C58   C     C_3   0.376880 0.914766 0.186268 -0.297365
H20   H     H_    0.391043 0.767859 0.174080 0.096691
H21   H     H_    0.427637 0.998732 0.199618 0.169322
H22   H     H_    0.336590 0.975991 0.132077 0.138270
Cl1   Cl    Cl    0.856674 0.639545 0.753696 -0.563315
Cl2   Cl    Cl    0.143327 0.139544 0.246303 -0.563315
Cl3   Cl    Cl    0.713739 0.669246 0.607811 -0.519823
Cl4   Cl    Cl    0.286262 0.169245 0.392188 -0.519822
Cl5   Cl    Cl    0.768090 0.034562 0.566492 -0.633707
Cl6   Cl    Cl    0.231909 0.534561 0.433508 -0.633707
O23   O     O_3   0.427022 0.852760 0.696336 -0.516518
C59   C     C_3   0.493472 0.911603 0.752399 -0.173683
H23   H     H_    0.488773 0.921031 0.813568 0.115549
H24   H     H_    0.512555 0.048620 0.735536 0.067019
H25   H     H_    0.535966 0.805886 0.753714 0.166205
O24   O     O_3   0.572977 0.352760 0.303664 -0.516518
C60   C     C_3   0.506527 0.411604 0.247601 -0.173692
H26   H     H_    0.511226 0.421024 0.186432 0.115556
H27   H     H_    0.487447 0.548626 0.264461 0.067017
H28   H     H_    0.464033 0.305893 0.246288 0.166205
O25   O     O_3   0.367440 0.665945 0.782323 -0.521161
C61   C     C_3   0.401115 0.589871 0.859292 -0.250250
H29   H     H_    0.363776 0.489694 0.875179 0.135346
H30   H     H_    0.420490 0.700955 0.906000 0.105417
H31   H     H_    0.449651 0.508253 0.857989 0.150997
O26   O     O_3   0.632559 0.165945 0.217676 -0.521162
C62   C     C_3   0.598888 0.089863 0.140710 -0.250257
H32   H     H_    0.636229 0.989687 0.124826 0.135350
H33   H     H_    0.579514 0.200942 0.094000 0.105421
H34   H     H_    0.550352 0.008243 0.142012 0.150998

loop_
_geom_bond_atom_site_label_1
_geom_bond_atom_site_label_2
_ccdc_geom_bond_type
C49   C56   S    
C50   C52   A    
O16   V4    S    
O4    V2    S    
O15   C55   A    
C13   C15   A    
C20   Cl6   S    
O1    C3    A    
O2    C4    A    
O26   C62   S    
C43   H13   S    
C2    O7    A    
C22   H6    S    
C59   H23   S    
O25   C61   S    
C23   C25   A    
O5    C3    A    
C44   H14   S    
C5    C19   S    
C18   H4    S    
C46   H16   S    
C7    C9    A    
C12   H2    S    
C62   H32   S    
C21   H5    S    
C47   C49   A    
C41   C43   A    
C42   C44   A    
C33   O25   S    
O12   C56   A    
C6    C8    A    
C44   C46   A    
O14   V4    S    
C29   C31   A    
O24   C60   S    
O16   C56   A    
C28   C30   A    
C33   C35   A    
O15   V3    S    
C34   C36   A    
C17   C19   S    
C6    C16   A    
C11   C13   A    
C21   C31   A    
C19   Cl3   S    
C22   C32   A    
C62   H34   S    
C37   C39   A    
O6    V2    S    
C22   C24   A    
C25   C27   A    
O20   V3    S    
C35   H7    S    
C41   C51   A    
C36   C38   A    
O21   C57   S    
C30   C32   A    
C60   H27   S    
C9    C11   A    
C53   O18   A    
C38   C40   A    
C3    C8    S    
C43   C45   A    
O4    C2    A    
O11   V4    S    
C27   C33   A    
O5    V1    S    
C47   H9    S    
C49   C51   A    
C35   C37   A    
C48   C50   A    
O17   V3    S    
C13   C54   S    
C36   H8    S    
C27   C29   A    
C32   C46   A    
O6    C4    A    
O13   V3    S    
C58   H21   S    
O1    V2    S    
O20   V4    S    
O2    V1    S    
C6    C20   S    
C61   H31   S    
C19   Cl5   S    
C42   C52   A    
O13   C53   A    
C8    C10   A    
O19   V4    S    
C57   H18   S    
C39   C41   A    
C20   Cl4   S    
C17   H3    S    
C1    C24   S    
C34   O26   S    
C58   H20   S    
O3    V1    S    
C61   H30   S    
O23   C59   S    
C60   H28   S    
C28   C34   A    
O12   V3    S    
O10   V1    S    
C17   Cl1   S    
C26   O24   S    
C12   C14   A    
C25   O23   S    
O3    C1    A    
C54   O17   A    
C31   C45   A    
C59   H24   S    
C60   H26   S    
O18   V4    S    
C50   C55   S    
C52   H12   S    
C57   H19   S    
C10   O22   S    
C14   C16   A    
O7    V1    S    
C26   C28   A    
C1    O8    A    
C15   C17   S    
O8    V2    S    
C5    C15   A    
C16   C18   S    
C37   C47   A    
O19   V3    S    
C38   C48   A    
C45   H15   S    
C4    C7    S    
C24   C26   A    
C5    C7    A    
C40   C42   A    
C58   H22   S    
C10   C12   A    
C11   H1    S    
O22   C58   S    
C59   H25   S    
C9    O21   S    
O11   C55   A    
C51   H11   S    
C29   C39   A    
C21   C23   A    
C57   H17   S    
C18   Cl2   S    
O9    V2    S    
C30   C40   A    
C14   C53   S    
C48   H10   S    
C2    C23   S    
O14   C54   A    
C18   C20   S    
C61   H29   S    
C62   H33   S    
