data_mof_unit_60232.cif
_audit_creation_date              2012-12-10T18:55:20-0500
_audit_creation_method            fapswitch 2.2
_symmetry_space_group_name_H-M    P1
_symmetry_Int_Tables_number       1
_space_group_crystal_system       triclinic
_cell_length_a                    30.225961
_cell_length_b                    30.225964
_cell_length_c                    23.545453
_cell_angle_alpha                 90.000528
_cell_angle_beta                  89.999456
_cell_angle_gamma                 90.0
_cell_volume                      21511.333272

loop_
_atom_site_label
_atom_site_type_symbol
_atom_type_description
_atom_site_fract_x
_atom_site_fract_y
_atom_site_fract_z
_atom_type_partial_charge
C1    C     C_R   0.586089 0.000000 0.500000 0.886087
C2    C     C_R   1.000000 0.586089 0.500000 0.886087
C3    C     C_R   0.413911 0.000000 0.500000 0.886086
C4    C     C_R   1.000000 0.413911 0.500000 0.886088
C5    C     C_R   0.086089 0.500000 0.000000 0.886085
C6    C     C_R   0.500000 0.086089 1.000000 0.886086
C7    C     C_R   0.913911 0.500000 1.000000 0.886085
C8    C     C_R   0.500000 0.913911 0.000000 0.886081
C9    C     C_R   0.842348 0.033422 0.530002 0.405320
C10   C     C_R   0.966577 0.842348 0.529999 0.405321
C11   C     C_R   0.157652 0.966577 0.529999 0.405319
C12   C     C_R   0.033424 0.157652 0.529998 0.405324
C13   C     C_R   0.842348 0.966577 0.470000 0.405319
C14   C     C_R   0.966576 0.157652 0.470004 0.405323
C15   C     C_R   0.157652 0.033422 0.469999 0.405319
C16   C     C_R   0.033423 0.842348 0.469999 0.405319
C17   C     C_R   0.342348 0.533422 0.030002 0.405312
C18   C     C_R   0.466578 0.342348 0.030002 0.405315
C19   C     C_R   0.657652 0.466578 0.030000 0.405314
C20   C     C_R   0.533419 0.657652 0.030006 0.405306
C21   C     C_R   0.342348 0.466578 0.970000 0.405314
C22   C     C_R   0.466581 0.657652 0.969995 0.405305
C23   C     C_R   0.657652 0.533422 0.969998 0.405311
C24   C     C_R   0.533421 0.342348 0.969997 0.405314
C25   C     C_R   0.865726 1.000000 0.500001 -0.282307
C26   C     C_R   1.000000 0.865726 0.499999 -0.282305
C27   C     C_R   0.134274 1.000000 0.499999 -0.282307
C28   C     C_R   1.000000 0.134274 0.500001 -0.282304
C29   C     C_R   0.365726 0.500000 0.000001 -0.282305
C30   C     C_R   0.500000 0.365726 0.999999 -0.282307
C31   C     C_R   0.634274 0.500000 0.999999 -0.282305
C32   C     C_R   0.500000 0.634274 0.000001 -0.282311
C33   C     C_R   0.773815 1.000000 0.500001 0.077920
C34   C     C_R   1.000000 0.773815 0.499999 0.077924
C35   C     C_R   0.226185 1.000000 0.499999 0.077917
C36   C     C_R   1.000000 0.226185 0.500001 0.077934
C37   C     C_R   0.273815 0.500000 0.000001 0.077905
C38   C     C_R   0.500000 0.273815 0.999999 0.077904
C39   C     C_R   0.726185 0.500000 0.999999 0.077904
C40   C     C_R   0.500000 0.726185 0.000001 0.077875
C41   C     C_R   0.000000 0.913664 0.500000 0.824575
C42   C     C_R   0.086336 1.000000 0.500000 0.824575
C43   C     C_R   1.000000 0.086336 0.500000 0.824574
C44   C     C_R   0.913664 0.000000 0.500000 0.824575
C45   C     C_R   0.500000 0.413664 1.000000 0.824576
C46   C     C_R   0.586336 0.500000 1.000000 0.824576
C47   C     C_R   0.500000 0.586336 0.000000 0.824580
C48   C     C_R   0.413664 0.500000 0.000000 0.824576
C49   C     C_R   0.500000 0.000000 0.609398 0.863448
C50   C     C_R   1.000000 0.500000 0.609398 0.863449
C51   C     C_R   0.500000 1.000000 0.390602 0.863448
C52   C     C_R   0.000000 0.500000 0.390602 0.863450
C53   C     C_R   0.000000 0.500000 0.109398 0.863449
C54   C     C_R   0.500000 1.000000 0.109398 0.863447
C55   C     C_R   1.000000 0.500000 0.890602 0.863449
C56   C     C_R   0.500000 0.000000 0.890602 0.863447
C57   C     C_1   0.500000 0.000000 0.669600 -0.140679
C58   C     C_1   0.999999 0.500000 0.669600 -0.140686
C59   C     C_1   0.500000 0.999999 0.330400 -0.140679
C60   C     C_1   0.000001 0.500000 0.330400 -0.140686
C61   C     C_1   0.000000 0.500000 0.169600 -0.140674
C62   C     C_1   0.499999 1.000000 0.169600 -0.140666
C63   C     C_1   1.000000 0.499999 0.830400 -0.140674
C64   C     C_1   0.500000 0.000000 0.830400 -0.140666
C65   C     C_1   0.500000 0.000000 0.720368 0.046064
C66   C     C_1   0.999999 0.499999 0.720368 0.046058
C67   C     C_1   0.499999 0.999999 0.279632 0.046064
C68   C     C_1   0.000001 0.500000 0.279632 0.046058
C69   C     C_1   0.000000 0.500000 0.220367 0.046066
C70   C     C_1   0.499999 1.000000 0.220367 0.046072
C71   C     C_1   0.999999 0.499999 0.779632 0.046066
C72   C     C_1   0.500000 0.000000 0.779632 0.046072
C73   C     C_R   0.703424 0.017427 0.453024 0.399558
C74   C     C_R   0.982568 0.703423 0.453025 0.399560
C75   C     C_R   0.296577 0.982575 0.453021 0.399559
C76   C     C_R   0.017438 0.296576 0.453030 0.399558
C77   C     C_R   0.703423 0.982572 0.546977 0.399558
C78   C     C_R   0.982562 0.296577 0.546971 0.399558
C79   C     C_R   0.296576 0.017425 0.546978 0.399560
C80   C     C_R   0.017432 0.703424 0.546973 0.399561
C81   C     C_R   0.203423 0.517413 0.953015 0.399558
C82   C     C_R   0.482587 0.203422 0.953014 0.399559
C83   C     C_R   0.796578 0.482587 0.953013 0.399562
C84   C     C_R   0.517390 0.796577 0.953001 0.399562
C85   C     C_R   0.203422 0.482587 0.046987 0.399559
C86   C     C_R   0.482610 0.796578 0.047001 0.399562
C87   C     C_R   0.796577 0.517414 0.046985 0.399562
C88   C     C_R   0.517413 0.203423 0.046985 0.399560
C89   C     C_R   0.657004 0.016841 0.452181 0.299928
C90   C     C_R   0.983154 0.657003 0.452182 0.299925
C91   C     C_R   0.342997 0.983161 0.452178 0.299928
C92   C     C_R   0.016851 0.342995 0.452186 0.299924
C93   C     C_R   0.657003 0.983159 0.547820 0.299927
C94   C     C_R   0.983149 0.342996 0.547814 0.299924
C95   C     C_R   0.342996 0.016839 0.547821 0.299928
C96   C     C_R   0.016846 0.657004 0.547817 0.299925
C97   C     C_R   0.157004 0.516827 0.952173 0.299931
C98   C     C_R   0.483172 0.157003 0.952172 0.299930
C99   C     C_R   0.842997 0.483172 0.952171 0.299932
C100  C     C_R   0.516806 0.842997 0.952160 0.299939
C101  C     C_R   0.157003 0.483173 0.047828 0.299931
C102  C     C_R   0.483194 0.842998 0.047841 0.299937
C103  C     C_R   0.842996 0.516828 0.047827 0.299931
C104  C     C_R   0.516828 0.157004 0.047827 0.299931
C105  C     C_R   0.633959 0.000000 0.500000 -0.338568
C106  C     C_R   0.000000 0.633960 0.500000 -0.338574
C107  C     C_R   0.366040 1.000000 0.500000 -0.338566
C108  C     C_R   1.000000 0.366040 0.500000 -0.338576
C109  C     C_R   0.133959 0.500000 0.000000 -0.338558
C110  C     C_R   0.500000 0.133959 1.000000 -0.338558
C111  C     C_R   0.866041 0.500000 1.000000 -0.338561
C112  C     C_R   0.500000 0.866041 0.000000 -0.338541
C113  C     C_R   0.725822 1.000000 0.500001 -0.154535
C114  C     C_R   1.000000 0.725822 0.499999 -0.154541
C115  C     C_R   0.274178 1.000000 0.499999 -0.154535
C116  C     C_R   1.000000 0.274178 0.500001 -0.154541
C117  C     C_R   0.225822 0.500000 0.000001 -0.154532
C118  C     C_R   0.500000 0.225822 0.999999 -0.154532
C119  C     C_R   0.774178 0.500000 0.999999 -0.154538
C120  C     C_R   0.500000 0.774179 0.000001 -0.154527
C121  C     C_R   0.796457 0.032317 0.530497 -0.065886
C122  C     C_R   0.967681 0.796457 0.530494 -0.065890
C123  C     C_R   0.203543 0.967682 0.530494 -0.065885
C124  C     C_R   0.032319 0.203543 0.530493 -0.065894
C125  C     C_R   0.796457 0.967682 0.469505 -0.065886
C126  C     C_R   0.967680 0.203543 0.469509 -0.065893
C127  C     C_R   0.203543 0.032317 0.469504 -0.065885
C128  C     C_R   0.032318 0.796457 0.469504 -0.065889
C129  C     C_R   0.296457 0.532317 0.030497 -0.065880
C130  C     C_R   0.467683 0.296457 0.030496 -0.065880
C131  C     C_R   0.703543 0.467683 0.030495 -0.065880
C132  C     C_R   0.532314 0.703543 0.030502 -0.065867
C133  C     C_R   0.296457 0.467682 0.969505 -0.065880
C134  C     C_R   0.467685 0.703543 0.969500 -0.065865
C135  C     C_R   0.703543 0.532317 0.969503 -0.065881
C136  C     C_R   0.532316 0.296457 0.969501 -0.065879
H1    H     H_    0.778273 0.057449 0.553618 0.181858
H2    H     H_    0.942550 0.778274 0.553614 0.181855
H3    H     H_    0.221726 0.942551 0.553615 0.181860
H4    H     H_    0.057452 0.221726 0.553611 0.181851
H5    H     H_    0.778274 0.942550 0.446384 0.181858
H6    H     H_    0.942548 0.221726 0.446391 0.181851
H7    H     H_    0.221726 0.057448 0.446383 0.181860
H8    H     H_    0.057450 0.778273 0.446383 0.181855
H9    H     H_    0.278274 0.557448 0.053619 0.181865
H10   H     H_    0.442552 0.278274 0.053619 0.181865
H11   H     H_    0.721726 0.442552 0.053616 0.181865
H12   H     H_    0.557443 0.721726 0.053627 0.181879
H13   H     H_    0.278274 0.442551 0.946383 0.181865
H14   H     H_    0.442557 0.721726 0.946375 0.181879
H15   H     H_    0.721726 0.557448 0.946382 0.181865
H16   H     H_    0.557447 0.278274 0.946379 0.181866
O1    O     O_R   0.565460 0.036980 0.500020 -0.599164
O2    O     O_R   0.963020 0.565460 0.500020 -0.599160
O3    O     O_R   0.434540 0.963020 0.500020 -0.599162
O4    O     O_R   0.036980 0.434540 0.500020 -0.599158
O5    O     O_R   0.565460 0.963020 0.499980 -0.599160
O6    O     O_R   0.963020 0.434540 0.499980 -0.599158
O7    O     O_R   0.434540 0.036980 0.499980 -0.599164
O8    O     O_R   0.036980 0.565460 0.499980 -0.599161
O9    O     O_R   0.065460 0.536980 0.000020 -0.599168
O10   O     O_R   0.463020 0.065460 0.000020 -0.599168
O11   O     O_R   0.934540 0.463020 0.000020 -0.599169
O12   O     O_R   0.536980 0.934540 0.000020 -0.599178
O13   O     O_R   0.065460 0.463020 0.999980 -0.599168
O14   O     O_R   0.463020 0.934540 0.999980 -0.599177
O15   O     O_R   0.934540 0.536980 0.999980 -0.599168
O16   O     O_R   0.536980 0.065460 0.999980 -0.599168
O17   O     O_R   0.499990 0.036980 0.582790 -0.605927
O18   O     O_R   0.963020 0.499990 0.582790 -0.605926
O19   O     O_R   0.500010 0.963020 0.582790 -0.605924
O20   O     O_R   0.036980 0.500010 0.582790 -0.605926
O21   O     O_R   0.499990 0.963020 0.417210 -0.605924
O22   O     O_R   0.963020 0.500010 0.417210 -0.605925
O23   O     O_R   0.500010 0.036980 0.417210 -0.605926
O24   O     O_R   0.036980 0.499990 0.417210 -0.605926
O25   O     O_R   0.999990 0.536980 0.082790 -0.605926
O26   O     O_R   0.463020 0.999990 0.082790 -0.605925
O27   O     O_R   0.000010 0.463020 0.082790 -0.605926
O28   O     O_R   0.536980 0.000010 0.082790 -0.605925
O29   O     O_R   0.999990 0.463020 0.917210 -0.605927
O30   O     O_R   0.463020 0.000010 0.917210 -0.605925
O31   O     O_R   0.000010 0.536980 0.917210 -0.605926
O32   O     O_R   0.536980 0.999990 0.917210 -0.605926
O33   O     O_R   0.999990 0.934570 0.546740 -0.597029
O34   O     O_R   0.065430 0.999990 0.546740 -0.597029
O35   O     O_R   0.000010 0.065430 0.546740 -0.597033
O36   O     O_R   0.934570 0.000010 0.546740 -0.597031
O37   O     O_R   0.999990 0.065430 0.453260 -0.597031
O38   O     O_R   0.065430 0.000010 0.453260 -0.597031
O39   O     O_R   0.000010 0.934570 0.453260 -0.597031
O40   O     O_R   0.934570 0.999990 0.453260 -0.597029
O41   O     O_R   0.499990 0.434570 0.046740 -0.597027
O42   O     O_R   0.565430 0.499990 0.046740 -0.597028
O43   O     O_R   0.500010 0.565430 0.046740 -0.597027
O44   O     O_R   0.434570 0.500010 0.046740 -0.597029
O45   O     O_R   0.499990 0.565430 0.953260 -0.597025
O46   O     O_R   0.565430 0.500010 0.953260 -0.597028
O47   O     O_R   0.500010 0.434570 0.953260 -0.597029
O48   O     O_R   0.434570 0.499990 0.953260 -0.597028
Zn1   Zn    Zn3+2 0.500000 0.049380 0.500000 1.040861
Zn2   Zn    Zn3+2 0.950620 0.500000 0.500000 1.040866
Zn3   Zn    Zn3+2 0.500000 0.950620 0.500000 1.040866
Zn4   Zn    Zn3+2 0.049380 0.500000 0.500000 1.040866
Zn5   Zn    Zn3+2 1.000000 0.549380 0.000000 1.040851
Zn6   Zn    Zn3+2 0.450620 0.000000 0.000000 1.040847
Zn7   Zn    Zn3+2 1.000000 0.450620 0.000000 1.040850
Zn8   Zn    Zn3+2 0.549380 0.000000 0.000000 1.040846
Zn9   Zn    Zn3+2 0.000000 0.000000 0.562420 1.064604
Zn10  Zn    Zn3+2 0.000000 1.000000 0.437580 1.064604
Zn11  Zn    Zn3+2 0.500000 0.500000 0.062420 1.064614
Zn12  Zn    Zn3+2 0.500000 0.500000 0.937580 1.064614
O49   O     O_3   0.728226 0.034200 0.408484 -0.720183
H17   H     H_    0.708561 0.046229 0.378657 0.400268
O50   O     O_3   0.965790 0.728224 0.408487 -0.720181
H18   H     H_    0.953759 0.708558 0.378663 0.400267
O51   O     O_3   0.271776 0.965804 0.408478 -0.720184
H19   H     H_    0.291442 0.953777 0.378651 0.400268
O52   O     O_3   0.034221 0.271774 0.408495 -0.720180
H20   H     H_    0.046256 0.291439 0.378673 0.400267
O53   O     O_3   0.728223 0.965799 0.591518 -0.720184
H21   H     H_    0.708558 0.953771 0.621344 0.400268
O54   O     O_3   0.965779 0.271776 0.591506 -0.720180
H22   H     H_    0.953743 0.291442 0.621328 0.400267
O55   O     O_3   0.271774 0.034196 0.591520 -0.720184
H23   H     H_    0.291439 0.046222 0.621348 0.400268
O56   O     O_3   0.034209 0.728226 0.591511 -0.720181
H24   H     H_    0.046241 0.708561 0.621336 0.400267
O57   O     O_3   0.228225 0.534173 0.908467 -0.720188
H25   H     H_    0.208560 0.546190 0.878633 0.400270
O58   O     O_3   0.465826 0.228223 0.908465 -0.720188
H26   H     H_    0.453808 0.208558 0.878632 0.400270
O59   O     O_3   0.771777 0.465826 0.908464 -0.720186
H27   H     H_    0.791442 0.453808 0.878630 0.400269
O60   O     O_3   0.534129 0.771776 0.908438 -0.720193
H28   H     H_    0.546131 0.791440 0.878593 0.400271
O61   O     O_3   0.228223 0.465828 0.091536 -0.720187
H29   H     H_    0.208557 0.453810 0.121369 0.400269
O62   O     O_3   0.465871 0.771778 0.091564 -0.720194
H30   H     H_    0.453869 0.791443 0.121408 0.400271
O63   O     O_3   0.771775 0.534174 0.091534 -0.720186
H31   H     H_    0.791440 0.546193 0.121368 0.400269
O64   O     O_3   0.534174 0.228225 0.091533 -0.720188
H32   H     H_    0.546192 0.208560 0.121366 0.400270
O65   O     O_3   0.635654 0.032508 0.404137 -0.742966
H33   H     H_    0.604461 0.022728 0.403546 0.342313
O66   O     O_3   0.967484 0.635652 0.404141 -0.742961
H34   H     H_    0.977267 0.604460 0.403547 0.342312
O67   O     O_3   0.364348 0.967497 0.404133 -0.742967
H35   H     H_    0.395541 0.977275 0.403544 0.342311
O68   O     O_3   0.032527 0.364346 0.404147 -0.742958
H36   H     H_    0.022741 0.395537 0.403550 0.342314
O69   O     O_3   0.635651 0.967492 0.595863 -0.742965
H37   H     H_    0.604459 0.977273 0.596454 0.342312
O70   O     O_3   0.967473 0.364348 0.595853 -0.742958
H38   H     H_    0.977259 0.395539 0.596450 0.342314
O71   O     O_3   0.364346 0.032503 0.595866 -0.742968
H39   H     H_    0.395539 0.022725 0.596455 0.342311
O72   O     O_3   0.032516 0.635654 0.595858 -0.742961
H40   H     H_    0.022733 0.604462 0.596452 0.342313
O73   O     O_3   0.135653 0.532481 0.904122 -0.742976
H41   H     H_    0.104458 0.522709 0.903540 0.342307
O74   O     O_3   0.467518 0.135651 0.904122 -0.742976
H42   H     H_    0.477290 0.104456 0.903540 0.342308
O75   O     O_3   0.864349 0.467518 0.904121 -0.742975
H43   H     H_    0.895544 0.477289 0.903540 0.342307
O76   O     O_3   0.532440 0.864347 0.904097 -0.742991
H44   H     H_    0.522681 0.895546 0.903531 0.342302
O77   O     O_3   0.135651 0.467519 0.095879 -0.742976
H45   H     H_    0.104456 0.477291 0.096460 0.342307
O78   O     O_3   0.467560 0.864349 0.095903 -0.742990
H46   H     H_    0.477319 0.895548 0.096469 0.342301
O79   O     O_3   0.864346 0.532482 0.095879 -0.742974
H47   H     H_    0.895541 0.522710 0.096460 0.342307
O80   O     O_3   0.532482 0.135653 0.095878 -0.742975
H48   H     H_    0.522710 0.104458 0.096460 0.342307
O81   O     O_3   0.862533 0.067972 0.558443 -0.714085
H49   H     H_    0.893418 0.071287 0.545338 0.338420
O82   O     O_3   0.932027 0.862534 0.558440 -0.714087
H50   H     H_    0.928712 0.893419 0.545335 0.338419
O83   O     O_3   0.137466 0.932028 0.558440 -0.714085
H51   H     H_    0.106581 0.928712 0.545335 0.338419
O84   O     O_3   0.067975 0.137467 0.558436 -0.714089
H52   H     H_    0.071288 0.106581 0.545333 0.338417
O85   O     O_3   0.862534 0.932027 0.441559 -0.714086
H53   H     H_    0.893419 0.928712 0.454664 0.338419
O86   O     O_3   0.932024 0.137466 0.441566 -0.714087
H54   H     H_    0.928711 0.106580 0.454669 0.338417
O87   O     O_3   0.137467 0.067972 0.441558 -0.714084
H55   H     H_    0.106582 0.071287 0.454663 0.338419
O88   O     O_3   0.067973 0.862533 0.441558 -0.714088
H56   H     H_    0.071287 0.893418 0.454663 0.338418
O89   O     O_3   0.362533 0.567972 0.058444 -0.714091
H57   H     H_    0.393418 0.571288 0.045337 0.338415
O90   O     O_3   0.432029 0.362534 0.058445 -0.714086
H58   H     H_    0.428713 0.393418 0.045338 0.338418
O91   O     O_3   0.637466 0.432028 0.058441 -0.714086
H59   H     H_    0.606581 0.428713 0.045335 0.338417
O92   O     O_3   0.567966 0.637467 0.058452 -0.714082
H60   H     H_    0.571285 0.606583 0.045343 0.338419
O93   O     O_3   0.362534 0.432028 0.941558 -0.714087
H61   H     H_    0.393418 0.428712 0.954663 0.338417
O94   O     O_3   0.432033 0.637466 0.941549 -0.714082
H62   H     H_    0.428714 0.606583 0.954658 0.338419
O95   O     O_3   0.637466 0.567971 0.941557 -0.714090
H63   H     H_    0.606582 0.571287 0.954664 0.338416
O96   O     O_3   0.567970 0.362533 0.941554 -0.714086
H64   H     H_    0.571287 0.393418 0.954660 0.338418

loop_
_geom_bond_atom_site_label_1
_geom_bond_atom_site_label_2
_ccdc_geom_bond_type
C18   O90   S    
C130  H10   S    
C30   C45   S    
O54   H22   S    
C82   O58   S    
O11   Zn7   S    
O93   H61   S    
O15   Zn5   S    
C47   O43   A    
O29   Zn7   S    
C7    O11   A    
C46   O46   A    
O78   H46   S    
C74   C114  A    
C81   C117  A    
C62   C70   T    
C83   C119  A    
O80   H48   S    
C9    C121  A    
O16   Zn8   S    
C35   C115  S    
C38   C136  A    
C129  H9    S    
C97   O73   S    
C13   C125  A    
C19   C31   A    
C81   O57   S    
O65   H33   S    
C82   C98   A    
O9    Zn5   S    
C20   C132  A    
C77   C113  A    
C21   C133  A    
C136  H16   S    
O1    Zn1   S    
O27   Zn7   S    
C102  O78   S    
C84   C100  A    
C91   C107  A    
O74   H42   S    
C84   O60   S    
C15   C127  A    
C56   O32   A    
C21   C29   A    
C54   O26   A    
C5    O9    A    
O50   H18   S    
O57   H25   S    
C42   O38   A    
C15   C27   A    
O94   H62   S    
C11   C27   A    
C90   O66   S    
C33   C125  A    
C127  H7    S    
C35   C127  A    
C128  H8    S    
O40   Zn10  S    
C87   C103  A    
C13   O85   S    
C63   C71   T    
O12   Zn8   S    
C32   C47   S    
O33   Zn9   S    
C18   C130  A    
C75   C115  A    
C82   C118  A    
C36   C124  A    
C36   C126  A    
C10   C122  A    
C53   O25   A    
C14   C126  A    
O21   Zn3   S    
C74   C90   A    
O38   Zn10  S    
C44   O40   A    
C104  C110  A    
C39   C131  A    
C78   C94   A    
C96   O72   S    
O26   Zn6   S    
C89   O65   S    
C80   O56   S    
O18   Zn2   S    
C87   O63   S    
C37   C117  S    
O34   Zn9   S    
C1    C105  S    
C79   C115  A    
O7    Zn1   S    
C88   O64   S    
C17   O89   S    
O67   H35   S    
O53   H21   S    
C22   C32   A    
O37   Zn10  S    
O73   H41   S    
C75   O51   S    
C76   O52   S    
C123  H3    S    
C49   C57   S    
C126  H6    S    
O63   H31   S    
C121  H1    S    
C52   C60   S    
C59   C67   T    
C53   C61   S    
C92   C108  A    
O35   Zn9   S    
C125  H5    S    
C31   C46   S    
C55   C63   S    
C56   C64   S    
C131  H11   S    
C10   O82   S    
O46   Zn12  S    
O59   H27   S    
C75   C91   A    
C24   C136  A    
C2    O2    A    
O61   H29   S    
C3    O7    A    
O3    Zn3   S    
C53   O27   A    
C88   C104  A    
C46   O42   A    
C2    O8    A    
C6    O16   A    
C41   O39   A    
C8    O12   A    
O51   H19   S    
C40   C134  A    
C2    C106  S    
O30   Zn6   S    
C87   C119  A    
O89   H57   S    
C97   C109  A    
O60   H28   S    
C99   C111  A    
O87   H55   S    
O13   Zn7   S    
C44   O36   A    
C16   O88   S    
O31   Zn5   S    
C85   C117  A    
C88   C118  A    
C36   C116  S    
C52   O22   A    
C20   C32   A    
C7    O15   A    
C78   C116  A    
O76   H44   S    
C45   O47   A    
C65   C72   S    
C33   C113  S    
C67   C70   S    
C24   O96   S    
C35   C123  A    
C94   O70   S    
C27   C42   S    
C39   C119  S    
C34   C128  A    
C89   C105  A    
O84   H52   S    
C47   O45   A    
C50   O20   A    
O70   H38   S    
C86   C102  A    
C98   C110  A    
C74   O50   S    
C17   C29   A    
O24   Zn4   S    
C102  C112  A    
O62   H30   S    
C9    O81   S    
C9    C25   A    
O68   H36   S    
C39   C135  A    
O49   H17   S    
C4    C108  S    
C12   C28   A    
C38   C130  A    
C8    C112  S    
C93   O69   S    
C101  C109  A    
O64   H32   S    
O22   Zn2   S    
C20   O92   S    
C73   C113  A    
C103  C111  A    
O47   Zn12  S    
O20   Zn4   S    
C68   C69   S    
O82   H50   S    
O5    Zn3   S    
C52   O24   A    
C83   C99   A    
O77   H45   S    
O10   Zn6   S    
C45   O41   A    
C73   O49   S    
O2    Zn2   S    
C48   O48   A    
C16   C26   A    
O96   H64   S    
C50   C58   S    
C103  O79   S    
O90   H58   S    
C54   C62   S    
C15   O87   S    
C90   C106  A    
O92   H60   S    
C66   C71   S    
C79   C95   A    
O85   H53   S    
O36   Zn9   S    
O86   H54   S    
O25   Zn5   S    
C84   C120  A    
C3    O3    A    
C86   O62   S    
C50   O18   A    
C1    O1    A    
C122  H2    S    
C95   C107  A    
C40   C120  S    
C100  C112  A    
C23   O95   S    
C11   O83   S    
O52   H20   S    
C91   O67   S    
C124  H4    S    
C11   C123  A    
C57   C65   T    
O8    Zn4   S    
C28   C43   S    
O32   Zn8   S    
C23   C135  A    
C22   O94   S    
C73   C89   A    
O45   Zn12  S    
C49   O17   A    
O69   H37   S    
C5    C109  S    
C135  H15   S    
C77   C93   A    
C7    C111  S    
C85   O61   S    
O19   Zn3   S    
C12   O84   S    
O17   Zn1   S    
C38   C118  S    
C19   O91   S    
C60   C68   T    
O95   H63   S    
C55   O31   A    
O14   Zn6   S    
C23   C31   A    
O91   H59   S    
C94   C108  A    
O48   Zn12  S    
C81   C97   A    
C22   C134  A    
O71   H39   S    
C134  H14   S    
C51   O21   A    
O56   H24   S    
C93   C105  A    
O42   Zn11  S    
O44   Zn11  S    
C98   O74   S    
C58   C66   T    
C4    O6    A    
C6    O10   A    
C18   C30   A    
C43   O35   A    
C80   C96   A    
O75   H43   S    
C78   O54   S    
C10   C26   A    
O88   H56   S    
C40   C132  A    
C48   O44   A    
C33   C121  A    
C6    C110  S    
C13   C25   A    
C25   C44   S    
C19   C131  A    
C29   C48   S    
C17   C129  A    
C132  H12   S    
C83   O59   S    
C133  H13   S    
O23   Zn1   S    
C49   O19   A    
C3    C107  S    
O83   H51   S    
C79   O55   S    
C51   O23   A    
O43   Zn11  S    
C12   C124  A    
C101  O77   S    
C14   O86   S    
O55   H23   S    
C55   O29   A    
C41   O33   A    
C16   C128  A    
C104  O80   S    
C8    O14   A    
C76   C92   A    
C77   O53   S    
C80   C114  A    
C5    O13   A    
O6    Zn2   S    
C37   C133  A    
C51   C59   S    
O72   H40   S    
O4    Zn4   S    
C85   C101  A    
C92   O68   S    
C61   C69   T    
C95   O71   S    
C96   C106  A    
C99   O75   S    
C4    O4    A    
C86   C120  A    
O66   H34   S    
C100  O76   S    
C34   C114  S    
C1    O5    A    
O28   Zn8   S    
C42   O34   A    
C56   O30   A    
C76   C116  A    
C54   O28   A    
C21   O93   S    
C64   C72   T    
C24   C30   A    
O41   Zn11  S    
O39   Zn10  S    
C43   O37   A    
C34   C122  A    
O58   H26   S    
C14   C28   A    
O81   H49   S    
C37   C129  A    
C26   C41   S    
O79   H47   S    
