data_mof_unit_61872.cif
_audit_creation_date              2013-03-05T16:08:28-0500
_audit_creation_method            fapswitch 2.2
_symmetry_space_group_name_H-M    P1
_symmetry_Int_Tables_number       1
_space_group_crystal_system       triclinic
_cell_length_a                    23.686696
_cell_length_b                    14.427694
_cell_length_c                    13.126387
_cell_angle_alpha                 90.001078
_cell_angle_beta                  89.997133
_cell_angle_gamma                 89.990448
_cell_volume                      4485.86920382

loop_
_atom_site_label
_atom_site_type_symbol
_atom_site_description
_atom_site_fract_x
_atom_site_fract_y
_atom_site_fract_z
_atom_type_partial_charge
O1    O     O_R   0.500000 0.376050 0.578280 -0.554463
O2    O     O_R   0.500000 0.623950 0.421720 -0.563283
O3    O     O_R   0.500000 0.623950 0.578280 -0.554642
O4    O     O_R   0.500000 0.376050 0.421720 -0.563494
C1    C     C_R   0.500001 0.328681 0.499997 0.837258
C2    C     C_R   0.499997 0.671319 0.499999 0.836896
O5    O     O_R   0.417880 0.500000 0.578280 -0.520100
O6    O     O_R   0.582120 0.500000 0.421720 -0.571641
O7    O     O_R   0.582120 0.500000 0.578280 -0.519657
O8    O     O_R   0.417880 0.500000 0.421720 -0.571671
C3    C     C_R   0.389434 0.502619 0.499993 0.896765
C4    C     C_R   0.610573 0.497331 0.499986 0.896582
Cu1   Cu    Cu3+1 0.500000 0.500000 0.592680 1.045234
Cu2   Cu    Cu3+1 0.500000 0.500000 0.407320 1.013334
C5    C     C_R   0.880197 0.580646 0.481668 0.644877
C6    C     C_R   0.119835 0.419537 0.480339 0.644604
C7    C     C_R   0.881059 0.416848 0.502894 0.628296
C8    C     C_R   0.118979 0.583048 0.504081 0.628313
N1    N     N_R   0.852671 0.498455 0.493067 -0.431894
N2    N     N_R   0.147366 0.501573 0.492988 -0.432011
C9    C     C_R   0.940508 0.414156 0.493064 -0.075178
C10   C     C_R   0.059531 0.585864 0.494310 -0.075215
C11   C     C_R   0.939758 0.584674 0.488978 -0.078982
C12   C     C_R   0.060278 0.415415 0.487655 -0.078983
C13   C     C_R   0.970122 0.499726 0.490839 0.008296
C14   C     C_R   0.029914 0.500330 0.490820 0.008277
C15   C     C_R   0.970945 0.329312 0.488766 -0.101681
C16   C     C_R   0.029095 0.670753 0.491287 -0.101534
C17   C     C_R   0.969540 0.670161 0.491500 -0.098062
C18   C     C_R   0.030501 0.329904 0.488941 -0.098250
O9    O     O_2   0.849472 0.657323 0.462145 -0.489444
O10   O     O_2   0.150553 0.343115 0.459583 -0.489239
O11   O     O_2   0.851326 0.339403 0.523716 -0.499242
O12   O     O_2   0.148712 0.660221 0.526088 -0.499117
C19   C     C_R   0.238358 0.538207 0.410917 -0.031378
C20   C     C_R   0.761689 0.462894 0.410423 -0.031496
C21   C     C_R   0.237020 0.469239 0.581792 -0.084557
C22   C     C_R   0.763007 0.529580 0.582390 -0.084786
C23   C     C_R   0.297530 0.542968 0.414822 0.264856
C24   C     C_R   0.702520 0.458067 0.414247 0.264793
C25   C     C_R   0.296724 0.471609 0.584351 0.304878
C26   C     C_R   0.703303 0.527142 0.584909 0.304738
C27   C     C_R   0.326961 0.506118 0.499775 -0.224305
C28   C     C_R   0.673062 0.493817 0.499754 -0.224634
C29   C     C_R   0.208170 0.502393 0.494925 0.098403
C30   C     C_R   0.791866 0.497602 0.494996 0.098457
C31   C     C_1   0.500010 0.227117 0.499990 -0.172925
C32   C     C_1   0.499986 0.772883 0.499994 -0.172953
C33   C     C_1   0.500010 0.142303 0.499985 0.028315
C34   C     C_1   0.499985 0.857697 0.499988 0.028363
C35   C     C_1   0.500001 0.042407 0.499982 0.040541
C36   C     C_1   0.499992 0.957593 0.499983 0.040553
N3    N     N_1   0.500000 0.500000 0.268070 -0.117375
N4    N     N_1   0.500000 0.500000 0.731930 -0.112362
C37   C     C_1   0.500000 0.500000 0.173586 0.202543
C38   C     C_1   0.500000 0.500000 0.826415 0.199907
C39   C     C_1   0.500000 0.500000 0.050685 -0.026911
C40   C     C_1   0.500000 0.500000 0.949315 -0.033577
C41   C     C_2   0.941497 0.238692 0.479843 0.978132
O13   O     O_2   0.913502 0.221500 0.403868 -0.511449
O14   O     O_R   0.946689 0.172963 0.557527 -0.715028
H1    H     H_    0.925106 0.113889 0.542308 0.360024
C42   C     C_2   0.058549 0.761468 0.483653 0.977923
O15   O     O_2   0.086555 0.779542 0.407932 -0.511599
O16   O     O_R   0.053351 0.826284 0.562259 -0.714939
H2    H     H_    0.074939 0.885527 0.547879 0.359632
C43   C     C_2   0.939262 0.760129 0.499405 0.980838
O17   O     O_2   0.942388 0.816662 0.430211 -0.535281
O18   O     O_R   0.907633 0.779864 0.586684 -0.690058
H3    H     H_    0.889000 0.843059 0.583472 0.358214
C44   C     C_2   0.060787 0.239854 0.495524 0.980937
O19   O     O_2   0.057633 0.184133 0.425544 -0.534679
O20   O     O_R   0.092455 0.219107 0.582464 -0.690307
H4    H     H_    0.111089 0.155957 0.578330 0.358161
C45   C     C_2   0.208077 0.571980 0.318597 0.981188
O21   O     O_2   0.166139 0.531296 0.287720 -0.575787
O22   O     O_R   0.227594 0.650279 0.266599 -0.670991
H5    H     H_    0.203422 0.666266 0.205322 0.354768
C46   C     C_2   0.791985 0.430340 0.317577 0.981044
O23   O     O_2   0.833917 0.471441 0.287344 -0.575850
O24   O     O_R   0.772484 0.352721 0.264344 -0.671225
H6    H     H_    0.796660 0.337549 0.202816 0.354710
C47   C     C_2   0.204517 0.428562 0.667696 0.894798
O25   O     O_2   0.163780 0.469712 0.702807 -0.556121
O26   O     O_R   0.220242 0.342482 0.707600 -0.703956
H7    H     H_    0.194695 0.321723 0.765217 0.360669
C48   C     C_2   0.795480 0.569097 0.668992 0.895234
O27   O     O_2   0.836357 0.527678 0.703172 -0.556387
O28   O     O_R   0.779549 0.654378 0.710670 -0.703800
H8    H     H_    0.805067 0.674350 0.768660 0.360598
O29   O     O_3   0.325621 0.583008 0.333862 -0.655771
H9    H     H_    0.356938 0.620896 0.361561 0.333742
O30   O     O_3   0.674447 0.419049 0.332681 -0.655704
H10   H     H_    0.643346 0.380381 0.359875 0.334093
O31   O     O_3   0.326835 0.440273 0.667848 -0.674574
H11   H     H_    0.303500 0.446566 0.729990 0.346475
O32   O     O_3   0.673216 0.557250 0.668980 -0.674015
H12   H     H_    0.696476 0.549537 0.731002 0.346299

loop_
_geom_bond_atom_site_label_1
_geom_bond_atom_site_label_2
_geom_bond_distance
_ccdc_geom_bond_type
C48   O27   1.222993 D    
C42   O16   1.397930 S    
O30   H10   0.990708 S    
O20   H4    1.013783 S    
C19   C23   1.404224 A    
O31   H11   0.989464 S    
C24   O30   1.380409 S    
O3    C2    1.234079 A    
C18   C44   1.486518 S    
N1    C30   1.440536 S    
C31   C33   1.223669 T    
O22   H5    1.013905 S    
C5    N1    1.361595 A    
C1    C31   1.465342 S    
C19   C45   1.490101 S    
C2    C32   1.465340 S    
O1    C1    1.234073 A    
C11   C17   1.421347 A    
C16   C17   1.410710 A    
C12   C14   1.421148 A    
C22   C26   1.414999 A    
O18   H3    1.013794 S    
O7    Cu1   1.954304 S    
C17   C43   1.486502 S    
C33   C35   1.441275 S    
C34   C36   1.441275 S    
C20   C30   1.412185 A    
N2    C29   1.440517 S    
O3    Cu1   1.798278 S    
C6    N2    1.361613 A    
C5    C11   1.415275 A    
C9    C15   1.421649 A    
C41   O13   1.223075 D    
C6    C12   1.415224 A    
C10   C16   1.421626 A    
Cu1   Cu2   2.433108 S    
C15   C18   1.410702 A    
C21   C25   1.415010 A    
C25   C27   1.411882 A    
O2    C2    1.234028 A    
C7    O11   1.348863 S    
C23   O29   1.380531 S    
O32   H12   0.989337 S    
N3    C37   1.240234 T    
N4    C38   1.240240 T    
C41   O14   1.397932 S    
C42   O15   1.223103 D    
C43   O17   1.223000 D    
C20   C24   1.404166 A    
O8    Cu2   1.954307 S    
C26   O32   1.383563 S    
O29   H9    0.990666 S    
C46   O24   1.398536 S    
C23   C27   1.418487 A    
C13   C14   1.416303 A    
O26   H7    1.013844 S    
O24   H6    1.013917 S    
C35   C36   1.223659 T    
C43   O18   1.398092 S    
O5    C3    1.229431 A    
C45   O21   1.223040 D    
C45   O22   1.398542 S    
C47   O25   1.223014 D    
C24   C28   1.418607 A    
O6    C4    1.229312 A    
C3    C27   1.480639 S    
C8    O12   1.348881 S    
C47   O26   1.398344 S    
C37   C39   1.613242 S    
O1    Cu1   1.798271 S    
C21   C29   1.412775 A    
C19   C29   1.412213 A    
C44   O20   1.398090 S    
Cu1   N4    1.827849 S    
C9    C13   1.420354 A    
O6    Cu2   1.954323 S    
C8    C10   1.414527 A    
O4    C1    1.234036 A    
C20   C46   1.490177 S    
C5    O9    1.348685 S    
C6    O10   1.348710 S    
C22   C48   1.486323 S    
C48   O28   1.398357 S    
C26   C28   1.412045 A    
C44   O19   1.222984 D    
C4    C28   1.481035 S    
C15   C41   1.486604 S    
C39   C40   1.330621 T    
C25   O31   1.383595 S    
C32   C34   1.223669 T    
C7    N1    1.361920 A    
C38   C40   1.613243 S    
C8    N2    1.361925 A    
C11   C13   1.421150 A    
O4    Cu2   1.798278 S    
O14   H1    1.013816 S    
O2    Cu2   1.798271 S    
O7    C4    1.229560 A    
C12   C18   1.421324 A    
C22   C30   1.412786 A    
O8    C3    1.229212 A    
C46   O23   1.223049 D    
C16   C42   1.486626 S    
O5    Cu1   1.954326 S    
Cu2   N3    1.827849 S    
O16   H2    1.013803 S    
C10   C14   1.420358 A    
C21   C47   1.486188 S    
O28   H8    1.013840 S    
C7    C9    1.414556 A    
