data_mof_unit_52559.cif
_audit_creation_date              2012-12-10T22:11:08-0500
_audit_creation_method            fapswitch 2.2
_symmetry_space_group_name_H-M    P1
_symmetry_Int_Tables_number       1
_space_group_crystal_system       triclinic
_cell_length_a                    12.166838
_cell_length_b                    12.353423
_cell_length_c                    23.260198
_cell_angle_alpha                 91.015644
_cell_angle_beta                  90.736338
_cell_angle_gamma                 90.681801
_cell_volume                      3494.96145675

loop_
_atom_site_label
_atom_site_type_symbol
_atom_type_description
_atom_site_fract_x
_atom_site_fract_y
_atom_site_fract_z
_atom_type_partial_charge
C1    C     C_R   0.657196 0.998753 0.578622 0.917734
C2    C     C_R   0.346745 0.001789 0.419115 0.947036
C3    C     C_R   0.904877 0.750987 0.158988 -0.231536
C4    C     C_R   0.094129 0.173340 0.880899 -0.219783
C5    C     C_R   0.074134 0.908285 0.161318 0.270905
C6    C     C_R   0.910991 0.150837 0.806450 0.295225
C7    C     C_R   0.073721 0.826094 0.119250 0.359079
C8    C     C_R   0.921231 0.241931 0.842616 0.356615
C9    C     C_R   0.910764 0.110220 0.161332 0.280162
C10   C     C_R   0.095514 0.817642 0.796810 0.478179
C11   C     C_R   0.919272 0.186234 0.117662 0.302973
C12   C     C_R   0.092619 0.736534 0.838439 0.266814
C13   C     C_R   0.174635 0.919925 0.289040 0.453558
C14   C     C_R   0.893321 0.084772 0.674696 0.396554
C15   C     C_R   0.261317 0.920597 0.329790 -0.155549
C16   C     C_R   0.818125 0.084374 0.628610 -0.118958
C17   C     C_R   0.818917 0.099586 0.296645 -0.059240
C18   C     C_R   0.103524 0.907371 0.663391 -0.186890
C19   C     C_R   0.739037 0.092867 0.339385 0.295486
C20   C     C_R   0.183177 0.913111 0.620560 0.323195
C21   C     C_3   0.994062 0.010747 0.246731 0.098698
C22   C     C_3   0.002650 0.988614 0.751869 0.040108
C23   C     C_R   0.653690 0.001661 0.420643 1.044470
C24   C     C_R   0.346018 0.998244 0.579085 1.011676
C25   C     C_R   0.099246 0.008958 0.286739 0.042008
C26   C     C_R   0.900138 0.993351 0.711464 0.048032
C27   C     C_R   0.267824 0.003797 0.371598 -0.176713
C28   C     C_R   0.740258 0.000047 0.623566 -0.145054
C29   C     C_R   0.896972 0.012964 0.289841 0.038172
C30   C     C_R   0.099366 0.989965 0.708163 0.043828
C31   C     C_R   0.735297 0.003757 0.375625 -0.178542
C32   C     C_R   0.261763 0.996231 0.622537 -0.187890
C33   C     C_R   0.992624 0.107486 0.205759 -0.006068
C34   C     C_R   0.005213 0.889590 0.791406 0.059587
C35   C     C_R   0.998855 0.268653 0.122682 -0.169797
C36   C     C_R   0.001679 0.728054 0.874865 -0.174471
C37   C     C_R   0.990023 0.912662 0.203664 0.146751
C38   C     C_R   0.004108 0.084224 0.796794 0.094329
C39   C     C_R   0.989556 0.747910 0.118432 -0.235419
C40   C     C_R   0.008702 0.249385 0.882303 -0.238439
C41   C     C_R   0.992621 0.661220 0.075456 0.962440
C42   C     C_R   0.007334 0.337507 0.925005 0.988820
C43   C     C_R   0.999244 0.352766 0.080446 1.012387
C44   C     C_R   0.000959 0.646664 0.919030 0.989047
C45   C     C_R   0.112251 0.093536 0.328858 0.331163
C46   C     C_R   0.818831 0.909038 0.705182 0.445715
C47   C     C_R   0.195549 0.089628 0.370067 -0.273267
C48   C     C_R   0.737997 0.916946 0.662784 -0.269708
C49   C     C_R   0.892423 0.925351 0.329215 0.375119
C50   C     C_R   0.176444 0.078488 0.705416 0.513831
C51   C     C_R   0.809175 0.918928 0.370024 0.293387
C52   C     C_R   0.263224 0.074528 0.666318 0.230584
C53   C     C_R   0.078411 0.185402 0.205702 -0.141069
C54   C     C_R   0.919447 0.882239 0.831507 -0.303181
C55   C     C_R   0.078937 0.268909 0.166420 0.355596
C56   C     C_R   0.915648 0.801964 0.872193 0.397259
C57   C     C_R   0.899761 0.837793 0.198496 0.488624
C58   C     C_R   0.094093 0.093573 0.836766 0.383188
H1    H     H_    0.201587 0.153239 0.402710 0.184753
H2    H     H_    0.675606 0.853823 0.658375 0.166120
H3    H     H_    0.147273 0.182035 0.235055 0.182330
H4    H     H_    0.852746 0.939242 0.830101 0.199086
O1    O     O_R   0.621380 0.090460 0.561410 -0.610668
O2    O     O_R   0.378620 0.909540 0.438590 -0.606595
O3    O     O_R   0.617150 0.909540 0.438590 -0.573887
O4    O     O_R   0.382850 0.090460 0.561410 -0.582182
O5    O     O_R   0.619720 0.093230 0.440890 -0.585995
O6    O     O_R   0.380280 0.906770 0.559110 -0.595049
O7    O     O_R   0.618800 0.906770 0.559110 -0.626683
O8    O     O_R   0.381200 0.093230 0.440890 -0.627306
O9    O     O_R   0.087590 0.627480 0.058790 -0.567047
O10   O     O_R   0.912410 0.372520 0.941210 -0.559419
O11   O     O_R   0.905660 0.383870 0.059980 -0.584731
O12   O     O_R   0.094340 0.616130 0.940020 -0.579075
O13   O     O_R   0.092570 0.390420 0.063230 -0.584478
O14   O     O_R   0.907430 0.609580 0.936770 -0.570663
O15   O     O_R   0.900680 0.620930 0.055550 -0.622882
O16   O     O_R   0.099320 0.379070 0.944450 -0.623618
Zn1   Zn    Zn3+2 0.501730 0.123520 0.501540 1.082398
Zn2   Zn    Zn3+2 0.498270 0.876480 0.498460 1.073622
Zn3   Zn    Zn3+2 0.125690 0.504390 0.002180 1.107176
Zn4   Zn    Zn3+2 0.874310 0.495610 0.997820 1.122538
O17   O     O_3   0.967548 0.842840 0.324913 -0.723834
H5    H     H_    0.987649 0.819665 0.364227 0.358700
O18   O     O_3   0.161946 0.172615 0.737172 -0.721397
H6    H     H_    0.191123 0.235294 0.715841 0.360746
O19   O     O_3   0.805233 0.853580 0.229775 -0.735374
H7    H     H_    0.741256 0.817630 0.210640 0.367579
O20   O     O_3   0.181431 0.023883 0.830814 -0.706944
H8    H     H_    0.212601 0.007599 0.869140 0.345492
O21   O     O_3   0.158606 0.984094 0.163301 -0.796257
H9    H     H_    0.175624 0.004998 0.123402 0.354893
O22   O     O_3   0.808601 0.123015 0.783860 -0.792018
H10   H     H_    0.750402 0.153814 0.808483 0.361490
O23   O     O_3   0.821954 0.039456 0.162772 -0.758392
H11   H     H_    0.758618 0.070417 0.141851 0.386707
O24   O     O_3   0.188431 0.830364 0.764149 -0.755806
H12   H     H_    0.216062 0.757830 0.753173 0.356851
O25   O     O_3   0.156534 0.826786 0.256654 -0.707622
H13   H     H_    0.227488 0.803237 0.240455 0.349879
O26   O     O_3   0.965412 0.170957 0.683787 -0.758557
H14   H     H_    0.936666 0.237214 0.666165 0.368789
C59   C     C_2   0.813297 0.199617 0.262076 0.954387
O27   O     O_2   0.734711 0.212626 0.229679 -0.570286
O28   O     O_R   0.889829 0.283598 0.271028 -0.754566
H15   H     H_    0.874844 0.348115 0.245875 0.365613
C60   C     C_2   0.021245 0.818265 0.655962 0.931445
O29   O     O_2   0.021649 0.740911 0.687915 -0.589792
O30   O     O_R   0.950649 0.818115 0.608018 -0.767489
H16   H     H_    0.900613 0.751908 0.605956 0.357228
O31   O     O_3   0.799457 0.830671 0.405451 -0.720836
H17   H     H_    0.822984 0.764895 0.384197 0.368950
O32   O     O_3   0.350386 0.147427 0.669902 -0.730968
H18   H     H_    0.358785 0.173753 0.710247 0.367416
O33   O     O_3   0.157641 0.350631 0.169526 -0.709731
H19   H     H_    0.206422 0.339659 0.203354 0.355113
O34   O     O_3   0.830769 0.797124 0.911146 -0.715000
H20   H     H_    0.777684 0.855571 0.903399 0.348007
C61   C     C_2   0.825964 0.659198 0.163552 0.978753
O35   O     O_2   0.853347 0.577799 0.188923 -0.603656
O36   O     O_R   0.721724 0.665348 0.137927 -0.777616
H21   H     H_    0.675902 0.597399 0.143634 0.354294
C62   C     C_2   0.183348 0.176961 0.925090 0.968888
O37   O     O_2   0.279318 0.185144 0.910595 -0.568601
O38   O     O_R   0.156953 0.171316 0.983312 -0.806229
H22   H     H_    0.224317 0.175091 0.009409 0.352958
O39   O     O_3   0.155699 0.820026 0.078678 -0.731364
H23   H     H_    0.226030 0.845276 0.096501 0.361559
O40   O     O_3   0.845047 0.324163 0.840229 -0.724971
H24   H     H_    0.809084 0.322937 0.801714 0.364515
O41   O     O_3   0.852929 0.180029 0.068935 -0.722326
H25   H     H_    0.834172 0.102988 0.060631 0.351240
O42   O     O_3   0.178631 0.665390 0.844759 -0.722435
H26   H     H_    0.248693 0.705331 0.839255 0.358485
C63   C     C_2   0.343825 0.832716 0.329129 0.951914
O43   O     O_2   0.314182 0.738002 0.331808 -0.567289
O44   O     O_R   0.455665 0.859164 0.326133 -0.787327
H27   H     H_    0.504105 0.792964 0.326509 0.356817
C64   C     C_2   0.828613 0.165865 0.582857 0.942637
O45   O     O_2   0.865743 0.139180 0.536181 -0.607445
O46   O     O_R   0.793205 0.271737 0.592710 -0.784228
H28   H     H_    0.803620 0.319263 0.558065 0.352354
O47   O     O_3   0.659274 0.171384 0.344904 -0.693906
H29   H     H_    0.695083 0.243717 0.343347 0.353360
O48   O     O_3   0.184323 0.839808 0.574737 -0.698964
H30   H     H_    0.162883 0.767029 0.588142 0.356633
O49   O     O_3   0.039887 0.178703 0.330034 -0.743179
H31   H     H_    0.059865 0.230459 0.361643 0.365770
O50   O     O_3   0.824144 0.814706 0.736006 -0.749997
H32   H     H_    0.761920 0.765365 0.725471 0.350439

loop_
_geom_bond_atom_site_label_1
_geom_bond_atom_site_label_2
_ccdc_geom_bond_type
C43   O11   A    
O19   H7    S    
C16   C28   A    
O22   H10   S    
C5    C37   A    
O23   H11   S    
C17   C29   A    
C56   O34   S    
O11   Zn4   S    
O28   H15   S    
O31   H17   S    
O49   H31   S    
C19   C31   A    
O24   H12   S    
C63   O43   D    
C39   C41   S    
C29   C49   A    
O18   H6    S    
O4    Zn1   S    
O26   H14   S    
O40   H24   S    
C41   O15   A    
C62   O38   S    
C15   C63   S    
O47   H29   S    
C22   C38   S    
C45   C47   A    
C23   O5    A    
C44   O14   A    
C18   C60   S    
C32   C52   A    
C50   O18   S    
C38   C58   A    
C53   H3    S    
C4    C40   A    
C49   C51   A    
C1    C28   S    
C50   C52   A    
C60   O29   D    
C6    C38   A    
C2    C27   S    
C18   C30   A    
C21   C33   S    
C12   C36   A    
C35   C43   S    
C9    O23   S    
C24   O4    A    
C41   O9    A    
C40   C42   S    
C30   C50   A    
C3    C39   A    
O3    Zn2   S    
C9    C33   A    
O2    Zn2   S    
C13   C25   A    
C1    O1    A    
C2    O2    A    
C48   H2    S    
C54   C56   A    
C53   C55   A    
C33   C53   A    
C22   C34   S    
C46   C48   A    
C35   C55   A    
C3    C61   S    
C62   O37   D    
O5    Zn1   S    
C10   C34   A    
O14   Zn4   S    
O21   H9    S    
C5    C7    A    
C26   C46   A    
O13   Zn3   S    
C14   O26   S    
O1    Zn1   S    
C54   H4    S    
C52   O32   S    
C21   C29   S    
C1    O7    A    
C57   O19   S    
C4    C62   S    
C23   C31   S    
C13   O25   S    
C10   O24   S    
C24   C32   S    
C60   O30   S    
C36   C56   A    
C15   C27   A    
O17   H5    S    
C61   O35   D    
C6    O22   S    
C42   O10   A    
C59   O28   S    
C14   C26   A    
C44   O12   A    
C9    C11   A    
O36   H21   S    
C5    O21   S    
C61   O36   S    
C10   C12   A    
C3    C57   A    
C42   O16   A    
C12   O42   S    
C13   C15   A    
O42   H26   S    
C14   C16   A    
C36   C44   S    
C16   C64   S    
O12   Zn3   S    
C4    C58   A    
O6    Zn2   S    
C25   C45   A    
O48   H30   S    
C8    O40   S    
C43   O13   A    
O32   H18   S    
C20   C32   A    
C27   C47   A    
C63   O44   S    
C21   C25   S    
C28   C48   A    
C51   O31   S    
C22   C30   S    
O8    Zn1   S    
C45   O49   S    
C31   C51   A    
C11   O41   S    
C6    C8    A    
C64   O45   D    
C34   C54   A    
O39   H23   S    
O44   H27   S    
O34   H20   S    
O25   H13   S    
C23   O3    A    
C11   C35   A    
C17   C59   S    
C2    O8    A    
O50   H32   S    
C64   O46   S    
O16   Zn3   S    
C49   O17   S    
O38   H22   S    
C55   O33   S    
O15   Zn4   S    
O10   Zn4   S    
C17   C19   A    
C18   C20   A    
O41   H25   S    
C58   O20   S    
C19   O47   S    
C24   O6    A    
C47   H1    S    
C46   O50   S    
C21   C37   S    
C22   C26   S    
O30   H16   S    
C59   O27   D    
C7    C39   A    
C20   O48   S    
O7    Zn2   S    
C8    C40   A    
C7    O39   S    
O20   H8    S    
O46   H28   S    
C37   C57   A    
O33   H19   S    
O9    Zn3   S    
