data_mof_unit_7051.cif
_audit_creation_date              2012-12-10T17:59:39-0500
_audit_creation_method            fapswitch 2.2
_symmetry_space_group_name_H-M    P1
_symmetry_Int_Tables_number       1
_space_group_crystal_system       triclinic
_cell_length_a                    18.521786
_cell_length_b                    18.39637
_cell_length_c                    34.239582
_cell_angle_alpha                 89.967379
_cell_angle_beta                  90.071435
_cell_angle_gamma                 89.785334
_cell_volume                      11666.4841343

loop_
_atom_site_label
_atom_site_type_symbol
_atom_type_description
_atom_site_fract_x
_atom_site_fract_y
_atom_site_fract_z
_atom_type_partial_charge
C1    C     C_R   0.985194 0.562246 0.417938 -0.039056
C2    C     C_R   0.481409 0.935935 0.082123 -0.040386
C3    C     C_R   0.432779 0.009355 0.540797 -0.025701
C4    C     C_R   0.994718 0.564064 0.458707 -0.029600
C5    C     C_R   0.990868 0.431192 0.541323 -0.031532
C6    C     C_R   0.432911 0.004652 0.458230 -0.030528
C7    C     C_R   0.564298 0.991271 0.540834 -0.028970
C8    C     C_R   0.507762 0.933991 0.959005 -0.028641
C9    C     C_R   0.508254 0.066658 0.041386 -0.030064
C10   C     C_R   0.068196 0.503676 0.958364 -0.032266
C11   C     C_R   0.935497 0.506985 0.040675 -0.030258
C12   C     C_R   0.494528 0.067323 0.958997 -0.029470
C13   C     C_R   0.936272 0.489576 0.917470 -0.039015
C14   C     C_R   0.491562 0.933746 0.041243 -0.029829
C15   C     C_R   0.935078 0.498445 0.958321 -0.035711
C16   C     C_R   0.067960 0.494084 0.040875 -0.037802
C17   C     C_R   0.196313 0.696155 0.249982 -0.051630
C18   C     C_R   0.802391 0.304856 0.751243 -0.046294
C19   C     C_R   0.304934 0.197853 0.249087 -0.066442
C20   C     C_R   0.701042 0.809506 0.745487 -0.063814
C21   C     C_R   0.805951 0.301627 0.251414 -0.048334
C22   C     C_R   0.194430 0.698511 0.748606 -0.042294
C23   C     C_R   0.696299 0.803549 0.250051 -0.070662
C24   C     C_R   0.065885 0.484676 0.081842 -0.045687
C25   C     C_R   0.304068 0.196468 0.750025 -0.067504
C26   C     C_R   0.196654 0.303961 0.750295 -0.066131
C27   C     C_R   0.803789 0.696056 0.249934 -0.068821
C28   C     C_R   0.303059 0.804684 0.749192 -0.050599
C29   C     C_R   0.698834 0.194144 0.251569 -0.038316
C30   C     C_R   0.808274 0.701520 0.746232 -0.065830
C31   C     C_R   0.196275 0.304156 0.249666 -0.065282
C32   C     C_R   0.694994 0.197450 0.751181 -0.054561
C33   C     C_R   0.304203 0.803024 0.249755 -0.044037
C34   C     C_R   0.999716 0.497373 0.479376 -0.075658
C35   C     C_R   0.518099 0.936413 0.918186 -0.041354
C36   C     C_R   0.998800 0.497586 0.520579 -0.074899
C37   C     C_R   0.499378 0.003316 0.478986 -0.075919
C38   C     C_R   0.498833 0.001840 0.520178 -0.079017
C39   C     C_R   0.500521 0.000528 0.979568 -0.074125
C40   C     C_R   0.499991 0.000320 0.020756 -0.074247
C41   C     C_R   0.001694 0.500487 0.978951 -0.076459
C42   C     C_R   0.001718 0.500272 0.020165 -0.075602
C43   C     C_3   0.927394 0.271690 0.456094 0.039874
C44   C     C_3   0.926255 0.190435 0.465499 -0.254231
C45   C     C_3   0.853563 0.156538 0.455379 -0.490274
C46   C     C_R   0.517903 0.064089 0.082273 -0.040461
C47   C     C_3   0.928836 0.723923 0.540779 0.027672
C48   C     C_3   0.930097 0.801941 0.556010 -0.265020
C49   C     C_3   0.854468 0.834999 0.556532 -0.481340
C50   C     C_3   0.726267 0.931452 0.456352 0.027852
C51   C     C_3   0.805020 0.937380 0.443564 -0.263172
C52   C     C_3   0.834652 0.864142 0.430227 -0.482587
C53   C     C_3   0.263467 0.943125 0.531413 0.020754
C54   C     C_3   0.205610 0.931698 0.562618 -0.272553
C55   C     C_3   0.155821 0.868659 0.552153 -0.490486
C56   C     C_3   0.070503 0.721771 0.457043 0.026316
C57   C     C_R   0.066662 0.512337 0.917413 -0.038282
C58   C     C_3   0.069953 0.798315 0.439750 -0.259162
C59   C     C_3   0.146568 0.825997 0.433299 -0.495004
C60   C     C_3   0.053848 0.269407 0.547003 0.019462
C61   C     C_3   0.045545 0.195896 0.567360 -0.263604
C62   C     C_3   0.117166 0.169113 0.584055 -0.489994
C63   C     C_3   0.295168 0.104147 0.454001 0.010910
C64   C     C_3   0.260379 0.140878 0.489605 -0.249909
C65   C     C_3   0.236376 0.218447 0.480508 -0.510973
C66   C     C_3   0.723437 0.059212 0.546017 0.026434
C67   C     C_3   0.801078 0.053479 0.560893 -0.262397
C68   C     C_R   0.937503 0.516049 0.081540 -0.038495
C69   C     C_3   0.830473 0.127662 0.572600 -0.490297
C70   C     C_3   0.441663 0.772792 0.952952 0.027712
C71   C     C_3   0.450212 0.695040 0.937894 -0.256467
C72   C     C_3   0.379318 0.665799 0.921696 -0.492851
C73   C     C_3   0.444438 0.228968 0.046596 0.026569
C74   C     C_3   0.453304 0.306116 0.062289 -0.262186
C75   C     C_3   0.381391 0.337578 0.075890 -0.488902
C76   C     C_3   0.228388 0.426731 0.958530 0.038712
C77   C     C_3   0.309292 0.429411 0.967385 -0.257633
C78   C     C_3   0.345415 0.355899 0.960386 -0.485096
C79   C     C_R   0.000473 0.497678 0.397819 -0.012309
C80   C     C_3   0.773262 0.437962 0.039911 0.024890
C81   C     C_3   0.697548 0.443151 0.057375 -0.262876
C82   C     C_3   0.662073 0.368621 0.059875 -0.483935
C83   C     C_3   0.567078 0.226232 0.954829 0.028747
C84   C     C_3   0.562476 0.305304 0.941380 -0.259550
C85   C     C_3   0.636085 0.333539 0.928681 -0.486270
C86   C     C_3   0.557592 0.773031 0.047571 0.025953
C87   C     C_3   0.549802 0.696404 0.064258 -0.258926
C88   C     C_3   0.621735 0.667411 0.079557 -0.491693
C89   C     C_3   0.792225 0.587192 0.949773 0.016275
C90   C     C_R   0.999530 0.498493 0.602148 -0.012839
C91   C     C_3   0.754951 0.629263 0.982779 -0.249691
C92   C     C_3   0.728726 0.703587 0.968824 -0.501246
C93   C     C_3   0.215767 0.571959 0.050847 0.012576
C94   C     C_3   0.253395 0.615428 0.018592 -0.253996
C95   C     C_3   0.280137 0.688325 0.034041 -0.498985
C96   C     C_3   0.194368 0.914341 0.201833 0.055581
C97   C     C_3   0.153300 0.932569 0.164349 -0.259541
C98   C     C_3   0.099285 0.993814 0.170775 -0.512795
C99   C     C_3   0.729572 0.145256 0.839117 0.034198
C100  C     C_3   0.729823 0.072948 0.861404 -0.239720
C101  C     C_R   0.500341 0.001309 0.397635 -0.008170
C102  C     C_3   0.696133 0.079962 0.901820 -0.493729
C103  C     C_3   0.068288 0.201961 0.243162 0.046899
C104  C     C_3   0.047752 0.121982 0.240612 -0.268363
C105  C     C_3   0.992086 0.102137 0.271657 -0.505859
C106  C     C_3   0.862755 0.763274 0.827823 0.038931
C107  C     C_3   0.932059 0.765891 0.852066 -0.241339
C108  C     C_3   0.920125 0.737127 0.893305 -0.489440
C109  C     C_3   0.807677 0.084497 0.202725 0.057500
C110  C     C_3   0.848695 0.067150 0.165161 -0.258155
C111  C     C_3   0.902169 0.005154 0.171089 -0.507158
C112  C     C_R   0.982182 0.433787 0.582381 -0.040935
C113  C     C_R   0.499018 0.999132 0.601869 -0.015810
C114  C     C_3   0.266325 0.850302 0.838145 0.038536
C115  C     C_3   0.260690 0.918058 0.863867 -0.235358
C116  C     C_3   0.298891 0.907751 0.902956 -0.494926
C117  C     C_3   0.927645 0.803386 0.251173 0.043107
C118  C     C_3   0.976297 0.867164 0.240702 -0.249750
C119  C     C_3   0.028823 0.884081 0.273880 -0.498373
C120  C     C_3   0.154988 0.259956 0.836890 0.039301
C121  C     C_3   0.091881 0.255475 0.865478 -0.251939
C122  C     C_3   0.109387 0.291187 0.904541 -0.497541
C123  C     C_3   0.200880 0.068490 0.756989 0.045905
C124  C     C_R   0.500515 0.000635 0.897986 -0.014561
C125  C     C_3   0.118743 0.065700 0.752474 -0.278587
C126  C     C_3   0.096940 0.027585 0.714757 -0.511395
C127  C     C_3   0.739426 0.849045 0.164961 0.034632
C128  C     C_3   0.741154 0.913906 0.137066 -0.250696
C129  C     C_3   0.697500 0.900173 0.100071 -0.490845
C130  C     C_3   0.085766 0.824033 0.783496 0.027390
C131  C     C_3   0.037361 0.795989 0.750615 -0.254889
C132  C     C_3   0.988057 0.855343 0.735204 -0.473314
C133  C     C_3   0.854223 0.267686 0.162661 0.031974
C134  C     C_3   0.925192 0.269079 0.139694 -0.240129
C135  C     C_R   0.499701 0.999941 0.102239 -0.011740
C136  C     C_3   0.915301 0.300286 0.098767 -0.494527
C137  C     C_3   0.781534 0.951380 0.748183 0.049800
C138  C     C_3   0.854414 0.980749 0.734729 -0.279915
C139  C     C_3   0.846708 0.052832 0.712821 -0.501508
C140  C     C_3   0.262694 0.152177 0.163909 0.036909
C141  C     C_3   0.260488 0.087337 0.136057 -0.251057
C142  C     C_3   0.303541 0.101103 0.098905 -0.491395
C143  C     C_3   0.912142 0.191454 0.798433 0.056438
C144  C     C_3   0.930853 0.151227 0.836189 -0.252756
C145  C     C_3   0.989510 0.094290 0.829770 -0.502518
C146  C     C_R   0.001457 0.500217 0.897573 -0.005816
C147  C     C_3   0.140139 0.733546 0.163120 0.031806
C148  C     C_3   0.066457 0.734423 0.142639 -0.235748
C149  C     C_3   0.069591 0.699856 0.102279 -0.490403
C150  C     C_3   0.689551 0.419906 0.711162 0.056812
C151  C     C_3   0.635934 0.436570 0.678373 -0.260589
C152  C     C_3   0.591530 0.504282 0.687213 -0.514556
C153  C     C_3   0.232230 0.643618 0.337607 0.032070
C154  C     C_3   0.231245 0.571072 0.359694 -0.238872
C155  C     C_3   0.195750 0.577884 0.399640 -0.489584
C156  C     C_3   0.589649 0.681840 0.747616 0.019972
C157  C     C_R   0.001422 0.499997 0.101851 -0.013327
C158  C     C_3   0.512034 0.660725 0.738161 -0.242772
C159  C     C_3   0.478148 0.618972 0.772219 -0.501683
C160  C     C_3   0.356158 0.262524 0.334493 0.058301
C161  C     C_3   0.386797 0.325296 0.358566 -0.245860
C162  C     C_3   0.369371 0.316885 0.401861 -0.503996
C163  C     C_3   0.303339 0.589005 0.699726 0.054479
C164  C     C_3   0.344057 0.571272 0.662183 -0.260323
C165  C     C_3   0.397761 0.509652 0.668691 -0.512992
C166  C     C_3   0.778540 0.345498 0.341505 0.022554
C167  C     C_3   0.772209 0.412919 0.367502 -0.240702
C168  C     C_R   0.998451 0.364399 0.479630 0.259049
C169  C     C_3   0.805891 0.401112 0.407665 -0.498609
C170  C     C_3   0.432962 0.297140 0.740836 0.046241
C171  C     C_3   0.443859 0.379177 0.743094 -0.273294
C172  C     C_3   0.495528 0.398697 0.776192 -0.505653
C173  C     C_3   0.651560 0.756963 0.335318 0.038197
C174  C     C_3   0.588564 0.749358 0.363813 -0.252755
C175  C     C_3   0.603164 0.787098 0.402637 -0.496278
C176  C     C_3   0.699056 0.567897 0.251778 0.040153
C177  C     C_3   0.621869 0.581026 0.236774 -0.280112
C178  C     C_3   0.603123 0.530452 0.202883 -0.510943
C179  C     C_R   0.000813 0.630750 0.520062 0.250455
C180  C     C_3   0.237144 0.347595 0.664035 0.038231
C181  C     C_3   0.239461 0.411823 0.635721 -0.251661
C182  C     C_3   0.196456 0.397206 0.598607 -0.492339
C183  C     C_3   0.603413 0.307451 0.314869 0.066786
C184  C     C_3   0.574503 0.341542 0.276719 -0.250934
C185  C     C_3   0.541597 0.415732 0.285196 -0.499186
C186  C     C_3   0.338929 0.775625 0.658289 0.030438
C187  C     C_3   0.404732 0.779782 0.631401 -0.252344
C188  C     C_3   0.384588 0.807718 0.590848 -0.502225
C189  C     C_3   0.291091 0.437545 0.257346 0.042793
C190  C     C_R   0.631821 0.998550 0.479890 0.251803
C191  C     C_3   0.370377 0.457556 0.256768 -0.269768
C192  C     C_3   0.384905 0.517878 0.227188 -0.506042
C193  C     C_3   0.762271 0.644655 0.663097 0.035353
C194  C     C_3   0.755745 0.575931 0.638291 -0.247916
C195  C     C_3   0.793723 0.583871 0.599018 -0.489516
C196  C     C_3   0.414752 0.690594 0.296227 0.057329
C197  C     C_3   0.431695 0.646252 0.332927 -0.257948
C198  C     C_3   0.493036 0.592440 0.326177 -0.511832
C199  C     C_3   0.645950 0.234635 0.663518 0.031033
C200  C     C_3   0.575580 0.232956 0.640040 -0.238616
C201  C     C_R   0.366804 0.009118 0.519906 0.259774
C202  C     C_3   0.584226 0.190713 0.602032 -0.484858
C203  C     C_R   0.951256 0.624145 0.396761 0.105141
C204  C     C_R   0.989667 0.664713 0.368950 -0.063660
C205  C     C_R   0.955859 0.722024 0.349243 -0.126080
C206  C     C_R   0.883534 0.738683 0.356846 -0.103681
C207  C     C_R   0.845204 0.698486 0.384497 -0.093747
C208  C     C_R   0.878814 0.641481 0.404390 -0.042528
C209  C     C_R   0.948365 0.372897 0.604516 0.097575
C210  C     C_R   0.985224 0.336675 0.634855 -0.080567
C211  C     C_R   0.950486 0.282785 0.656613 -0.124284
C212  C     C_R   0.998553 0.630495 0.479282 0.250280
C213  C     C_R   0.879166 0.264074 0.648037 -0.089196
C214  C     C_R   0.842490 0.299397 0.617758 -0.077059
C215  C     C_R   0.876625 0.353811 0.596260 -0.031650
C216  C     C_R   0.368469 0.977410 0.394336 0.093658
C217  C     C_R   0.336180 0.028887 0.369401 -0.071930
C218  C     C_R   0.279574 0.008606 0.344691 -0.122044
C219  C     C_R   0.255507 0.936677 0.344306 -0.104555
C220  C     C_R   0.287643 0.885129 0.368863 -0.086923
C221  C     C_R   0.343613 0.905420 0.394017 -0.049580
C222  C     C_R   0.617445 0.934311 0.600832 0.105171
C223  C     C_R   0.434156 0.996266 0.417301 -0.035941
C224  C     C_R   0.991968 0.364640 0.520437 0.256053
C225  C     C_R   0.669214 0.965183 0.625650 -0.051438
C226  C     C_R   0.724608 0.921778 0.640851 -0.120998
C227  C     C_R   0.726551 0.847317 0.633148 -0.096750
C228  C     C_R   0.674190 0.816206 0.609054 -0.093436
C229  C     C_R   0.620080 0.859571 0.592765 -0.055483
C230  C     C_R   0.045522 0.368939 0.396207 0.097514
C231  C     C_R   0.004923 0.333855 0.367148 -0.077147
C232  C     C_R   0.033125 0.273644 0.347486 -0.121051
C233  C     C_R   0.102494 0.248403 0.356307 -0.102069
C234  C     C_R   0.143713 0.283533 0.384716 -0.097297
C235  C     C_R   0.367414 0.013617 0.478998 0.261911
C236  C     C_R   0.115472 0.343522 0.404687 -0.038566
C237  C     C_R   0.044398 0.626487 0.603127 0.103303
C238  C     C_R   0.002001 0.665421 0.629950 -0.069615
C239  C     C_R   0.029918 0.726762 0.648469 -0.131924
C240  C     C_R   0.100315 0.749542 0.640612 -0.096799
C241  C     C_R   0.142762 0.710960 0.613984 -0.071548
C242  C     C_R   0.115180 0.649448 0.595427 -0.031370
C243  C     C_R   0.629941 0.037970 0.395297 0.093830
C244  C     C_R   0.663190 0.994565 0.366587 -0.087202
C245  C     C_R   0.721132 0.021515 0.344891 -0.126578
C246  C     C_R   0.630702 0.992984 0.520585 0.258266
C247  C     C_R   0.746479 0.091810 0.351685 -0.094687
C248  C     C_R   0.713847 0.135163 0.380173 -0.071945
C249  C     C_R   0.655681 0.108662 0.401760 -0.023074
C250  C     C_R   0.373693 0.049735 0.603833 0.108160
C251  C     C_R   0.336382 0.009528 0.632202 -0.067628
C252  C     C_R   0.278070 0.040503 0.651996 -0.125617
C253  C     C_R   0.257205 0.112109 0.644042 -0.103063
C254  C     C_R   0.294191 0.152402 0.615887 -0.091601
C255  C     C_R   0.352472 0.121604 0.596013 -0.042003
C256  C     C_R   0.454053 0.128616 0.896321 0.099103
C257  C     C_R   0.503786 0.867458 0.979745 0.255698
C258  C     C_R   0.494665 0.165255 0.867829 -0.073533
C259  C     C_R   0.465123 0.224577 0.847893 -0.127544
C260  C     C_R   0.394729 0.247609 0.856020 -0.112721
C261  C     C_R   0.353927 0.211304 0.884192 -0.096881
C262  C     C_R   0.383298 0.151981 0.904241 -0.031028
C263  C     C_R   0.447098 0.874592 0.103737 0.098437
C264  C     C_R   0.483968 0.836997 0.133586 -0.077238
C265  C     C_R   0.449390 0.781916 0.154521 -0.122378
C266  C     C_R   0.378080 0.763545 0.145723 -0.081623
C267  C     C_R   0.341213 0.800363 0.116040 -0.073883
C268  C     C_R   0.506451 0.133217 0.020599 0.253074
C269  C     C_R   0.375362 0.855749 0.095195 -0.036166
C270  C     C_R   0.872302 0.463035 0.895271 0.093256
C271  C     C_R   0.837722 0.507264 0.867343 -0.081400
C272  C     C_R   0.782203 0.479129 0.844198 -0.122564
C273  C     C_R   0.761155 0.406705 0.848564 -0.089569
C274  C     C_R   0.795283 0.362547 0.876272 -0.072484
C275  C     C_R   0.850382 0.390566 0.899682 -0.045302
C276  C     C_R   0.128489 0.454142 0.103665 0.093786
C277  C     C_R   0.164742 0.495310 0.132085 -0.082452
C278  C     C_R   0.223734 0.465836 0.152023 -0.125611
C279  C     C_R   0.133971 0.498698 0.979228 0.262551
C280  C     C_R   0.246256 0.394678 0.144291 -0.104286
C281  C     C_R   0.210003 0.353219 0.116311 -0.091299
C282  C     C_R   0.151408 0.382755 0.096014 -0.036225
C283  C     C_R   0.552319 0.875086 0.896709 0.102668
C284  C     C_R   0.513621 0.835397 0.868668 -0.069220
C285  C     C_R   0.547188 0.778952 0.848319 -0.123062
C286  C     C_R   0.619761 0.762232 0.855336 -0.106515
C287  C     C_R   0.658832 0.802015 0.882865 -0.102161
C288  C     C_R   0.625232 0.858065 0.903648 -0.040784
C289  C     C_R   0.553034 0.124765 0.103937 0.099827
C290  C     C_R   0.869449 0.505542 0.019817 0.258278
C291  C     C_R   0.516662 0.163252 0.133549 -0.075735
C292  C     C_R   0.552127 0.217992 0.154335 -0.121516
C293  C     C_R   0.623770 0.235035 0.145590 -0.080039
C294  C     C_R   0.660040 0.197182 0.116130 -0.071590
C295  C     C_R   0.625076 0.142153 0.095505 -0.035374
C296  C     C_R   0.129631 0.541836 0.895444 0.096284
C297  C     C_R   0.164231 0.501217 0.866058 -0.079911
C298  C     C_R   0.220599 0.531735 0.844500 -0.116289
C299  C     C_R   0.242959 0.602794 0.852127 -0.093174
C300  C     C_R   0.209132 0.643277 0.881429 -0.084515
C301  C     C_R   0.499675 0.133575 0.979869 0.254502
C302  C     C_R   0.152655 0.613132 0.902941 -0.036977
C303  C     C_R   0.875826 0.548486 0.102969 0.105441
C304  C     C_R   0.837306 0.507893 0.130574 -0.067204
C305  C     C_R   0.780297 0.539635 0.150884 -0.130267
C306  C     C_R   0.761503 0.612303 0.144043 -0.107532
C307  C     C_R   0.799087 0.652670 0.116177 -0.094209
C308  C     C_R   0.856282 0.621062 0.095781 -0.041037
C309  C     C_R   0.494939 0.867344 0.020383 0.253860
C310  C     C_R   0.869441 0.505695 0.979057 0.266174
C311  C     C_R   0.561413 0.979142 0.581364 -0.041562
C312  C     C_R   0.134013 0.497710 0.020031 0.272484
C313  C     C_R   0.500353 0.000170 0.355504 0.504603
C314  C     C_R   0.500558 0.999862 0.644288 0.495214
C315  C     C_R   0.000128 0.498703 0.355531 0.497710
C316  C     C_R   0.999910 0.499630 0.644456 0.495815
C317  C     C_R   0.000923 0.500026 0.855488 0.504295
C318  C     C_R   0.000785 0.499988 0.144305 0.502369
C319  C     C_R   0.500086 0.000261 0.855592 0.498876
C320  C     C_R   0.499927 0.999860 0.144484 0.494495
C321  C     C_R   0.360304 0.140621 0.249748 0.521018
C322  C     C_R   0.015715 0.432574 0.417904 -0.040243
C323  C     C_R   0.640881 0.860886 0.749239 0.523960
C324  C     C_R   0.860465 0.359362 0.250323 0.520038
C325  C     C_R   0.139581 0.640780 0.749638 0.542496
C326  C     C_R   0.640078 0.859837 0.250058 0.517028
C327  C     C_R   0.360016 0.140097 0.749937 0.523685
C328  C     C_R   0.140031 0.640187 0.250016 0.519168
C329  C     C_R   0.859502 0.360159 0.750364 0.546525
C330  C     C_R   0.359862 0.860010 0.749823 0.520334
C331  C     C_R   0.640719 0.139662 0.250406 0.552189
C332  C     C_R   0.861018 0.641502 0.749167 0.518365
C333  C     C_R   0.014665 0.562855 0.581790 -0.039048
C334  C     C_R   0.139792 0.359792 0.250056 0.525277
C335  C     C_R   0.639797 0.140416 0.750244 0.518193
C336  C     C_R   0.360047 0.859612 0.249929 0.547453
C337  C     C_R   0.140172 0.359951 0.750134 0.517643
C338  C     C_R   0.860128 0.640186 0.250054 0.519824
C339  C     C_R   0.246434 0.807139 0.222796 0.194735
C340  C     C_R   0.752102 0.193874 0.778617 0.180110
C341  C     C_R   0.184861 0.237466 0.230226 0.212648
C342  C     C_R   0.819303 0.768406 0.765821 0.202942
C343  C     C_R   0.755476 0.191194 0.223973 0.190454
C344  C     C_R   0.565674 0.012053 0.417566 -0.041723
C345  C     C_R   0.245836 0.808615 0.776251 0.177925
C346  C     C_R   0.816352 0.763786 0.231815 0.208907
C347  C     C_R   0.189683 0.241891 0.774218 0.195065
C348  C     C_R   0.238284 0.184654 0.769997 0.212067
C349  C     C_R   0.759129 0.812202 0.227153 0.202685
C350  C     C_R   0.189676 0.758313 0.774355 0.208355
C351  C     C_R   0.808562 0.244897 0.223756 0.186400
C352  C     C_R   0.770693 0.826051 0.760450 0.212115
C353  C     C_R   0.242149 0.189095 0.226035 0.200873
C354  C     C_R   0.806365 0.246590 0.778097 0.193324
C355  C     C_R   0.435146 0.017459 0.581896 -0.030313
C356  C     C_R   0.192659 0.754039 0.222949 0.189350
C357  C     C_R   0.743269 0.310098 0.725270 0.198229
C358  C     C_R   0.254148 0.691867 0.276919 0.187801
C359  C     C_R   0.688884 0.741575 0.727524 0.208566
C360  C     C_R   0.313582 0.261622 0.271551 0.203673
C361  C     C_R   0.251127 0.695212 0.721129 0.192219
C362  C     C_R   0.751567 0.302752 0.280375 0.180458
C363  C     C_R   0.315378 0.262871 0.730164 0.212313
C364  C     C_R   0.688146 0.740275 0.272886 0.194154
C365  C     C_R   0.736325 0.682803 0.267965 0.214486
C366  C     C_R   0.484538 0.065379 0.918072 -0.042217
C367  C     C_R   0.258304 0.311679 0.726344 0.199828
C368  C     C_R   0.697789 0.248923 0.280456 0.206610
C369  C     C_R   0.304056 0.749309 0.720683 0.189734
C370  C     C_R   0.262981 0.317498 0.268371 0.210382
C371  C     C_R   0.745613 0.692417 0.723432 0.183531
C372  C     C_R   0.308064 0.744801 0.276625 0.193837
C373  C     C_R   0.690800 0.255963 0.724670 0.191773
C374  C     C_R   0.005211 0.430594 0.458826 -0.029758
C375  C     C_R   0.004899 0.564446 0.540978 -0.028958
C376  C     C_R   0.566406 0.004812 0.458629 -0.029049
H1    H     H_    0.910993 0.279269 0.425182 0.127439
H2    H     H_    0.952575 0.802506 0.586100 0.168103
H3    H     H_    0.842807 0.615389 0.940992 0.105447
H4    H     H_    0.708043 0.597730 0.993705 0.192646
H5    H     H_    0.793521 0.637531 0.007218 0.180423
H6    H     H_    0.774005 0.734822 0.955913 0.135977
H7    H     H_    0.706940 0.734773 0.993919 0.138218
H8    H     H_    0.685271 0.697100 0.946736 0.166423
H9    H     H_    0.252926 0.568292 0.076268 0.148433
H10   H     H_    0.167046 0.601841 0.061043 0.107818
H11   H     H_    0.300063 0.583960 0.007096 0.184109
H12   H     H_    0.214952 0.625966 0.994310 0.180344
H13   H     H_    0.965427 0.835601 0.537056 0.172112
H14   H     H_    0.234781 0.719778 0.046950 0.132206
H15   H     H_    0.303251 0.720500 0.009740 0.141468
H16   H     H_    0.322633 0.679709 0.056510 0.160365
H17   H     H_    0.223362 0.963627 0.211990 0.178848
H18   H     H_    0.154720 0.899466 0.224909 0.133186
H19   H     H_    0.191830 0.947667 0.140960 0.154690
H20   H     H_    0.123440 0.884290 0.154237 0.182122
H21   H     H_    0.060227 0.978020 0.193716 0.140089
H22   H     H_    0.069617 0.005069 0.143232 0.140963
H23   H     H_    0.127488 0.043901 0.179991 0.203519
H24   H     H_    0.833638 0.841354 0.526311 0.151655
H25   H     H_    0.672845 0.165012 0.836306 0.121952
H26   H     H_    0.761399 0.185784 0.855851 0.141021
H27   H     H_    0.699654 0.031557 0.844412 0.225426
H28   H     H_    0.786069 0.052889 0.864738 0.150592
H29   H     H_    0.722528 0.124069 0.918691 0.126684
H30   H     H_    0.702790 0.028009 0.917972 0.145865
H31   H     H_    0.637676 0.091359 0.899130 0.150904
H32   H     H_    0.018738 0.234914 0.238133 0.197992
H33   H     H_    0.087001 0.213951 0.273426 0.090051
H34   H     H_    0.024730 0.111420 0.211233 0.177939
H35   H     H_    0.856033 0.889311 0.570602 0.155728
H36   H     H_    0.096705 0.087744 0.244811 0.173156
H37   H     H_    0.016017 0.107440 0.301278 0.142749
H38   H     H_    0.974472 0.045083 0.267458 0.140901
H39   H     H_    0.944071 0.138269 0.269461 0.151968
H40   H     H_    0.838840 0.707883 0.830468 0.119312
H41   H     H_    0.823826 0.803952 0.839645 0.151993
H42   H     H_    0.974517 0.732347 0.837763 0.217974
H43   H     H_    0.951312 0.822946 0.853685 0.148372
H44   H     H_    0.876423 0.768160 0.908038 0.129886
H45   H     H_    0.970631 0.742720 0.910530 0.149128
H46   H     H_    0.817345 0.799467 0.573203 0.147293
H47   H     H_    0.905644 0.678716 0.892141 0.142721
H48   H     H_    0.778884 0.034938 0.212664 0.180333
H49   H     H_    0.847507 0.099074 0.225902 0.128276
H50   H     H_    0.810091 0.053244 0.141547 0.153685
H51   H     H_    0.879014 0.115587 0.155613 0.185940
H52   H     H_    0.942090 0.020537 0.193632 0.137837
H53   H     H_    0.930790 0.993656 0.143297 0.139388
H54   H     H_    0.873999 0.955283 0.180693 0.207511
H55   H     H_    0.324008 0.833165 0.836120 0.121206
H56   H     H_    0.234332 0.806035 0.851752 0.145362
H57   H     H_    0.694937 0.903334 0.433266 0.120825
H58   H     H_    0.285256 0.965141 0.848501 0.219170
H59   H     H_    0.202779 0.930724 0.869133 0.155842
H60   H     H_    0.279137 0.858073 0.917931 0.128128
H61   H     H_    0.288341 0.955540 0.921933 0.147067
H62   H     H_    0.357962 0.903567 0.898287 0.150160
H63   H     H_    0.962411 0.756370 0.259089 0.167043
H64   H     H_    0.895869 0.819709 0.277497 0.089432
H65   H     H_    0.007125 0.854624 0.213687 0.204198
H66   H     H_    0.942075 0.915720 0.235510 0.155767
H67   H     H_    0.999015 0.893760 0.301541 0.137760
H68   H     H_    0.724229 0.898441 0.483643 0.156852
H69   H     H_    0.059698 0.933956 0.266837 0.131852
H70   H     H_    0.067309 0.838234 0.278030 0.155632
H71   H     H_    0.173015 0.317633 0.834976 0.117358
H72   H     H_    0.200010 0.225902 0.848396 0.144170
H73   H     H_    0.043759 0.282731 0.852589 0.204940
H74   H     H_    0.079138 0.197477 0.870897 0.155177
H75   H     H_    0.160048 0.268346 0.916983 0.129258
H76   H     H_    0.064636 0.281279 0.925403 0.144743
H77   H     H_    0.115004 0.350690 0.900780 0.147266
H78   H     H_    0.220291 0.013538 0.765604 0.190639
H79   H     H_    0.809358 0.976728 0.419021 0.183156
H80   H     H_    0.226390 0.080239 0.728262 0.102740
H81   H     H_    0.095807 0.035407 0.777573 0.156524
H82   H     H_    0.095838 0.121567 0.752091 0.194632
H83   H     H_    0.115070 0.059452 0.689059 0.142802
H84   H     H_    0.037230 0.023063 0.713499 0.142617
H85   H     H_    0.121331 0.972384 0.713490 0.140548
H86   H     H_    0.682553 0.829759 0.167484 0.121252
H87   H     H_    0.773111 0.804771 0.152394 0.133873
H88   H     H_    0.718725 0.962661 0.151965 0.211478
H89   H     H_    0.797861 0.924513 0.128494 0.146952
H90   H     H_    0.838037 0.957776 0.468346 0.155596
H91   H     H_    0.714862 0.848664 0.085922 0.127190
H92   H     H_    0.705548 0.945709 0.079240 0.144146
H93   H     H_    0.639315 0.897596 0.107302 0.152904
H94   H     H_    0.116454 0.872270 0.773115 0.158568
H95   H     H_    0.051233 0.843692 0.807777 0.142157
H96   H     H_    0.070843 0.775427 0.726174 0.136213
H97   H     H_    0.003868 0.750963 0.761779 0.248624
H98   H     H_    0.963287 0.885240 0.759919 0.193305
H99   H     H_    0.944549 0.830706 0.717321 0.152559
H100  H     H_    0.018856 0.893437 0.716627 0.122399
H101  H     H_    0.830275 0.823164 0.453925 0.150127
H102  H     H_    0.833173 0.324322 0.165368 0.119843
H103  H     H_    0.814423 0.234439 0.146440 0.147403
H104  H     H_    0.965554 0.302078 0.155740 0.229071
H105  H     H_    0.947373 0.213161 0.137140 0.151022
H106  H     H_    0.873474 0.269494 0.082497 0.126588
H107  H     H_    0.967098 0.296658 0.082571 0.149301
H108  H     H_    0.899436 0.358220 0.100448 0.148176
H109  H     H_    0.752844 0.996212 0.763315 0.221660
H110  H     H_    0.749150 0.937080 0.722076 0.096565
H111  H     H_    0.889822 0.989296 0.760503 0.176583
H112  H     H_    0.886466 0.299651 0.474843 0.126413
H113  H     H_    0.892348 0.869736 0.422009 0.156606
H114  H     H_    0.879318 0.940931 0.714586 0.148015
H115  H     H_    0.816119 0.045778 0.685276 0.130700
H116  H     H_    0.901055 0.074243 0.705600 0.132911
H117  H     H_    0.818086 0.093423 0.730957 0.168901
H118  H     H_    0.319758 0.170755 0.166697 0.120819
H119  H     H_    0.229620 0.196877 0.151167 0.138177
H120  H     H_    0.283162 0.038590 0.150918 0.210518
H121  H     H_    0.203608 0.076671 0.127743 0.148670
H122  H     H_    0.285689 0.152434 0.084697 0.127056
H123  H     H_    0.295429 0.055407 0.078201 0.144782
H124  H     H_    0.803872 0.845279 0.404340 0.137898
H125  H     H_    0.361825 0.104084 0.105940 0.152392
H126  H     H_    0.961350 0.218989 0.787347 0.172569
H127  H     H_    0.895493 0.150872 0.776047 0.131893
H128  H     H_    0.948741 0.190729 0.858658 0.153219
H129  H     H_    0.882251 0.123724 0.847517 0.185951
H130  H     H_    0.971495 0.053372 0.808049 0.140807
H131  H     H_    0.001486 0.066119 0.857733 0.140737
H132  H     H_    0.039481 0.120783 0.819281 0.191173
H133  H     H_    0.159858 0.676349 0.165131 0.121496
H134  H     H_    0.179163 0.765538 0.145591 0.141266
H135  H     H_    0.299887 0.894701 0.531150 0.110226
H136  H     H_    0.026483 0.704685 0.160705 0.235290
H137  H     H_    0.046822 0.791215 0.139603 0.144478
H138  H     H_    0.111562 0.726367 0.084103 0.125700
H139  H     H_    0.016481 0.706074 0.087562 0.147574
H140  H     H_    0.081448 0.641100 0.105044 0.152545
H141  H     H_    0.720928 0.469735 0.717897 0.182113
H142  H     H_    0.658767 0.405462 0.738105 0.107754
H143  H     H_    0.665444 0.444244 0.650476 0.159758
H144  H     H_    0.598490 0.390257 0.674609 0.196978
H145  H     H_    0.558567 0.495785 0.713799 0.143394
H146  H     H_    0.236102 0.947596 0.502627 0.188744
H147  H     H_    0.555698 0.516405 0.662060 0.140607
H148  H     H_    0.626889 0.551708 0.691981 0.216987
H149  H     H_    0.175802 0.664455 0.335053 0.123088
H150  H     H_    0.264891 0.683555 0.354374 0.144586
H151  H     H_    0.201569 0.529991 0.342227 0.229459
H152  H     H_    0.287193 0.550627 0.363724 0.142064
H153  H     H_    0.222608 0.620709 0.417235 0.125757
H154  H     H_    0.200075 0.525290 0.415425 0.148544
H155  H     H_    0.137794 0.591157 0.396146 0.152891
H156  H     H_    0.588895 0.715985 0.774366 0.113937
H157  H     H_    0.231937 0.920147 0.591134 0.156573
H158  H     H_    0.621093 0.631234 0.753632 0.138504
H159  H     H_    0.479745 0.710458 0.732156 0.230931
H160  H     H_    0.511489 0.626631 0.711478 0.169545
H161  H     H_    0.518953 0.585532 0.787900 0.133257
H162  H     H_    0.435908 0.581626 0.761465 0.133487
H163  H     H_    0.453153 0.657397 0.793235 0.137212
H164  H     H_    0.381224 0.210883 0.344622 0.142615
H165  H     H_    0.296932 0.258669 0.340440 0.111682
H166  H     H_    0.446174 0.327027 0.355060 0.142193
H167  H     H_    0.364100 0.377688 0.347957 0.201207
H168  H     H_    0.172709 0.982061 0.565668 0.176900
H169  H     H_    0.310225 0.320556 0.406555 0.142359
H170  H     H_    0.395639 0.361178 0.418619 0.141425
H171  H     H_    0.389628 0.263838 0.412983 0.136053
H172  H     H_    0.275274 0.539350 0.710124 0.178650
H173  H     H_    0.343328 0.604574 0.722456 0.125693
H174  H     H_    0.305319 0.556155 0.638826 0.155727
H175  H     H_    0.373994 0.619865 0.652269 0.187638
H176  H     H_    0.437262 0.525444 0.691408 0.139973
H177  H     H_    0.426709 0.497567 0.641069 0.139797
H178  H     H_    0.369593 0.459982 0.678595 0.200999
H179  H     H_    0.125931 0.880763 0.524758 0.147461
H180  H     H_    0.836427 0.331271 0.337463 0.123539
H181  H     H_    0.750691 0.299582 0.356066 0.135939
H182  H     H_    0.799141 0.459633 0.353059 0.220103
H183  H     H_    0.714245 0.427028 0.371315 0.148139
H184  H     H_    0.782378 0.352494 0.422017 0.126346
H185  H     H_    0.795438 0.449392 0.426296 0.146026
H186  H     H_    0.865044 0.394276 0.404970 0.149890
H187  H     H_    0.484947 0.271809 0.731923 0.199563
H188  H     H_    0.420576 0.275620 0.770513 0.099353
H189  H     H_    0.466742 0.398282 0.714986 0.170636
H190  H     H_    0.115927 0.860498 0.575909 0.158587
H191  H     H_    0.391213 0.406772 0.748127 0.181318
H192  H     H_    0.471569 0.383981 0.804828 0.141030
H193  H     H_    0.505727 0.457955 0.775995 0.139862
H194  H     H_    0.547778 0.369663 0.772605 0.150943
H195  H     H_    0.667730 0.815226 0.333944 0.121944
H196  H     H_    0.697631 0.724221 0.346612 0.137819
H197  H     H_    0.539019 0.773204 0.350585 0.203404
H198  H     H_    0.579523 0.690880 0.369832 0.152673
H199  H     H_    0.656481 0.770424 0.414631 0.128649
H200  H     H_    0.560557 0.772223 0.423950 0.143730
H201  H     H_    0.187525 0.817797 0.548324 0.143382
H202  H     H_    0.601454 0.846795 0.398686 0.149534
H203  H     H_    0.702784 0.511315 0.263006 0.181093
H204  H     H_    0.737882 0.571468 0.227266 0.115765
H205  H     H_    0.583459 0.571138 0.260821 0.170365
H206  H     H_    0.615239 0.638093 0.226771 0.164801
H207  H     H_    0.632024 0.546941 0.176086 0.143962
H208  H     H_    0.544621 0.533986 0.196396 0.142494
H209  H     H_    0.617050 0.473202 0.210039 0.144756
H210  H     H_    0.180087 0.329091 0.666904 0.120851
H211  H     H_    0.270197 0.302677 0.651663 0.140582
H212  H     H_    0.102018 0.685393 0.437549 0.114453
H213  H     H_    0.216891 0.460966 0.650186 0.209238
H214  H     H_    0.296316 0.422266 0.627365 0.149505
H215  H     H_    0.214193 0.345460 0.584844 0.127663
H216  H     H_    0.204723 0.442326 0.577543 0.144900
H217  H     H_    0.138171 0.394585 0.605575 0.152087
H218  H     H_    0.630697 0.348036 0.333519 0.160370
H219  H     H_    0.555943 0.290587 0.332246 0.140527
H220  H     H_    0.617880 0.349973 0.254891 0.151579
H221  H     H_    0.533086 0.305381 0.263607 0.181434
H222  H     H_    0.495487 0.410404 0.305617 0.147985
H223  H     H_    0.969376 0.162178 0.448729 0.171211
H224  H     H_    0.097468 0.724087 0.486144 0.161063
H225  H     H_    0.522772 0.440613 0.257553 0.145985
H226  H     H_    0.582653 0.452205 0.298335 0.162918
H227  H     H_    0.316898 0.831559 0.662557 0.110151
H228  H     H_    0.297447 0.741291 0.644085 0.159531
H229  H     H_    0.445607 0.816293 0.644517 0.219665
H230  H     H_    0.429676 0.725100 0.628401 0.155333
H231  H     H_    0.345235 0.770597 0.576746 0.132553
H232  H     H_    0.433736 0.810670 0.572385 0.147076
H233  H     H_    0.360646 0.862831 0.592768 0.153384
H234  H     H_    0.259851 0.486860 0.265555 0.208571
H235  H     H_    0.040913 0.798004 0.411336 0.174186
H236  H     H_    0.273928 0.422064 0.227312 0.097363
H237  H     H_    0.385997 0.476143 0.286407 0.172454
H238  H     H_    0.402395 0.408569 0.248930 0.184108
H239  H     H_    0.381549 0.496071 0.197006 0.138594
H240  H     H_    0.439644 0.540129 0.232034 0.134119
H241  H     H_    0.345276 0.562933 0.230457 0.156825
H242  H     H_    0.820116 0.661156 0.664239 0.124152
H243  H     H_    0.730368 0.688376 0.648880 0.132823
H244  H     H_    0.779633 0.528979 0.654240 0.214696
H245  H     H_    0.697758 0.565019 0.632758 0.148436
H246  H     H_    0.041009 0.835744 0.459899 0.163930
H247  H     H_    0.772785 0.632154 0.583057 0.125338
H248  H     H_    0.783947 0.534647 0.581046 0.143913
H249  H     H_    0.852751 0.589300 0.603368 0.155483
H250  H     H_    0.464318 0.719683 0.286911 0.178558
H251  H     H_    0.399755 0.652619 0.272214 0.126931
H252  H     H_    0.445841 0.683225 0.357344 0.154469
H253  H     H_    0.383371 0.615355 0.341714 0.188626
H254  H     H_    0.478641 0.554379 0.302457 0.140188
H255  H     H_    0.503308 0.560809 0.353255 0.137808
H256  H     H_    0.542995 0.621458 0.317975 0.202236
H257  H     H_    0.176524 0.828060 0.461391 0.141704
H258  H     H_    0.667714 0.178162 0.666037 0.121810
H259  H     H_    0.685500 0.268861 0.647687 0.148184
H260  H     H_    0.532435 0.207098 0.657727 0.228863
H261  H     H_    0.558252 0.289441 0.633219 0.140245
H262  H     H_    0.628003 0.214520 0.584000 0.123560
H263  H     H_    0.532949 0.192738 0.585217 0.149449
H264  H     H_    0.596973 0.133012 0.608519 0.152865
H265  H     H_    0.045572 0.652410 0.362695 0.080670
H266  H     H_    0.986035 0.753781 0.328364 0.077086
H267  H     H_    0.857304 0.783152 0.341704 0.079345
H268  H     H_    0.144607 0.881547 0.420629 0.161494
H269  H     H_    0.789683 0.711893 0.390998 0.080017
H270  H     H_    0.848443 0.610689 0.425721 0.086017
H271  H     H_    0.040431 0.350372 0.641895 0.084567
H272  H     H_    0.978927 0.255432 0.680063 0.090685
H273  H     H_    0.852360 0.222193 0.664794 0.091274
H274  H     H_    0.787572 0.284732 0.610786 0.082037
H275  H     H_    0.847095 0.381387 0.573251 0.088914
H276  H     H_    0.355586 0.084307 0.368799 0.083753
H277  H     H_    0.255088 0.048413 0.325451 0.094535
H278  H     H_    0.212383 0.920740 0.324765 0.094360
H279  H     H_    0.175700 0.789573 0.412771 0.131638
H280  H     H_    0.269851 0.829212 0.367999 0.106724
H281  H     H_    0.369043 0.864708 0.412357 0.091973
H282  H     H_    0.668342 0.022857 0.631901 0.072234
H283  H     H_    0.767227 0.945923 0.657742 0.082014
H284  H     H_    0.769642 0.814249 0.645145 0.079197
H285  H     H_    0.676197 0.758918 0.602133 0.087484
H286  H     H_    0.580519 0.835125 0.573547 0.085189
H287  H     H_    0.951391 0.352790 0.359914 0.081409
H288  H     H_    0.000986 0.246555 0.325502 0.082536
H289  H     H_    0.124377 0.201583 0.341226 0.086971
H290  H     H_    0.084404 0.306567 0.566427 0.120393
H291  H     H_    0.197359 0.263823 0.391397 0.079021
H292  H     H_    0.147892 0.370034 0.426804 0.089114
H293  H     H_    0.947151 0.649145 0.636034 0.081895
H294  H     H_    0.996322 0.757139 0.668380 0.089833
H295  H     H_    0.121674 0.797463 0.654788 0.089365
H296  H     H_    0.196559 0.729319 0.607120 0.082225
H297  H     H_    0.148445 0.620306 0.574624 0.082781
H298  H     H_    0.644010 0.940316 0.360706 0.090259
H299  H     H_    0.746235 0.987939 0.322744 0.094698
H300  H     H_    0.791290 0.112731 0.334865 0.090967
H301  H     H_    0.084816 0.261049 0.519502 0.161118
H302  H     H_    0.733566 0.189354 0.385642 0.084933
H303  H     H_    0.630518 0.143217 0.423475 0.091322
H304  H     H_    0.352171 0.954329 0.638920 0.086753
H305  H     H_    0.248993 0.008588 0.673288 0.081091
H306  H     H_    0.212177 0.136288 0.659458 0.085317
H307  H     H_    0.277332 0.207206 0.609013 0.080877
H308  H     H_    0.380838 0.153479 0.574341 0.079816
H309  H     H_    0.549193 0.148349 0.861207 0.082637
H310  H     H_    0.497169 0.252812 0.826337 0.085789
H311  H     H_    0.371886 0.293717 0.840650 0.086891
H312  H     H_    0.005930 0.200682 0.591537 0.185338
H313  H     H_    0.299792 0.229563 0.890864 0.076930
H314  H     H_    0.351135 0.124396 0.926058 0.090244
H315  H     H_    0.539180 0.850387 0.140799 0.082070
H316  H     H_    0.477915 0.753456 0.177560 0.088937
H317  H     H_    0.351328 0.720928 0.161954 0.090434
H318  H     H_    0.286061 0.786188 0.109197 0.087154
H319  H     H_    0.345830 0.884313 0.072539 0.088640
H320  H     H_    0.854297 0.563121 0.863263 0.087967
H321  H     H_    0.756034 0.513255 0.822606 0.089317
H322  H     H_    0.718694 0.384687 0.830368 0.089070
H323  H     H_    0.024900 0.155172 0.546225 0.147435
H324  H     H_    0.779565 0.306360 0.879420 0.096648
H325  H     H_    0.877203 0.355382 0.920569 0.086181
H326  H     H_    0.148148 0.550450 0.138371 0.077938
H327  H     H_    0.252004 0.498565 0.173284 0.083161
H328  H     H_    0.291989 0.371790 0.159769 0.086874
H329  H     H_    0.227633 0.298432 0.109973 0.078913
H330  H     H_    0.123894 0.350148 0.074313 0.086848
H331  H     H_    0.457524 0.847807 0.862746 0.078996
H332  H     H_    0.516574 0.748222 0.827243 0.087560
H333  H     H_    0.645773 0.718488 0.839518 0.079812
H334  H     H_    0.936866 0.182466 0.497102 0.187804
H335  H     H_    0.137122 0.207855 0.606447 0.133148
H336  H     H_    0.715083 0.789272 0.888183 0.082106
H337  H     H_    0.656025 0.888545 0.924943 0.088735
H338  H     H_    0.461215 0.150809 0.140677 0.081077
H339  H     H_    0.524049 0.247219 0.177200 0.089351
H340  H     H_    0.651190 0.277483 0.161630 0.089969
H341  H     H_    0.715258 0.210379 0.109077 0.080235
H342  H     H_    0.654155 0.112850 0.073003 0.086023
H343  H     H_    0.147131 0.446465 0.859501 0.086398
H344  H     H_    0.246687 0.500404 0.821747 0.091395
H345  H     H_    0.286458 0.626485 0.835359 0.088729
H346  H     H_    0.157977 0.163609 0.560535 0.156906
H347  H     H_    0.226556 0.698073 0.887567 0.082516
H348  H     H_    0.126418 0.645474 0.925262 0.086922
H349  H     H_    0.851290 0.451884 0.136442 0.083014
H350  H     H_    0.750941 0.507078 0.171690 0.082307
H351  H     H_    0.717695 0.637388 0.160042 0.088150
H352  H     H_    0.783722 0.708235 0.110086 0.080811
H353  H     H_    0.885297 0.652927 0.074360 0.082225
H354  H     H_    0.109528 0.115200 0.598024 0.146125
H355  H     H_    0.258791 0.111954 0.428504 0.149343
H356  H     H_    0.347069 0.131335 0.446381 0.105118
H357  H     H_    0.212741 0.108965 0.499198 0.194541
H358  H     H_    0.299950 0.142971 0.513910 0.177527
H359  H     H_    0.282169 0.250423 0.468749 0.142844
H360  H     H_    0.217095 0.245096 0.507660 0.133579
H361  H     H_    0.191479 0.218017 0.459029 0.161138
H362  H     H_    0.809053 0.185340 0.470709 0.140827
H363  H     H_    0.690101 0.088050 0.568075 0.113205
H364  H     H_    0.723742 0.091733 0.518525 0.157832
H365  H     H_    0.803188 0.016942 0.586705 0.170351
H366  H     H_    0.835773 0.029811 0.537644 0.160336
H367  H     H_    0.798022 0.150262 0.597018 0.134808
H368  H     H_    0.828654 0.165820 0.547471 0.158038
H369  H     H_    0.887330 0.121916 0.582461 0.146939
H370  H     H_    0.414527 0.806355 0.930303 0.116080
H371  H     H_    0.407058 0.771573 0.979491 0.156877
H372  H     H_    0.491465 0.693580 0.914369 0.183929
H373  H     H_    0.853300 0.098620 0.464482 0.158746
H374  H     H_    0.469076 0.659459 0.962128 0.160641
H375  H     H_    0.336625 0.667220 0.944402 0.152263
H376  H     H_    0.386879 0.608688 0.912004 0.151206
H377  H     H_    0.361871 0.698902 0.896209 0.132678
H378  H     H_    0.416013 0.195597 0.068729 0.118442
H379  H     H_    0.411048 0.231495 0.019519 0.157940
H380  H     H_    0.491437 0.305573 0.087370 0.178436
H381  H     H_    0.476133 0.341349 0.039022 0.159236
H382  H     H_    0.341520 0.337789 0.051643 0.157779
H383  H     H_    0.389186 0.394282 0.086110 0.153501
H384  H     H_    0.844478 0.159280 0.423381 0.145932
H385  H     H_    0.360191 0.304681 0.100505 0.134837
H386  H     H_    0.220618 0.405640 0.928458 0.126895
H387  H     H_    0.202588 0.387647 0.979223 0.124219
H388  H     H_    0.335354 0.470809 0.948443 0.165189
H389  H     H_    0.317498 0.445454 0.998349 0.190299
H390  H     H_    0.318619 0.312806 0.977805 0.139942
H391  H     H_    0.403062 0.358629 0.969140 0.157274
H392  H     H_    0.342541 0.341756 0.928934 0.153928
H393  H     H_    0.806871 0.401502 0.058455 0.111603
H394  H     H_    0.768737 0.414075 0.010105 0.162180
H395  H     H_    0.896454 0.689880 0.561050 0.111738
H396  H     H_    0.700780 0.466886 0.087154 0.172774
H397  H     H_    0.663576 0.479543 0.038982 0.167580
H398  H     H_    0.655159 0.345058 0.030246 0.153966
H399  H     H_    0.608189 0.373982 0.073733 0.147884
H400  H     H_    0.695748 0.331502 0.077875 0.141039
H401  H     H_    0.593796 0.193389 0.931790 0.116850
H402  H     H_    0.600664 0.224075 0.981858 0.155925
H403  H     H_    0.524297 0.309832 0.916412 0.181759
H404  H     H_    0.541722 0.339453 0.965703 0.158342
H405  H     H_    0.675532 0.329484 0.953062 0.145212
H406  H     H_    0.902349 0.724151 0.511523 0.162861
H407  H     H_    0.631306 0.391388 0.919739 0.161768
H408  H     H_    0.655977 0.301470 0.903404 0.131666
H409  H     H_    0.584611 0.807985 0.069517 0.118069
H410  H     H_    0.591837 0.769969 0.020925 0.160302
H411  H     H_    0.510183 0.696995 0.088598 0.181092
H412  H     H_    0.529207 0.659505 0.041117 0.161001
H413  H     H_    0.662525 0.666104 0.055845 0.155463
H414  H     H_    0.614567 0.611350 0.090920 0.148297
H415  H     H_    0.641573 0.702447 0.103676 0.134913
H416  H     H_    0.756199 0.587917 0.923810 0.147453
O1    O     O_3   0.500000 1.000000 0.250000 -0.461189
O2    O     O_R   0.500000 0.939270 0.662450 -0.557921
O3    O     O_3   0.631328 0.264873 0.700589 -0.555700
O4    O     O_R   0.939270 0.500000 0.337550 -0.552656
O5    O     O_R   0.060730 0.500000 0.662450 -0.547984
O6    O     O_R   1.000000 0.439270 0.837550 -0.546407
O7    O     O_R   1.000000 0.560730 0.162450 -0.557302
O8    O     O_R   0.560730 1.000000 0.837550 -0.557275
O9    O     O_R   0.439270 1.000000 0.162450 -0.548447
O10   O     O_R   1.000000 0.560730 0.837550 -0.547422
O11   O     O_R   1.000000 0.439270 0.162450 -0.555340
O12   O     O_R   0.439270 1.000000 0.837550 -0.548216
O13   O     O_3   0.500000 1.000000 0.750000 -0.453828
O14   O     O_R   0.560730 1.000000 0.162450 -0.548367
O15   O     O_R   0.414490 0.146150 0.273020 -0.517093
O16   O     O_R   0.585510 0.853850 0.726980 -0.494389
O17   O     O_R   0.853850 0.414490 0.273020 -0.513061
O18   O     O_R   0.146150 0.585510 0.726980 -0.512588
O19   O     O_R   0.585510 0.853850 0.273020 -0.521888
O20   O     O_R   0.414490 0.146150 0.726980 -0.520737
O21   O     O_R   0.146150 0.585510 0.273020 -0.535324
O22   O     O_R   0.853850 0.414490 0.726980 -0.509214
O23   O     O_R   0.414490 0.853850 0.726980 -0.518554
O24   O     O_3   1.000000 0.500000 0.250000 -0.452995
O25   O     O_R   0.585510 0.146150 0.273020 -0.494294
O26   O     O_R   0.853850 0.585510 0.726980 -0.518333
O27   O     O_R   0.146150 0.414490 0.273020 -0.523550
O28   O     O_R   0.585510 0.146150 0.726980 -0.527825
O29   O     O_R   0.414490 0.853850 0.273020 -0.511383
O30   O     O_R   0.146150 0.414490 0.726980 -0.521094
O31   O     O_R   0.853850 0.585510 0.273020 -0.507869
O32   O     O_R   0.914490 0.646150 0.773020 -0.541899
O33   O     O_R   0.085510 0.353850 0.226980 -0.520965
O34   O     O_R   0.353850 0.914490 0.773020 -0.521431
O35   O     O_3   1.000000 0.500000 0.750000 -0.457193
O36   O     O_R   0.646150 0.085510 0.226980 -0.512427
O37   O     O_R   0.085510 0.353850 0.773020 -0.520136
O38   O     O_R   0.914490 0.646150 0.226980 -0.518613
O39   O     O_R   0.646150 0.085510 0.773020 -0.539644
O40   O     O_R   0.353850 0.914490 0.226980 -0.509810
O41   O     O_R   0.914490 0.353850 0.226980 -0.532863
O42   O     O_R   0.085510 0.646150 0.773020 -0.515660
O43   O     O_R   0.353850 0.085510 0.226980 -0.521584
O44   O     O_R   0.646150 0.914490 0.773020 -0.538334
O45   O     O_R   0.085510 0.646150 0.226980 -0.524351
O46   O     O_R   0.500000 0.939270 0.337550 -0.548547
O47   O     O_R   0.914490 0.353850 0.773020 -0.510163
O48   O     O_R   0.646150 0.914490 0.226980 -0.521355
O49   O     O_R   0.353850 0.085510 0.773020 -0.511184
O50   O     O_3   0.998761 0.297991 0.460536 -0.567428
O51   O     O_3   0.000385 0.697246 0.539023 -0.566573
O52   O     O_3   0.698391 0.002231 0.461694 -0.572173
O53   O     O_3   0.301426 0.007949 0.539733 -0.574342
O54   O     O_3   0.998745 0.696670 0.459942 -0.567514
O55   O     O_3   0.984661 0.298471 0.539286 -0.570463
O56   O     O_3   0.303019 0.028154 0.459804 -0.579306
O57   O     O_R   0.500000 0.060730 0.662450 -0.552503
O58   O     O_3   0.696046 0.988449 0.540172 -0.565043
O59   O     O_3   0.510807 0.801188 0.960960 -0.568326
O60   O     O_3   0.513544 0.199345 0.039462 -0.569805
O61   O     O_3   0.199837 0.498185 0.960101 -0.569515
O62   O     O_3   0.803646 0.508205 0.038934 -0.568043
O63   O     O_3   0.496410 0.200180 0.961090 -0.568106
O64   O     O_3   0.488253 0.800957 0.039100 -0.570654
O65   O     O_3   0.803650 0.513373 0.960082 -0.566666
O66   O     O_3   0.200376 0.499944 0.038793 -0.564320
O67   O     O_3   0.245725 0.859319 0.193573 -0.541894
O68   O     O_R   0.060730 0.500000 0.337550 -0.557307
O69   O     O_3   0.761370 0.133315 0.802204 -0.555871
O70   O     O_3   0.119019 0.219432 0.213536 -0.526232
O71   O     O_3   0.879799 0.779627 0.788588 -0.545750
O72   O     O_3   0.755907 0.139331 0.194654 -0.542651
O73   O     O_3   0.238473 0.867750 0.800949 -0.554435
O74   O     O_3   0.883971 0.784500 0.218614 -0.522831
O75   O     O_3   0.132630 0.234099 0.799912 -0.541462
O76   O     O_3   0.221093 0.118215 0.786736 -0.524067
O77   O     O_3   0.767216 0.870111 0.201788 -0.537441
O78   O     O_3   0.130282 0.767594 0.798427 -0.536047
O79   O     O_R   0.939270 0.500000 0.662450 -0.549047
O80   O     O_3   0.867958 0.236224 0.199584 -0.551687
O81   O     O_3   0.789865 0.893757 0.775650 -0.536921
O82   O     O_3   0.234368 0.131254 0.200605 -0.540016
O83   O     O_3   0.859203 0.244961 0.806805 -0.542626
O84   O     O_3   0.131424 0.765150 0.200408 -0.552239
O85   O     O_3   0.738550 0.365791 0.698185 -0.539874
O86   O     O_3   0.263396 0.631339 0.300526 -0.556133
O87   O     O_3   0.620417 0.720395 0.716038 -0.514017
O88   O     O_3   0.374148 0.272522 0.294560 -0.532598
O89   O     O_3   0.251128 0.643350 0.691800 -0.542438
O90   O     O_R   0.500000 0.060730 0.337550 -0.542715
O91   O     O_3   0.745595 0.361570 0.305335 -0.555653
O92   O     O_3   0.380339 0.279606 0.712187 -0.528490
O93   O     O_3   0.630402 0.731509 0.298027 -0.538753
O94   O     O_3   0.717320 0.615413 0.282892 -0.521321
O95   O     O_3   0.265479 0.369215 0.700617 -0.541514
O96   O     O_3   0.646937 0.244427 0.310269 -0.547100
O97   O     O_3   0.360212 0.744117 0.694132 -0.552564
O98   O     O_3   0.278457 0.383443 0.286055 -0.540587
O99   O     O_3   0.734992 0.630958 0.700940 -0.551087
O100  O     O_3   0.360932 0.742825 0.305327 -0.546361
Zn1   Zn    Zn3+2 0.413190 1.000000 0.217350 0.929449
Zn2   Zn    Zn3+2 0.086810 0.500000 0.282650 0.907527
Zn3   Zn    Zn3+2 0.500000 0.913190 0.717350 0.930545
Zn4   Zn    Zn3+2 0.500000 0.086810 0.282650 0.946561
Zn5   Zn    Zn3+2 0.086810 0.500000 0.717350 0.925485
Zn6   Zn    Zn3+2 0.913190 0.500000 0.282650 0.927901
Zn7   Zn    Zn3+2 0.500000 0.086810 0.717350 0.912721
Zn8   Zn    Zn3+2 0.500000 0.913190 0.282650 0.930971
Zn9   Zn    Zn3+2 0.586810 1.000000 0.782650 0.903574
Zn10  Zn    Zn3+2 1.000000 0.413190 0.217350 0.913623
Zn11  Zn    Zn3+2 1.000000 0.586810 0.782650 0.919264
Zn12  Zn    Zn3+2 0.586810 1.000000 0.217350 0.927141
Zn13  Zn    Zn3+2 0.413190 1.000000 0.782650 0.926002
Zn14  Zn    Zn3+2 1.000000 0.586810 0.217350 0.917154
Zn15  Zn    Zn3+2 1.000000 0.413190 0.782650 0.932286
Zn16  Zn    Zn3+2 0.913190 0.500000 0.717350 0.927002

loop_
_geom_bond_atom_site_label_1
_geom_bond_atom_site_label_2
_ccdc_geom_bond_type
C133  H102  S    
C352  O81   S    
C146  C317  S    
C56   H212  S    
C256  C262  A    
C291  C292  A    
C289  C295  A    
C170  H187  S    
C114  C115  S    
C130  H95   S    
C362  C368  A    
C44   C45   S    
C44   H334  S    
C7    C246  A    
C261  H313  S    
C319  O8    A    
C102  H30   S    
C191  H238  S    
C110  H50   S    
C284  C285  A    
C107  H43   S    
C62   H335  S    
C141  H120  S    
C205  H266  S    
C200  H260  S    
C241  H296  S    
O26   Zn16  S    
C135  C320  S    
O57   Zn7   S    
C218  H277  S    
C106  C107  S    
C271  C272  A    
C5    C36   A    
C244  C245  A    
C96   H17   S    
C274  C275  A    
C290  O62   S    
C36   C375  A    
C141  H121  S    
C110  C111  S    
C363  C367  A    
C114  H55   S    
C159  H161  S    
C131  H96   S    
C327  O20   A    
C145  H131  S    
O5    Zn5   S    
C73   H378  S    
C67   H366  S    
C272  C273  A    
C92   H6    S    
C243  C244  A    
C72   H376  S    
C230  C236  A    
O15   Zn4   S    
C313  O46   A    
C22   C361  A    
C94   H11   S    
C143  H126  S    
C93   O66   S    
C340  O69   S    
C196  O100  S    
C283  C288  A    
C59   H279  S    
C9    C46   A    
O13   Zn13  S    
C10   C41   A    
C51   H90   S    
C277  H326  S    
C87   H411  S    
C302  H348  S    
C338  O31   A    
C45   H384  S    
C244  H298  S    
C228  C229  A    
C133  H103  S    
C193  H243  S    
C19   C321  S    
C4    C34   A    
C73   C74   S    
C129  H93   S    
C59   H268  S    
C29   C343  A    
C189  H236  S    
C371  O99   S    
C51   C52   S    
C78   H390  S    
C86   H409  S    
C193  H242  S    
C279  C312  A    
C286  H333  S    
C77   H389  S    
C140  C141  S    
C28   C369  A    
C139  H116  S    
C192  H240  S    
C206  C207  A    
C144  C145  S    
O47   Zn15  S    
C53   H135  S    
C278  H327  S    
C77   C78   S    
C97   H19   S    
C164  H175  S    
C354  O83   S    
C161  H167  S    
C8    C35   A    
C359  C371  A    
C43   C44   S    
C37   C38   A    
C294  H341  S    
C160  O88   S    
C303  C304  A    
C122  H75   S    
C306  C307  A    
C62   H346  S    
C64   H358  S    
C20   C359  A    
C148  C149  S    
C190  O52   S    
C154  C155  S    
C202  H262  S    
C75   H382  S    
C342  C352  A    
C198  H254  S    
C360  C370  A    
C237  C242  A    
C197  H253  S    
C138  H111  S    
C68   C303  S    
C275  H325  S    
C183  O96   S    
C120  H72   S    
C258  H309  S    
C82   H400  S    
C158  C159  S    
C1    C79   A    
C86   O64   S    
C117  O74   S    
C314  O57   A    
C298  C299  A    
C54   H168  S    
C86   H410  S    
C91   C92   S    
C284  H331  S    
C56   O54   S    
C351  O80   S    
O24   Zn10  S    
C288  H337  S    
C97   H20   S    
O25   Zn4   S    
C205  C206  A    
C35   C124  A    
C176  O94   S    
C372  O100  S    
C255  H308  S    
C214  C215  A    
C72   H377  S    
C103  H33   S    
C105  H37   S    
C163  H172  S    
C268  C301  A    
C269  H319  S    
O68   Zn2   S    
C320  O14   A    
C326  O19   A    
C99   O69   S    
C197  H252  S    
O23   Zn3   S    
C292  H339  S    
C339  O67   S    
C199  H258  S    
C151  H143  S    
C362  O91   S    
C325  O18   A    
C21   C362  A    
C357  C373  A    
C112  C209  S    
C156  C158  S    
C130  C131  S    
C143  O83   S    
C21   C324  S    
C334  O33   A    
C262  H314  S    
C276  C277  A    
C211  H272  S    
C267  H318  S    
C276  C282  A    
O35   Zn16  S    
C174  H198  S    
C155  H154  S    
C154  H152  S    
C92   H8    S    
C121  H73   S    
C63   O56   S    
C103  O70   S    
C194  H244  S    
C32   C340  A    
C328  O21   A    
C69   H367  S    
C138  H114  S    
C252  H305  S    
C200  C202  S    
C193  C194  S    
C322  C374  A    
C66   H364  S    
C165  H178  S    
C261  C262  A    
C52   H124  S    
C326  O48   A    
C126  H84   S    
C186  C187  S    
C305  H350  S    
C171  H189  S    
C143  C144  S    
C233  C234  A    
C215  H275  S    
C252  C253  A    
O13   Zn3   S    
C18   C357  A    
C247  H300  S    
C297  H343  S    
C53   O53   S    
C187  H230  S    
C50   O52   S    
C96   O67   S    
C186  H227  S    
C179  C375  A    
C147  C148  S    
C273  H322  S    
C315  O4    A    
C142  H125  S    
C76   H386  S    
C128  C129  S    
C232  H288  S    
C95   H15   S    
C97   C98   S    
C167  C169  S    
C335  O39   A    
C317  O6    A    
O20   Zn7   S    
C296  C302  A    
C109  O72   S    
C268  O60   S    
C209  C215  A    
C51   H79   S    
C145  H130  S    
C329  O47   A    
C325  O42   A    
C301  O63   S    
O1    Zn4   S    
C234  H291  S    
C54   H157  S    
C182  H216  S    
C253  C254  A    
C32   C373  A    
C170  C171  S    
C214  H274  S    
C47   O51   S    
C357  O85   S    
C115  C116  S    
C282  H330  S    
C61   H323  S    
C281  H329  S    
C184  C185  S    
C84   H404  S    
C31   C334  S    
C359  O87   S    
C241  C242  A    
C63   H355  S    
C345  C350  A    
C189  C191  S    
C174  C175  S    
C287  H336  S    
C201  O53   S    
C29   C368  A    
C111  H53   S    
C11   C290  A    
C119  H69   S    
C6    C37   A    
C264  C265  A    
C162  H170  S    
C256  C258  A    
C82   H398  S    
C178  H207  S    
C117  H63   S    
C166  H180  S    
C240  H295  S    
C10   C279  A    
C89   C91   S    
O12   Zn13  S    
C148  H137  S    
C147  H134  S    
O41   Zn10  S    
C172  H193  S    
C131  H97   S    
C132  H99   S    
C74   H380  S    
C66   C67   S    
C248  H302  S    
C237  C238  A    
C176  H204  S    
C32   C335  S    
C175  H199  S    
C337  O37   A    
C158  H159  S    
C105  H39   S    
C61   H312  S    
C373  O3    S    
C100  H28   S    
C106  H40   S    
C23   C364  A    
C274  H324  S    
C220  C221  A    
C143  H127  S    
C365  O94   S    
C181  H214  S    
C207  C208  A    
C149  H138  S    
C190  C246  A    
C115  H58   S    
C130  O78   S    
C150  H141  S    
C183  H219  S    
C323  O44   A    
C169  H186  S    
C83   H401  S    
C280  C281  A    
C222  C229  A    
C17   C328  S    
C69   H368  S    
C349  O77   S    
C39   C40   A    
C360  O88   S    
C74   H381  S    
C24   C157  A    
C224  O55   S    
C254  H307  S    
C18   C354  A    
C222  C225  A    
C104  H34   S    
C217  C218  A    
O16   Zn3   S    
C179  C212  A    
C184  H221  S    
C101  C344  A    
C345  O73   S    
C46   C289  S    
C307  H352  S    
C83   O63   S    
C108  H45   S    
C293  C294  A    
C334  O27   A    
C173  H195  S    
C98   H23   S    
C139  H117  S    
O90   Zn4   S    
C20   C323  S    
C190  C376  A    
C83   C84   S    
C231  H287  S    
O21   Zn2   S    
C151  C152  S    
C219  H278  S    
C199  O3    S    
C343  O72   S    
O46   Zn8   S    
C209  C210  A    
C118  H66   S    
C133  O80   S    
C65   H361  S    
C152  H148  S    
O7    Zn14  S    
C90   C316  S    
O34   Zn13  S    
C137  H109  S    
C55   H190  S    
C162  H171  S    
C339  C356  A    
C194  H245  S    
C48   H2    S    
C185  H225  S    
C80   H394  S    
C196  H251  S    
C317  O10   A    
C285  H332  S    
C188  H231  S    
C195  H248  S    
C82   H399  S    
C159  H162  S    
C75   H383  S    
C11   C68   A    
C346  C349  A    
C111  H52   S    
C24   C276  S    
C191  C192  S    
C68   C157  A    
C153  H150  S    
C127  H87   S    
C54   C55   S    
C176  C177  S    
C80   O62   S    
C58   H246  S    
C17   C358  A    
C270  C275  A    
O17   Zn6   S    
C170  H188  S    
C260  C261  A    
C333  C375  A    
C173  H196  S    
C7    C38   A    
C313  O90   A    
C5    C112  A    
C257  O59   S    
C204  H265  S    
C106  O71   S    
C236  H292  S    
O24   Zn14  S    
C102  H31   S    
C246  O58   S    
C340  C354  A    
C110  H51   S    
C258  C259  A    
C69   H369  S    
C192  H241  S    
C26   C347  A    
C149  H139  S    
C117  C118  S    
C47   H406  S    
C166  C167  S    
O49   Zn13  S    
C207  H269  S    
C199  H259  S    
C240  C241  A    
C56   C58   S    
C165  H176  S    
C34   C36   A    
C45   H362  S    
C61   C62   S    
C88   H415  S    
C125  H82   S    
C358  C372  A    
C342  O71   S    
C315  O68   A    
C63   C64   S    
C370  O98   S    
C213  H273  S    
C123  H80   S    
C199  C200  S    
C5    C224  A    
C369  O97   S    
C204  C205  A    
C67   H365  S    
C155  H155  S    
C226  C227  A    
C279  O61   S    
C173  O93   S    
C283  C284  A    
C43   H112  S    
C186  O97   S    
C89   H3    S    
C328  O45   A    
C75   H385  S    
O1    Zn8   S    
C65   H360  S    
C94   H12   S    
C142  H123  S    
C183  H218  S    
C59   H257  S    
C87   C88   S    
C149  H140  S    
C81   H397  S    
C324  O41   A    
C243  C249  A    
C128  H89   S    
C66   O58   S    
C150  O85   S    
C41   C42   A    
C321  O15   A    
C259  H310  S    
C239  C240  A    
C120  O75   S    
C6    C235  A    
C225  H282  S    
C116  H61   S    
C161  C162  S    
C263  C264  A    
C280  H328  S    
C181  C182  S    
C104  H36   S    
C129  H92   S    
C140  O82   S    
C166  O91   S    
C33   C339  A    
C265  H316  S    
C234  C236  A    
C337  O30   A    
C27   C346  A    
C78   H391  S    
C62   H354  S    
C85   H408  S    
C55   H179  S    
C164  C165  S    
C108  H47   S    
C26   C337  S    
C91   H4    S    
C193  O99   S    
C98   H21   S    
C139  H115  S    
C294  C295  A    
C220  H280  S    
O48   Zn12  S    
C89   O65   S    
C93   H10   S    
C180  O95   S    
O45   Zn14  S    
C161  H166  S    
C25   C363  A    
C11   C42   A    
C367  O95   S    
C70   H370  S    
C178  H209  S    
C171  H191  S    
O1    Zn1   S    
C216  C221  A    
C104  C105  S    
C33   C372  A    
C46   C135  A    
C156  H156  S    
C239  H294  S    
C153  H149  S    
C163  C164  S    
C122  H76   S    
C12   C301  A    
C321  O43   A    
C343  C351  A    
C164  H174  S    
C168  C374  A    
C227  H284  S    
C33   C336  S    
C70   C71   S    
C29   C331  S    
C90   C333  A    
C324  O17   A    
C202  H263  S    
C198  H255  S    
C300  H347  S    
C194  C195  S    
C2    C14   A    
C336  O29   A    
C245  H299  S    
C37   C376  A    
C79   C315  S    
C167  H182  S    
C364  O93   S    
O11   Zn10  S    
C140  H118  S    
C293  H340  S    
C179  O51   S    
C243  C344  S    
C130  H94   S    
C132  H98   S    
C83   H402  S    
C122  H77   S    
C17   C356  A    
C356  O84   S    
C113  C355  A    
C226  H283  S    
C102  H29   S    
C137  O81   S    
C307  C308  A    
C84   C85   S    
C15   C41   A    
C251  C252  A    
C238  C239  A    
C219  C220  A    
C327  O49   A    
C86   C87   S    
C189  O98   S    
C177  H205  S    
C128  H88   S    
C58   C59   S    
C53   C54   S    
C26   C367  A    
C9    C40   A    
C115  H59   S    
O13   Zn7   S    
C2    C135  A    
C60   C61   S    
C34   C374  A    
C299  C300  A    
C71   H374  S    
C60   O55   S    
C285  C286  A    
C341  O70   S    
C229  H286  S    
C123  H78   S    
C2    C263  S    
C73   H379  S    
O35   Zn15  S    
C155  H153  S    
O31   Zn6   S    
C50   H68   S    
C147  O84   S    
C14   C309  A    
O9    Zn1   S    
C50   C51   S    
C19   C353  A    
C72   H375  S    
C208  H270  S    
O29   Zn8   S    
C113  C311  A    
C71   H372  S    
C237  C333  S    
C108  H44   S    
C121  C122  S    
C303  C308  A    
C353  O82   S    
C48   C49   S    
C169  H184  S    
C150  H142  S    
C290  C310  A    
C245  C247  A    
C156  O87   S    
C165  H177  S    
C133  C134  S    
C331  O25   A    
C30   C342  A    
C87   H412  S    
C126  H85   S    
C250  C355  S    
C53   H146  S    
C1    C203  S    
C295  H342  S    
C347  C348  A    
O32   Zn11  S    
C180  C181  S    
C348  O76   S    
C180  H210  S    
C368  O96   S    
C6    C223  A    
C203  C208  A    
C361  O89   S    
O30   Zn5   S    
C318  O7    A    
O44   Zn9   S    
C242  H297  S    
O6    Zn15  S    
C187  H229  S    
O28   Zn7   S    
C186  H228  S    
C136  H107  S    
C124  C319  S    
C60   H301  S    
C196  H250  S    
C292  C293  A    
C323  O16   A    
C192  H239  S    
C159  H163  S    
C206  H267  S    
C298  H344  S    
C28   C345  A    
C25   C327  S    
C31   C370  A    
C331  O36   A    
C191  H237  S    
C180  H211  S    
C64   C65   S    
C217  H276  S    
C12   C39   A    
O35   Zn5   S    
C136  H108  S    
C216  C223  S    
C78   H392  S    
C187  C188  S    
C57   C296  S    
C109  C110  S    
C253  H306  S    
C267  C269  A    
O8    Zn9   S    
C238  H293  S    
O10   Zn11  S    
C251  H304  S    
C230  C322  S    
O35   Zn11  S    
C232  C233  A    
C109  H49   S    
C64   H357  S    
C309  O64   S    
O4    Zn6   S    
C30   C371  A    
C20   C352  A    
C230  C231  A    
C60   H290  S    
C341  C353  A    
C138  C139  S    
O24   Zn2   S    
C15   C310  A    
C212  O54   S    
C71   C72   S    
C56   H224  S    
C177  C178  S    
C222  C311  S    
C120  H71   S    
C103  C104  S    
C178  H208  S    
C157  C318  S    
C166  H181  S    
C73   O60   S    
C141  C142  S    
C88   H414  S    
C147  H133  S    
C270  C271  A    
C248  C249  A    
C172  H194  S    
C320  O9    A    
C132  H100  S    
C171  C172  S    
C16   C312  A    
C156  H158  S    
C93   C94   S    
C109  H48   S    
C228  H285  S    
C30   C332  S    
C297  C298  A    
C175  H202  S    
C158  H160  S    
C105  H38   S    
C107  H42   S    
C90   C112  A    
C183  C184  S    
C271  H320  S    
C330  O23   A    
C81   C82   S    
C173  C174  S    
C364  C365  A    
C114  O73   S    
C70   O59   S    
C336  O40   A    
C235  O56   S    
C254  C255  A    
O79   Zn16  S    
C151  H144  S    
C305  C306  A    
C113  C314  S    
O39   Zn9   S    
C169  H185  S    
O19   Zn8   S    
C168  O50   S    
C184  H220  S    
C18   C329  S    
C134  H104  S    
C116  H60   S    
C319  O12   A    
C93   H9    S    
C201  C235  A    
C185  H226  S    
C361  C369  A    
C174  H197  S    
C154  H151  S    
C92   H7    S    
C121  H74   S    
C196  C197  S    
C188  H233  S    
C85   H405  S    
C8    C257  A    
O1    Zn12  S    
C257  C309  A    
C118  C119  S    
C25   C348  A    
C123  O76   S    
C145  H132  S    
C123  C125  S    
C289  C291  A    
C304  H349  S    
C49   H35   S    
C27   C338  S    
C227  C228  A    
C3    C38   A    
C47   H395  S    
C137  H110  S    
C66   H363  S    
C233  H289  S    
C216  C217  A    
C291  H338  S    
C8    C39   A    
C7    C311  A    
C152  H145  S    
C300  C302  A    
C316  O79   A    
C91   H5    S    
C265  C266  A    
O36   Zn12  S    
C332  O26   A    
C114  H56   S    
C19   C360  A    
C70   H371  S    
C101  C223  A    
C312  O66   S    
C12   C366  A    
C49   H46   S    
C16   C24   A    
C160  H164  S    
C264  H315  S    
O24   Zn6   S    
C197  C198  S    
C79   C322  A    
C13   C146  A    
C168  C224  A    
C188  H232  S    
C195  H247  S    
C95   H16   S    
C55   H201  S    
O43   Zn1   S    
C103  H32   S    
C148  H136  S    
C177  H206  S    
C195  H249  S    
C299  H345  S    
C9    C268  A    
C119  H67   S    
C22   C325  S    
C48   H13   S    
C74   C75   S    
C306  H351  S    
C47   C48   S    
C3    C355  A    
C10   C57   A    
C76   C77   S    
C27   C365  A    
C310  O65   S    
C167  H183  S    
C182  H215  S    
C210  H271  S    
C77   H388  S    
C266  H317  S    
C286  C287  A    
O37   Zn15  S    
C134  C136  S    
C281  C282  A    
C76   O61   S    
C89   H416  S    
C338  O38   A    
C84   H403  S    
C67   C69   S    
C3    C201  A    
C63   H356  S    
C144  H129  S    
C134  H105  S    
C221  H281  S    
C31   C341  A    
C111  H54   S    
C175  H200  S    
C181  H213  S    
C99   C100  S    
C119  H70   S    
C263  C269  A    
C200  H261  S    
C107  C108  S    
C162  H169  S    
C28   C330  S    
C96   C97   S    
C100  C102  S    
C225  C226  A    
C117  H64   S    
C94   C95   S    
O38   Zn14  S    
C35   C283  S    
C125  H81   S    
C308  H353  S    
C213  C214  A    
C329  O22   A    
C101  C313  S    
C304  C305  A    
C211  C213  A    
O40   Zn1   S    
O14   Zn12  S    
C13   C15   A    
C176  H203  S    
C96   H18   S    
C144  H128  S    
C126  H83   S    
C278  C280  A    
O33   Zn10  S    
C358  O86   S    
C344  C376  A    
C100  H27   S    
C259  C260  A    
C44   H223  S    
C49   H24   S    
C16   C42   A    
C65   H359  S    
C124  C366  A    
C316  O5    A    
O22   Zn16  S    
C160  H165  S    
C88   H413  S    
C106  H41   S    
C250  C255  A    
C172  H192  S    
C335  O28   A    
C296  C297  A    
C81   H396  S    
C332  O32   A    
O27   Zn2   S    
C127  H86   S    
C182  H217  S    
C58   H235  S    
C318  O11   A    
C80   C81   S    
C260  H311  S    
C116  H62   S    
C247  C248  A    
C129  H91   S    
C314  O2    A    
C137  C138  S    
C43   H1    S    
C189  H234  S    
C150  C151  S    
C163  O89   S    
C272  H321  S    
C1    C4    A    
C57   C146  A    
C160  C161  S    
C85   H407  S    
C43   O50   S    
C99   H26   S    
C99   H25   S    
C52   H101  S    
C142  H122  S    
C13   C270  S    
C98   H22   S    
C153  O86   S    
C185  H222  S    
C22   C350  A    
C23   C326  S    
C218  C219  A    
C125  C126  S    
C249  H303  S    
C4    C212  A    
C170  O92   S    
C163  H173  S    
C118  H65   S    
C52   H113  S    
O18   Zn5   S    
O13   Zn9   S    
O2    Zn3   S    
C95   H14   S    
C152  H147  S    
C131  C132  S    
C45   H373  S    
C363  O92   S    
C250  C251  A    
C266  C267  A    
C14   C40   A    
O42   Zn11  S    
C287  C288  A    
C23   C349  A    
C127  O77   S    
C50   H57   S    
C350  O78   S    
C210  C211  A    
C198  H256  S    
C231  C232  A    
C330  O34   A    
C120  C121  S    
C80   H393  S    
C21   C351  A    
C203  C204  A    
C347  O75   S    
C153  C154  S    
C277  C278  A    
C76   H387  S    
C256  C366  S    
C346  O74   S    
C140  H119  S    
C202  H264  S    
C127  C128  S    
C136  H106  S    
C273  C274  A    
