data_mof_unit_55278.cif
_audit_creation_date              2012-12-10T19:11:31-0500
_audit_creation_method            fapswitch 2.2
_symmetry_space_group_name_H-M    P1
_symmetry_Int_Tables_number       1
_space_group_crystal_system       triclinic
_cell_length_a                    10.627843
_cell_length_b                    9.82053
_cell_length_c                    10.479952
_cell_angle_alpha                 89.672272
_cell_angle_beta                  88.659844
_cell_angle_gamma                 89.935164
_cell_volume                      1093.48597632

loop_
_atom_site_label
_atom_site_type_symbol
_atom_type_description
_atom_site_fract_x
_atom_site_fract_y
_atom_site_fract_z
_atom_type_partial_charge
C1    C     C_R   0.258103 0.500327 0.500694 0.826223
C2    C     C_3   0.932383 0.436437 0.367802 0.239846
C3    C     C_3   0.375016 0.080316 0.542880 0.039164
C4    C     C_3   0.376035 0.917910 0.545392 0.061214
C5    C     C_3   0.532499 0.080352 0.367945 0.277326
C6    C     C_3   0.525514 0.918943 0.366955 0.309953
C7    C     C_3   0.595642 0.080241 0.584005 -0.350201
C8    C     C_3   0.598443 0.918930 0.580609 -0.364264
C9    C     C_R   0.500685 0.500456 0.257460 0.870362
C10   C     C_R   0.742214 0.500085 0.499290 0.836634
C11   C     C_R   0.499729 0.499442 0.742358 0.849691
C12   C     C_3   0.500927 0.501319 0.122266 0.031809
C13   C     C_3   0.508298 0.629422 0.038799 -0.110232
C14   C     C_3   0.393319 0.442917 0.045666 -0.165012
C15   C     C_3   0.400610 0.570947 0.959595 -0.195099
C16   C     C_3   0.499785 0.498026 0.877419 0.018153
C17   C     C_3   0.607413 0.556202 0.953958 -0.220049
C18   C     C_3   0.492463 0.369746 0.960698 -0.100344
C19   C     C_3   0.600093 0.428212 0.040049 -0.168494
C20   C     C_3   0.071130 0.649234 0.508925 -0.405896
C21   C     C_3   0.069285 0.416055 0.613026 -0.438022
C22   C     C_3   0.928345 0.649003 0.507879 -0.427091
C23   C     C_3   0.925245 0.419903 0.614494 -0.450231
C24   C     C_3   0.078647 0.438160 0.372113 -0.427253
C25   C     C_3   0.121795 0.501084 0.498940 0.168920
C26   C     C_3   0.879078 0.500212 0.496216 0.185150
H1    H     H_    0.319541 0.628751 0.921871 0.129199
H2    H     H_    0.515702 0.735603 0.073229 0.198481
H3    H     H_    0.306393 0.397062 0.088088 0.127029
H4    H     H_    0.694414 0.601987 0.911653 0.129372
H5    H     H_    0.485895 0.263931 0.924660 0.153942
H6    H     H_    0.681069 0.370075 0.077518 0.136786
H7    H     H_    0.107558 0.712153 0.427358 0.181655
H8    H     H_    0.101245 0.308396 0.605296 0.170292
H9    H     H_    0.102767 0.697230 0.598706 0.160288
H10   H     H_    0.104342 0.456975 0.704474 0.156733
H11   H     H_    0.891426 0.696320 0.597646 0.168520
H12   H     H_    0.299883 0.112860 0.477544 0.065153
H13   H     H_    0.890583 0.470140 0.703661 0.161804
H14   H     H_    0.896101 0.713568 0.427272 0.190089
H15   H     H_    0.887582 0.314345 0.617624 0.174735
H16   H     H_    0.119552 0.498156 0.290697 0.152559
H17   H     H_    0.117522 0.333333 0.361846 0.146746
H18   H     H_    0.931400 0.480314 0.174136 0.168178
H19   H     H_    0.794190 0.510799 0.249854 0.171471
H20   H     H_    0.917325 0.259468 0.262656 0.162612
H21   H     H_    0.926435 0.231181 0.419661 0.167688
H22   H     H_    0.337863 0.237885 0.669226 0.246422
H23   H     H_    0.299698 0.882010 0.483219 0.090868
H24   H     H_    0.242720 0.111535 0.686344 0.132686
H25   H     H_    0.335501 0.761211 0.671932 0.234904
H26   H     H_    0.252177 0.894071 0.698373 0.135558
H27   H     H_    0.373991 0.147182 0.294286 0.321893
H28   H     H_    0.357976 0.916939 0.288839 0.318464
H29   H     H_    0.690584 0.120171 0.557231 0.151850
H30   H     H_    0.693100 0.884500 0.546573 0.140608
H31   H     H_    0.577562 0.114976 0.683534 0.208428
H32   H     H_    0.587081 0.877869 0.679243 0.215094
H33   H     H_    0.632038 0.108180 0.344413 0.116025
H34   H     H_    0.619324 0.880847 0.333617 0.100904
N1    N     N_3   0.499750 0.138610 0.497240 -0.098554
N2    N     N_3   0.499750 0.861390 0.497240 -0.089733
N3    N     N_3   0.891662 0.519421 0.258583 -0.477118
N4    N     N_3   0.886891 0.295752 0.351838 -0.467773
N5    N     N_3   0.338033 0.133008 0.669728 -0.427458
N6    N     N_3   0.344463 0.865827 0.674431 -0.417285
O1    O     O_R   0.314910 0.616040 0.499970 -0.642032
O2    O     O_3   0.439567 0.869457 0.277845 -0.741184
O3    O     O_R   0.314910 0.383960 0.499970 -0.654704
O4    O     O_R   0.500080 0.616020 0.313900 -0.570342
O5    O     O_R   0.500080 0.383980 0.313900 -0.564615
O6    O     O_R   0.685320 0.616040 0.499930 -0.643907
O7    O     O_R   0.685320 0.383960 0.499930 -0.613380
O8    O     O_R   0.500150 0.616060 0.686000 -0.632954
O9    O     O_R   0.500150 0.383940 0.686000 -0.647810
O10   O     O_3   0.463267 0.137772 0.267968 -0.734136
Zn1   Zn    Zn3+2 0.500150 0.654960 0.499940 0.924344
Zn2   Zn    Zn3+2 0.500150 0.345040 0.499940 0.919344

loop_
_geom_bond_atom_site_label_1
_geom_bond_atom_site_label_2
_ccdc_geom_bond_type
C24   H16   S    
C14   C18   S    
N2    Zn1   S    
O1    Zn1   S    
C7    H29   S    
C8    H30   S    
C7    C8    S    
C21   H10   S    
C5    C6    S    
C10   O7    A    
H28   O2    S    
C20   C25   S    
C15   C16   S    
C4    N2    S    
C18   C19   S    
C23   C26   S    
C7    N1    S    
C17   C19   S    
C20   H9    S    
C3    H12   S    
C16   C17   S    
O8    Zn1   S    
O7    Zn2   S    
C13   H2    S    
H22   N5    S    
C8    H32   S    
C10   C26   S    
C6    O2    S    
O4    Zn1   S    
C1    C25   S    
C17   H4    S    
O3    Zn2   S    
C3    N5    S    
C19   H6    S    
H24   N5    S    
C2    N4    S    
C3    N1    S    
H18   N3    S    
C5    H33   S    
C6    H34   S    
C24   C25   S    
H21   N4    S    
C21   H8    S    
C22   H11   S    
H19   N3    S    
C1    O3    A    
H20   N4    S    
H25   N6    S    
O6    Zn1   S    
C11   C16   S    
C15   H1    S    
N1    Zn2   S    
C22   H14   S    
C5    N1    S    
C2    C26   S    
C9    O4    A    
C20   H7    S    
C20   C22   S    
C13   C15   S    
C2    C24   S    
H27   O10   S    
C14   H3    S    
C3    C4    S    
H26   N6    S    
C2    N3    S    
C21   C25   S    
C9    O5    A    
C12   C14   S    
C11   O8    A    
C23   H15   S    
C13   C17   S    
C4    H23   S    
C6    N2    S    
C5    O10   S    
C21   C23   S    
C11   O9    A    
C4    N6    S    
C23   H13   S    
C12   C19   S    
C1    O1    A    
O9    Zn2   S    
C9    C12   S    
C12   C13   S    
C16   C18   S    
C22   C26   S    
C24   H17   S    
C14   C15   S    
C18   H5    S    
C7    H31   S    
O5    Zn2   S    
C8    N2    S    
C10   O6    A    
