data_mof_unit_50019.cif
_audit_creation_date              2012-12-11T14:36:00-0500
_audit_creation_method            fapswitch 2.2
_symmetry_space_group_name_H-M    P1
_symmetry_Int_Tables_number       1
_space_group_crystal_system       triclinic
_cell_length_a                    13.499457
_cell_length_b                    13.524906
_cell_length_c                    27.482034
_cell_angle_alpha                 90.362792
_cell_angle_beta                  90.196895
_cell_angle_gamma                 59.911221
_cell_volume                      4341.42316995

loop_
_atom_site_label
_atom_site_type_symbol
_atom_type_description
_atom_site_fract_x
_atom_site_fract_y
_atom_site_fract_z
_atom_type_partial_charge
C1    C     C_R   0.620088 0.100551 0.570394 0.554891
C2    C     C_1   0.630220 0.732825 0.616539 0.039908
C3    C     C_3   0.672566 0.575679 0.770415 -0.082087
C4    C     C_3   0.674503 0.662369 0.806622 0.049403
C5    C     C_3   0.572545 0.675959 0.743563 0.260374
C6    C     C_3   0.658279 0.687613 0.711230 0.015674
C7    C     C_3   0.573288 0.762337 0.780276 -0.103349
C8    C     C_3   0.660011 0.774493 0.747269 -0.144123
C9    C     C_1   0.684098 0.640523 0.858956 0.075406
C10   C     C_1   0.646493 0.706921 0.658778 0.019593
C11   C     C_3   0.103990 0.134784 0.740003 -0.111729
C12   C     C_R   0.599796 0.779288 0.568694 0.554125
C13   C     C_3   0.195478 0.057359 0.777555 0.020588
C14   C     C_1   0.105076 0.197481 0.903734 0.070088
C15   C     C_1   0.236670 0.135656 0.618822 0.046229
C16   C     C_3   0.075440 0.239230 0.772816 0.031556
C17   C     C_3   0.165897 0.161308 0.810129 0.060825
C18   C     C_3   0.165788 0.256712 0.746708 0.030813
C19   C     C_3   0.195352 0.152338 0.714353 0.020441
C20   C     C_3   0.257110 0.179189 0.784274 -0.158586
C21   C     C_3   0.287626 0.073345 0.751245 -0.164396
C22   C     C_1   0.139074 0.175554 0.862365 0.074080
C23   C     C_R   0.279053 0.121279 0.569997 0.548262
C24   C     C_1   0.213799 0.144437 0.661560 0.030094
C25   C     C_3   0.675807 0.243274 0.739770 0.015952
C26   C     C_3   0.574613 0.279792 0.775156 0.177229
C27   C     C_1   0.686714 0.207566 0.904268 0.073660
C28   C     C_1   0.633814 0.129496 0.619174 0.049928
C29   C     C_3   0.754797 0.147309 0.774946 0.260063
C30   C     C_3   0.653577 0.183690 0.810287 0.011392
C31   C     C_3   0.724124 0.064408 0.749458 0.277948
C32   C     C_3   0.644836 0.160707 0.714522 -0.029004
C33   C     C_3   0.623186 0.100844 0.784875 -0.030576
C34   C     C_R   0.621985 0.100988 0.431613 0.548635
C35   C     C_3   0.542221 0.197134 0.749528 -0.186741
C36   C     C_1   0.666656 0.196020 0.862565 0.086205
C37   C     C_1   0.640189 0.146260 0.661840 0.043192
C38   C     C_R   0.724876 0.729752 0.359863 -0.137383
C39   C     C_R   0.748206 0.696758 0.311395 -0.022201
C40   C     C_R   0.763375 0.660814 0.210383 -0.011454
C41   C     C_R   0.834954 0.696226 0.233283 0.019931
C42   C     C_R   0.822736 0.720230 0.283775 0.037039
C43   C     C_R   0.751027 0.660505 0.158929 -0.026730
C44   C     C_R   0.700006 0.601270 0.138850 -0.003957
C45   C     C_R   0.603962 0.773884 0.431516 0.572199
C46   C     C_R   0.613089 0.636022 0.369127 0.250625
C47   C     C_R   0.625523 0.609474 0.318977 0.027741
C48   C     C_R   0.693178 0.641804 0.290142 -0.022188
C49   C     C_R   0.568044 0.558679 0.295682 0.278161
C50   C     C_R   0.580792 0.537970 0.246082 -0.087322
C51   C     C_R   0.644124 0.572266 0.218280 -0.032813
C52   C     C_R   0.701383 0.623992 0.239712 0.023678
C53   C     C_R   0.648602 0.556583 0.168730 -0.120298
C54   C     C_R   0.650628 0.708151 0.387001 0.010907
C55   C     C_R   0.191884 0.063199 0.363134 -0.035441
C56   C     C_R   0.272845 0.122779 0.432481 0.543138
C57   C     C_R   0.189836 0.067096 0.311540 -0.059366
C58   C     C_R   0.163907 0.087972 0.208722 -0.003469
C59   C     C_R   0.200860 0.982600 0.231645 -0.060179
C60   C     C_R   0.218078 0.969778 0.282011 -0.032451
C61   C     C_R   0.140376 0.102783 0.157916 -0.047799
C62   C     C_R   0.113594 0.207988 0.135948 -0.016345
C63   C     C_R   0.150869 0.258629 0.368065 0.001885
C64   C     C_R   0.146645 0.267128 0.316826 0.034516
C65   C     C_R   0.164239 0.171099 0.288505 -0.004027
C66   C     C_R   0.135419 0.364435 0.292818 0.228801
C67   C     C_3   0.759288 0.587706 0.737428 -0.150081
C68   C     C_R   0.131647 0.369525 0.242402 -0.087407
C69   C     C_R   0.138459 0.279670 0.214097 -0.017499
C70   C     C_R   0.154133 0.180027 0.237127 0.000282
C71   C     C_R   0.130254 0.287989 0.163196 0.215431
C72   C     C_R   0.198006 0.150275 0.389057 -0.020246
C73   C     C_R   0.544610 0.226626 0.359961 -0.083519
C74   C     C_R   0.552530 0.243577 0.310536 0.032176
C75   C     C_R   0.566457 0.268156 0.209351 -0.038630
C76   C     C_R   0.461931 0.332635 0.234294 -0.104011
C77   C     C_R   0.455116 0.318675 0.284087 -0.063418
C78   C     C_3   0.760232 0.674046 0.774179 0.046610
C79   C     C_R   0.577191 0.281349 0.158829 -0.056949
C80   C     C_R   0.681413 0.204288 0.135303 0.016673
C81   C     C_R   0.746862 0.083992 0.362477 -0.127007
C82   C     C_R   0.755855 0.099991 0.312998 -0.001409
C83   C     C_R   0.657764 0.178541 0.286614 0.069562
C84   C     C_R   0.859271 0.032301 0.288781 -0.134671
C85   C     C_R   0.862954 0.034690 0.238367 -0.048997
C86   C     C_R   0.764608 0.109472 0.211643 0.015652
C87   C     C_R   0.663588 0.187277 0.235909 0.009151
C88   C     C_R   0.765181 0.107635 0.161126 0.237699
C89   C     C_1   0.694607 0.612118 0.900904 0.068354
C90   C     C_R   0.640093 0.142239 0.385323 0.004260
C91   C     C_R   0.050427 0.235742 0.950234 0.549806
C92   C     C_R   0.710971 0.563861 0.948433 0.549958
C93   C     C_R   0.721211 0.225508 0.951284 0.560331
C94   C     C_R   0.049956 0.244495 0.088680 0.539791
C95   C     C_R   0.709852 0.569753 0.087760 0.518333
C96   C     C_R   0.717852 0.231864 0.088900 0.575677
Cr1   Cr    Cr6+3 0.417550 0.169090 0.500530 1.079137
Cr2   Cr    Cr6+3 0.669180 0.913420 0.499920 1.077004
Cr3   Cr    Cr6+3 0.413260 0.917540 0.499520 1.139999
Cr4   Cr    Cr6+3 0.909170 0.177380 0.020380 1.128634
Cr5   Cr    Cr6+3 0.912710 0.429210 0.018220 1.117652
Cr6   Cr    Cr6+3 0.657170 0.432570 0.019030 1.105684
H1    H     H_    0.319207 0.198063 0.802604 0.125491
H2    H     H_    0.454637 0.217783 0.738644 0.153325
H3    H     H_    0.835082 0.517258 0.718976 0.147166
H4    H     H_    0.759181 0.778800 0.376381 0.141074
H5    H     H_    0.610295 0.509485 0.153282 0.131412
H6    H     H_    0.534924 0.500823 0.228536 0.139140
H7    H     H_    0.224098 0.906917 0.210193 0.212677
H8    H     H_    0.654267 0.855991 0.736432 0.160596
H9    H     H_    0.122414 0.445965 0.225805 0.195643
H10   H     H_    0.461616 0.272705 0.377518 0.166242
H11   H     H_    0.384062 0.392366 0.215696 0.156421
H12   H     H_    0.373666 0.367712 0.302156 0.204708
H13   H     H_    0.496976 0.833368 0.798203 0.136262
H14   H     H_    0.943713 0.978871 0.220581 0.231907
H15   H     H_    0.935805 0.973236 0.308562 0.151013
H16   H     H_    0.820710 0.019472 0.382116 0.145423
H17   H     H_    0.676385 0.495035 0.781355 0.151226
H18   H     H_    0.041848 0.117117 0.720953 0.203871
H19   H     H_    0.375307 0.004293 0.741702 0.113101
O1    O     O_R   0.301710 0.195650 0.554160 -0.487866
O2    O     O_R   0.658900 0.818120 0.449760 -0.514617
O3    O     O_R   0.503220 0.801620 0.445520 -0.455257
O4    O     O_R   0.319370 0.022040 0.450020 -0.445254
O5    O     O_3   0.499990 0.000010 0.499990 -0.287992
O6    O     O_R   0.818720 0.150820 0.967160 -0.469735
O7    O     O_R   0.006410 0.181720 0.970200 -0.487756
O8    O     O_R   0.027890 0.334070 0.964920 -0.477447
O9    O     O_R   0.809600 0.521790 0.967960 -0.475466
O10   O     O_R   0.635520 0.542770 0.964420 -0.492011
O11   O     O_R   0.665950 0.325030 0.970100 -0.483584
O12   O     O_R   0.522390 0.158990 0.550460 -0.488429
O13   O     O_R   0.816620 0.158530 0.074540 -0.445741
O14   O     O_R   0.004460 0.188870 0.069750 -0.510855
O15   O     O_R   0.025800 0.341780 0.072300 -0.432633
O16   O     O_R   0.807650 0.528950 0.067500 -0.510534
O17   O     O_R   0.633420 0.550490 0.071810 -0.507118
O18   O     O_R   0.664000 0.332180 0.069640 -0.483787
O19   O     O_3   0.826350 0.346390 0.019210 -0.291885
O20   O     O_R   0.694390 0.003530 0.554040 -0.483103
O21   O     O_R   0.657700 0.819660 0.549320 -0.493736
O22   O     O_R   0.501930 0.803280 0.552920 -0.475474
O23   O     O_R   0.318170 0.023580 0.549580 -0.485176
O24   O     O_R   0.303010 0.193990 0.446760 -0.538651
O25   O     O_R   0.523600 0.157450 0.450900 -0.493939
O26   O     O_R   0.695690 0.001860 0.446640 -0.513398
C97   C     C_2   0.866789 0.673107 0.790157 0.355273
H20   H     H_    0.923464 0.676252 0.763141 0.154807
O27   O     O_2   0.890813 0.668155 0.833239 -0.407358
C98   C     C_2   0.147630 0.370466 0.730968 0.256937
H21   H     H_    0.125851 0.437394 0.757814 0.152753
O28   O     O_2   0.156987 0.388545 0.688276 -0.468794
C99   C     C_2   0.957276 0.331848 0.785841 0.226988
H22   H     H_    0.883692 0.333718 0.769135 0.160420
O29   O     O_2   0.943521 0.405690 0.815203 -0.513049
Cl1   Cl    Cl    0.474782 0.422776 0.792839 -0.515370
C100  C     C_2   0.704148 0.321363 0.712581 0.244203
H23   H     H_    0.641138 0.411317 0.709521 0.171073
O30   O     O_2   0.795784 0.283134 0.691653 -0.499467
C101  C     C_2   0.594305 0.021538 0.810649 0.245279
H24   H     H_    0.513910 0.024639 0.803324 0.075261
O31   O     O_2   0.661792 0.952039 0.839508 -0.431361
Cl2   Cl    Cl    0.826445 0.922641 0.731254 -0.533133
Cl3   Cl    Cl    0.895029 0.110348 0.794324 -0.549294
C102  C     C_2   0.770527 0.736734 0.126519 0.243150
H25   H     H_    0.804083 0.709966 0.090069 0.147764
O32   O     O_2   0.742697 0.833656 0.139599 -0.426248
C103  C     C_2   0.928230 0.697552 0.204963 0.351467
H26   H     H_    0.973910 0.632165 0.177570 0.136208
O33   O     O_2   0.951267 0.773433 0.210067 -0.399368
C104  C     C_2   0.885630 0.771471 0.307801 0.310177
H27   H     H_    0.839400 0.848593 0.329387 0.065797
O34   O     O_2   0.989392 0.727076 0.304541 -0.371510
Cl4   Cl    Cl    0.463539 0.535892 0.323186 -0.472483
Cl5   Cl    Cl    0.566482 0.571372 0.412423 -0.452443
C105  C     C_2   0.147198 0.009100 0.126817 0.261953
H28   H     H_    0.184057 0.995435 0.090657 0.126166
O35   O     O_2   0.107367 0.950321 0.140111 -0.442686
C106  C     C_2   0.156545 0.989380 0.389473 0.247740
H29   H     H_    0.135359 0.932952 0.369694 0.129248
O36   O     O_2   0.141185 0.997170 0.433417 -0.459328
C107  C     C_2   0.280163 0.851477 0.301394 0.226582
H30   H     H_    0.328718 0.832909 0.334966 0.137677
O37   O     O_2   0.278527 0.773135 0.279781 -0.416339
Cl6   Cl    Cl    0.147908 0.395425 0.134091 -0.571298
Cl7   Cl    Cl    0.144911 0.475192 0.322748 -0.502564
C108  C     C_2   0.084535 0.359357 0.400454 0.326235
H31   H     H_    0.110117 0.359043 0.437886 0.139572
O38   O     O_2   0.994514 0.440732 0.386679 -0.439418
C109  C     C_2   0.479918 0.372506 0.131065 0.272498
H32   H     H_    0.426356 0.456158 0.147266 0.115366
O39   O     O_2   0.457050 0.353825 0.090226 -0.425043
Cl8   Cl    Cl    0.865198 0.978972 0.131104 -0.407449
Cl9   Cl    Cl    0.447684 0.676164 0.722426 -0.537549
C110  C     C_2   0.213918 0.943791 0.793497 0.313799
H33   H     H_    0.232637 0.877709 0.766618 0.180728
O40   O     O_2   0.207820 0.925020 0.836419 -0.433997

loop_
_geom_bond_atom_site_label_1
_geom_bond_atom_site_label_2
_ccdc_geom_bond_type
C66   C68   A    
C61   C105  S    
Cr4   O6    S    
C34   O25   A    
C41   C42   A    
C83   C87   A    
Cr1   O12   S    
C74   C83   A    
C43   C44   A    
C2    C12   S    
C96   O18   A    
C93   O6    A    
C101  H24   S    
C7    C8    S    
Cr3   O4    S    
C20   H1    S    
C85   C86   A    
C45   O2    A    
C11   C19   S    
Cr1   O1    S    
C25   C32   S    
Cr6   O11   S    
Cr3   O22   S    
C19   C21   S    
C97   O27   D    
C73   C90   A    
C107  O37   D    
Cr6   O17   S    
C5    C6    S    
C86   C88   A    
C43   C102  S    
Cr2   O26   S    
C7    H13   S    
C65   C70   A    
C17   C20   S    
C26   Cl1   S    
C108  O38   D    
C18   C19   S    
C73   C74   A    
C29   Cl3   S    
C56   O24   A    
C69   C71   A    
C55   C106  S    
C53   H5    S    
C39   C42   A    
Cr4   O19   S    
C59   H7    S    
C46   C47   A    
C44   C53   A    
C100  O30   D    
C40   C43   A    
C31   C32   S    
Cr4   O13   S    
C16   C17   S    
C56   C72   S    
C13   C110  S    
C1    C28   S    
C94   O15   A    
C98   H21   S    
C31   C33   S    
C80   C96   S    
C93   O11   A    
C99   O29   D    
C55   C72   A    
Cr4   O14   S    
C78   C97   S    
C5    Cl9   S    
Cr5   O9    S    
C60   C107  S    
C15   C23   S    
C59   C60   A    
C79   C109  S    
C66   Cl7   S    
Cr2   O21   S    
C8    C78   S    
C103  O33   D    
C46   C54   A    
C61   C62   A    
C67   C78   S    
C4    C7    S    
C1    O12   A    
C11   H18   S    
C101  O31   D    
Cr5   O19   S    
C104  O34   D    
C50   C51   A    
C23   O1    A    
C76   C77   A    
C45   O3    A    
C25   C29   S    
Cr2   O2    S    
C3    C67   S    
C95   O16   A    
C91   O7    A    
C63   C64   A    
C109  H32   S    
C103  H26   S    
C88   Cl8   S    
Cr3   O5    S    
Cr1   O5    S    
C102  O32   D    
C38   C39   A    
C84   C85   A    
C110  O40   D    
C35   H2    S    
C9    C89   T    
C5    C7    S    
Cr5   O16   S    
C86   C87   A    
C68   C69   A    
C57   C60   A    
C6    C8    S    
C105  O35   D    
C58   C59   A    
C40   C52   A    
C41   C103  S    
C81   H16   S    
C74   C77   A    
C81   C82   A    
C3    C4    S    
C51   C52   A    
C108  H31   S    
C51   C53   A    
C68   H9    S    
C64   C66   A    
C38   H4    S    
C33   C101  S    
C75   C76   A    
C109  O39   D    
C107  H30   S    
C4    C78   S    
C29   C30   S    
C8    H8    S    
C34   O26   A    
Cr3   O23   S    
C47   C48   A    
C38   C54   A    
C48   C52   A    
C92   O10   A    
C94   O14   A    
C13   C21   S    
C55   C57   A    
Cr6   O19   S    
C32   C37   S    
Cr6   O10   S    
C89   C92   S    
C99   H22   S    
C3    H17   S    
C105  H28   S    
C81   C90   A    
C75   C87   A    
C40   C41   A    
C45   C54   S    
C82   C83   A    
C82   C84   A    
C62   C94   S    
Cr2   O20   S    
C16   C99   S    
C100  H23   S    
C49   C50   A    
C46   Cl5   S    
C23   O23   A    
C27   C93   S    
C71   Cl6   S    
C18   C98   S    
C2    C10   T    
C34   C90   S    
C104  H27   S    
C73   H10   S    
Cr5   O15   S    
C31   Cl2   S    
C6    C67   S    
C95   O17   A    
C106  O36   D    
C30   C33   S    
C20   C21   S    
Cr4   O7    S    
Cr1   O24   S    
C50   H6    S    
C85   H14   S    
C58   C70   A    
C32   C35   S    
C42   C104  S    
C57   C65   A    
C110  H33   S    
C3    C5    S    
C16   C18   S    
C6    C10   S    
C96   O13   A    
C26   C30   S    
C80   C88   A    
C91   O8    A    
C30   C36   S    
C27   C36   T    
C47   C49   A    
C17   C22   S    
C12   O22   A    
C13   C17   S    
C64   C65   A    
C14   C22   T    
C76   H11   S    
C19   C24   S    
C25   C26   S    
C29   C31   S    
C44   C95   S    
C15   C24   T    
C11   C13   S    
C102  H25   S    
C28   C37   T    
C58   C61   A    
C33   C35   S    
C12   O21   A    
C62   C71   A    
C18   C20   S    
Cr6   O18   S    
C98   O28   D    
C21   H19   S    
C69   C70   A    
C14   C91   S    
C11   C16   S    
C1    O20   A    
C84   H15   S    
C79   C80   A    
Cr1   O25   S    
C26   C35   S    
Cr2   O5    S    
C67   H3    S    
C63   C72   A    
C56   O4    A    
C63   C108  S    
C25   C100  S    
C92   O9    A    
C39   C48   A    
C4    C9    S    
C75   C79   A    
C97   H20   S    
C106  H29   S    
C77   H12   S    
Cr3   O3    S    
C49   Cl4   S    
Cr5   O8    S    
