data_mof_unit_52122.cif
_audit_creation_date              2012-10-26T19:40:40-0400
_audit_creation_method            fapswitch 2.2
_symmetry_space_group_name_H-M    P1
_symmetry_Int_Tables_number       1
_space_group_crystal_system       triclinic
_cell_length_a                    9.698896
_cell_length_b                    10.944221
_cell_length_c                    13.583089
_cell_angle_alpha                 92.194896
_cell_angle_beta                  73.195915
_cell_angle_gamma                 91.098685
_cell_volume                      1379.17359587

loop_
_atom_site_label
_atom_site_type_symbol
_atom_type_description
_atom_site_fract_x
_atom_site_fract_y
_atom_site_fract_z
_atom_type_partial_charge
C1    C     C_R   0.497968 0.733640 0.508262 0.570127
C2    C     C_R   0.387979 0.509252 0.811781 -0.004686
C3    C     C_2   0.590833 0.066708 0.524218 0.214972
C4    C     C_R   0.424681 0.496166 0.699254 0.515557
C5    C     C_2   0.500513 0.131432 0.486198 0.230808
C6    C     C_2   0.605653 0.934322 0.505089 -0.122092
C7    C     C_2   0.490102 0.862397 0.533964 -0.083898
C8    C     C_2   0.057487 0.578803 0.554887 0.381693
C9    C     C_2   0.910432 0.590313 0.536042 -0.050016
C10   C     C_R   0.499576 0.264779 0.497606 0.574173
C11   C     C_R   0.576769 0.500102 0.300088 0.572835
C12   C     C_R   0.464716 0.528134 0.968184 0.054121
C13   C     C_R   0.799062 0.433146 0.026655 0.270697
C14   C     C_R   0.621397 0.495073 0.186056 -0.057922
C15   C     C_R   0.263816 0.574948 0.862088 -0.103767
C16   C     C_R   0.246898 0.627619 0.959134 -0.141476
C17   C     C_R   0.347679 0.606925 0.011023 -0.091608
C18   C     C_3   0.910937 0.608763 0.185855 0.028016
C19   C     C_3   0.028174 0.619838 0.240076 -0.253555
C20   C     C_3   0.070085 0.752943 0.254717 -0.461530
C21   C     C_3   0.985863 0.698771 0.708594 -0.012155
C22   C     C_3   0.960977 0.835936 0.704818 -0.256967
C23   C     C_R   0.489637 0.482895 0.865768 0.011286
C24   C     C_3   0.853284 0.883374 0.804145 -0.498724
C25   C     C_3   0.915813 0.250010 0.979437 0.001658
C26   C     C_3   0.878138 0.196553 0.087281 -0.250615
C27   C     C_3   0.883675 0.057030 0.080989 -0.485962
C28   C     C_3   0.333299 0.364206 0.198330 0.036936
C29   C     C_3   0.280843 0.306658 0.110804 -0.289412
C30   C     C_3   0.234241 0.174006 0.132488 -0.468168
C31   C     C_3   0.662043 0.080835 0.673081 -0.000567
C32   C     C_3   0.511273 0.107204 0.746719 -0.280551
C33   C     C_3   0.504937 0.084178 0.858011 -0.482907
C34   C     C_R   0.560684 0.497145 0.024212 -0.021906
C35   C     C_R   0.696881 0.447755 0.972286 -0.045857
C36   C     C_R   0.724268 0.408942 0.869368 -0.152551
C37   C     C_R   0.617370 0.416099 0.820398 -0.146359
C38   C     C_R   0.517043 0.499138 0.132128 0.188321
C39   C     C_R   0.766835 0.476142 0.129298 0.211064
Cu1   Cu    Cu3+1 0.361370 0.499980 0.499980 1.040468
Cu2   Cu    Cu3+1 0.638630 0.500020 0.500020 0.951644
H1    H     H_    0.711918 0.897159 0.468113 0.135581
H2    H     H_    0.639122 0.369337 0.746336 0.165982
H3    H     H_    0.816046 0.662198 0.232098 0.143175
H4    H     H_    0.950105 0.649321 0.108890 0.119657
H5    H     H_    0.989767 0.577878 0.316222 0.190640
H6    H     H_    0.123592 0.568551 0.194081 0.209128
H7    H     H_    0.109639 0.796845 0.179181 0.135695
H8    H     H_    0.157216 0.756845 0.292814 0.204288
H9    H     H_    0.976004 0.804325 0.303982 0.154740
H10   H     H_    0.232792 0.188347 0.387186 0.353034
H11   H     H_    0.018543 0.684083 0.778571 0.141157
H12   H     H_    0.386643 0.899231 0.577458 0.147996
H13   H     H_    0.883484 0.645807 0.720464 0.118526
H14   H     H_    0.064885 0.885841 0.694443 0.197508
H15   H     H_    0.920316 0.854635 0.638454 0.162484
H16   H     H_    0.746491 0.838892 0.813818 0.149894
H17   H     H_    0.841635 0.983729 0.801436 0.134389
H18   H     H_    0.891589 0.864512 0.871600 0.144337
H19   H     H_    0.020545 0.211703 0.932609 0.151455
H20   H     H_    0.834409 0.218546 0.940575 0.107456
H21   H     H_    0.954050 0.232960 0.128681 0.201114
H22   H     H_    0.767421 0.223589 0.132428 0.168635
H23   H     H_    0.126182 0.449422 0.444438 0.154608
H24   H     H_    0.802553 0.019624 0.044265 0.154196
H25   H     H_    0.859272 0.021399 0.159708 0.168399
H26   H     H_    0.992205 0.025155 0.035539 0.130837
H27   H     H_    0.243425 0.359804 0.270497 0.164812
H28   H     H_    0.423017 0.308497 0.208495 0.181677
H29   H     H_    0.189066 0.359699 0.101582 0.208131
H30   H     H_    0.368952 0.306752 0.037597 0.167005
H31   H     H_    0.326249 0.119198 0.139014 0.197934
H32   H     H_    0.197197 0.134167 0.068171 0.132198
H33   H     H_    0.144751 0.168664 0.204941 0.168951
H34   H     H_    0.852761 0.675461 0.558063 0.141966
H35   H     H_    0.743281 0.127632 0.704864 0.154464
H36   H     H_    0.685824 0.981428 0.668956 0.130398
H37   H     H_    0.481933 0.203600 0.740706 0.167787
H38   H     H_    0.430179 0.047342 0.725006 0.142899
H39   H     H_    0.530533 0.987296 0.866144 0.149402
H40   H     H_    0.394793 0.103434 0.908481 0.148969
H41   H     H_    0.582247 0.144961 0.883238 0.147283
H42   H     H_    0.897040 0.418041 0.488363 0.214877
H43   H     H_    0.825695 0.367455 0.827406 0.144589
H44   H     H_    0.187004 0.595974 0.822094 0.142122
H45   H     H_    0.335852 0.655976 0.083565 0.162152
H46   H     H_    0.159063 0.689630 0.991953 0.100612
N1    N     N_2   0.152660 0.501340 0.501130 -0.316456
N2    N     N_2   0.846520 0.501370 0.501160 -0.386143
O1    O     O_R   0.382960 0.678040 0.499980 -0.421856
O2    O     O_2   0.464560 0.965089 0.341782 -0.282473
O3    O     O_2   0.253803 0.009917 0.488675 -0.335938
O4    O     O_3   0.333818 0.169377 0.348426 -0.563492
O5    O     O_3   0.100450 0.660034 0.622257 -0.519279
O6    O     O_3   0.931577 0.379461 0.981318 -0.550333
O7    O     O_3   0.371421 0.489329 0.183064 -0.581153
O8    O     O_3   0.679739 0.127730 0.574406 -0.567256
O9    O     O_R   0.617100 0.678080 0.500020 -0.529463
O10   O     O_R   0.325800 0.499940 0.650950 -0.473535
O11   O     O_R   0.559930 0.499980 0.650990 -0.514175
O12   O     O_R   0.382900 0.321920 0.499980 -0.492149
O13   O     O_R   0.617040 0.321960 0.500020 -0.467401
O14   O     O_R   0.440070 0.500020 0.349010 -0.461644
O15   O     O_R   0.674200 0.500060 0.349050 -0.468253
O16   O     O_3   0.875957 0.483742 0.175833 -0.536909
S1    S     S_3+6 0.386445 0.063806 0.415803 -0.036357

loop_
_geom_bond_atom_site_label_1
_geom_bond_atom_site_label_2
_ccdc_geom_bond_type
C8    C9    S    
Cu2   N2    S    
C1    O1    A    
C19   C20   S    
C3    C6    S    
Cu1   O10   S    
C19   H5    S    
C12   C23   A    
C26   C27   S    
C29   C30   S    
C13   O6    S    
C28   C29   S    
C28   H27   S    
C13   C35   A    
C21   H13   S    
C30   H33   S    
C11   C14   S    
C19   H6    S    
C21   O5    S    
C15   C16   A    
Cu2   O13   S    
C34   C35   A    
C20   H9    S    
Cu1   O12   S    
C28   H28   S    
C16   C17   A    
C12   C17   A    
C16   H46   S    
C11   O15   A    
C25   H19   S    
C33   H41   S    
C15   H44   S    
C14   C39   A    
C34   C38   A    
C21   C22   S    
O2    S1    D    
C31   H36   S    
C5    S1    S    
H42   N2    S    
C17   H45   S    
C10   O13   A    
C8    O5    S    
C32   H38   S    
C9    N2    D    
C30   H32   S    
C18   C19   S    
C22   H15   S    
C25   C26   S    
C23   C37   A    
C8    N1    D    
C35   C36   A    
C37   H2    S    
C2    C4    S    
C26   H22   S    
C20   H8    S    
C27   H24   S    
C18   H3    S    
O4    S1    S    
C14   C38   A    
C3    O8    S    
C31   C32   S    
Cu2   O11   S    
C25   H20   S    
C2    C15   A    
C6    C7    D    
H10   O4    S    
O3    S1    D    
Cu1   Cu2   S    
C25   O6    S    
C4    O11   A    
C22   C24   S    
C7    H12   S    
C12   C34   A    
C18   H4    S    
C29   H29   S    
C24   H16   S    
C39   O16   S    
C36   C37   A    
C20   H7    S    
C1    C7    S    
C10   O12   A    
C3    C5    D    
C1    O9    A    
C30   H31   S    
C33   H39   S    
C22   H14   S    
Cu2   O15   S    
C28   O7    S    
C32   C33   S    
Cu1   N1    S    
C26   H21   S    
C18   O16   S    
C5    C10   S    
C27   H25   S    
Cu1   O14   S    
C31   H35   S    
C36   H43   S    
C24   H18   S    
C31   O8    S    
C13   C39   A    
C27   H26   S    
C32   H37   S    
C24   H17   S    
C6    H1    S    
C4    O10   A    
C38   O7    S    
C2    C23   A    
Cu2   O9    S    
C11   O14   A    
C9    H34   S    
Cu1   O1    S    
C33   H40   S    
H23   N1    S    
C21   H11   S    
C29   H30   S    
