data_mof_unit_39886.cif
_audit_creation_date              2012-12-10T16:42:59-0500
_audit_creation_method            fapswitch 2.2
_symmetry_space_group_name_H-M    P1
_symmetry_Int_Tables_number       1
_space_group_crystal_system       triclinic
_cell_length_a                    7.51173
_cell_length_b                    8.67998
_cell_length_c                    13.007836
_cell_angle_alpha                 87.173475
_cell_angle_beta                  78.801274
_cell_angle_gamma                 103.105148
_cell_volume                      806.438217718

loop_
_atom_site_label
_atom_site_type_symbol
_atom_type_description
_atom_site_fract_x
_atom_site_fract_y
_atom_site_fract_z
_atom_type_partial_charge
C1    C     C_R   0.452507 0.199694 0.503355 0.871644
C2    C     C_R   0.547493 0.800306 0.496645 0.871643
C3    C     C_R   0.465931 0.495653 0.701305 0.921574
C4    C     C_R   0.534068 0.504347 0.298695 0.921574
C5    C     C_R   0.553904 0.510809 0.184792 -0.419071
C6    C     C_R   0.446096 0.489191 0.815208 -0.419071
C7    C     C_R   0.254066 0.411560 0.990229 0.725791
C8    C     C_R   0.745934 0.588440 0.009771 0.725791
C9    C     C_R   0.271336 0.422714 0.881982 0.499293
C10   C     C_R   0.728664 0.577285 0.118018 0.499293
C11   C     C_R   0.603591 0.546653 0.857678 0.651365
C12   C     C_R   0.396409 0.453346 0.142322 0.651365
C13   C     C_R   0.588247 0.534178 0.966506 -0.361588
C14   C     C_R   0.411753 0.465822 0.033494 -0.361588
C15   C     C_2   0.426225 0.031417 0.505094 -0.300764
C16   C     C_2   0.573775 0.968583 0.494906 -0.300764
Cu1   Cu    Cu3+1 0.686350 0.517570 0.488220 1.042474
Cu2   Cu    Cu3+1 0.313650 0.482430 0.511780 1.042474
H1    H     H_    0.284385 0.958961 0.514809 0.182431
H2    H     H_    0.715615 0.041038 0.485191 0.182431
N1    N     N_2   0.033570 0.455950 0.529530 -0.228412
N2    N     N_2   0.966430 0.544050 0.470470 -0.228412
O1    O     O_R   0.621060 0.286250 0.492350 -0.613578
O2    O     O_R   0.378940 0.713750 0.507650 -0.613578
O3    O     O_R   0.306310 0.256580 0.512240 -0.593941
O4    O     O_R   0.693690 0.743420 0.487760 -0.593941
O5    O     O_R   0.631800 0.512400 0.642670 -0.562775
O6    O     O_R   0.368200 0.487600 0.357330 -0.562775
O7    O     O_R   0.317060 0.482730 0.662570 -0.529677
O8    O     O_R   0.682940 0.517270 0.337430 -0.529676
F1    F     F_    0.228963 0.383244 0.206981 -0.562218
F2    F     F_    0.771037 0.616756 0.793019 -0.562218
F3    F     F_    0.883129 0.635062 0.157067 -0.566500
F4    F     F_    0.116871 0.364938 0.842933 -0.566500
F5    F     F_    0.082543 0.346646 0.051926 -0.530576
F6    F     F_    0.917457 0.653354 0.948074 -0.530576
C17   C     C_1   0.908613 0.343411 0.604483 0.650428
N3    N     N_1   0.806191 0.248828 0.667529 -0.275901
C18   C     C_1   0.091387 0.656589 0.395517 0.650428
N4    N     N_1   0.193809 0.751172 0.332471 -0.275900

loop_
_geom_bond_atom_site_label_1
_geom_bond_atom_site_label_2
_ccdc_geom_bond_type
C1    O3    A    
C8    C13   A    
C1    C15   S    
Cu2   N1    S    
C2    C16   S    
Cu1   N2    S    
C16   H2    S    
C3    C6    S    
C6    C9    A    
C3    O5    A    
Cu1   Cu2   S    
N1    C17   S    
C5    C10   A    
C2    O4    A    
Cu2   O7    S    
C13   C14   A    
C15   H1    S    
Cu1   O8    S    
C11   C13   A    
C3    O7    A    
Cu1   O1    S    
Cu2   O3    S    
Cu2   O2    S    
Cu1   O4    S    
C4    O6    A    
C17   N3    T    
C12   C14   A    
C11   F2    S    
C1    O1    A    
C10   F3    S    
C12   F1    S    
C2    O2    A    
C9    F4    S    
N2    C18   S    
C15   C16   D    
Cu1   O5    S    
C18   N4    T    
Cu2   O6    S    
C5    C12   A    
C8    C10   A    
C8    F6    S    
C6    C11   A    
C7    C9    A    
N1    N2    D    
C7    F5    S    
C7    C14   A    
C4    O8    A    
C4    C5    S    
