data_mof_unit_38642.cif
_audit_creation_date              2012-10-26T20:12:46-0400
_audit_creation_method            fapswitch 2.2
_symmetry_space_group_name_H-M    P1
_symmetry_Int_Tables_number       1
_space_group_crystal_system       triclinic
_cell_length_a                    15.1272
_cell_length_b                    13.870278
_cell_length_c                    10.790573
_cell_angle_alpha                 89.980097
_cell_angle_beta                  90.148317
_cell_angle_gamma                 89.939335
_cell_volume                      2264.05251687

loop_
_atom_site_label
_atom_site_type_symbol
_atom_type_description
_atom_site_fract_x
_atom_site_fract_y
_atom_site_fract_z
_atom_type_partial_charge
C1    C     C_R   0.329895 0.500048 0.499689 0.525487
C2    C     C_R   0.432992 0.790720 0.443766 0.047844
C3    C     C_R   0.457778 0.209494 0.407866 0.047322
C4    C     C_R   0.566999 0.790536 0.556262 0.047474
C5    C     C_R   0.499980 0.054711 0.499991 0.024775
C6    C     C_R   0.499995 0.945330 0.499989 0.025836
C7    C     C_R   0.500022 0.500005 0.262825 0.532057
C8    C     C_R   0.499990 0.499983 0.737189 0.530829
C9    C     C_R   0.658521 0.543253 0.129595 -0.093737
C10   C     C_R   0.341456 0.456855 0.870500 -0.094723
C11   C     C_R   0.658560 0.542970 0.871485 -0.102278
C12   C     C_R   0.670104 0.499966 0.499904 0.525312
C13   C     C_R   0.341616 0.456376 0.128608 -0.104262
C14   C     C_R   0.735950 0.563946 0.065212 -0.121256
C15   C     C_R   0.264093 0.435906 0.934928 -0.120487
C16   C     C_R   0.735974 0.563778 0.936405 -0.123323
C17   C     C_R   0.264186 0.435608 0.063734 -0.124562
C18   C     C_R   0.578947 0.522086 0.935005 0.005600
C19   C     C_R   0.421134 0.477637 0.065053 0.005363
C20   C     C_R   0.578940 0.522181 0.065546 0.008690
C21   C     C_R   0.421085 0.477757 0.934511 0.007329
C22   C     C_R   0.500003 0.499945 0.870939 -0.016881
C23   C     C_R   0.048546 0.500149 0.497868 0.032739
C24   C     C_R   0.500029 0.499978 0.129099 -0.015919
C25   C     C_R   0.095058 0.582190 0.537080 -0.123385
C26   C     C_R   0.905129 0.417960 0.537407 -0.122405
C27   C     C_R   0.904524 0.581993 0.459134 -0.125601
C28   C     C_R   0.095276 0.418173 0.458896 -0.124660
C29   C     C_R   0.186933 0.582368 0.536914 -0.134383
C30   C     C_R   0.813248 0.417756 0.537386 -0.130327
C31   C     C_R   0.812655 0.582157 0.460445 -0.143315
C32   C     C_R   0.187156 0.417985 0.460060 -0.139105
C33   C     C_R   0.233434 0.500129 0.498922 0.008858
C34   C     C_R   0.951447 0.500004 0.498009 0.032831
C35   C     C_R   0.766563 0.499959 0.499301 0.009014
C36   C     C_R   0.542399 0.107883 0.594411 -0.141616
C37   C     C_R   0.431368 0.892166 0.443510 -0.140930
C38   C     C_R   0.457539 0.108047 0.405593 -0.141463
C39   C     C_R   0.568623 0.891981 0.556492 -0.140630
C40   C     C_R   0.542171 0.209326 0.592153 0.047195
Cu1   Cu    Cu3+1 0.500000 0.596430 0.500000 0.926527
Cu2   Cu    Cu3+1 0.500000 0.403570 0.500000 0.925477
H1    H     H_    0.203982 0.419585 0.113686 0.111915
H2    H     H_    0.939926 0.354441 0.569721 0.103550
H3    H     H_    0.938829 0.645548 0.426414 0.103430
H4    H     H_    0.060806 0.354641 0.426257 0.103812
H5    H     H_    0.221532 0.646283 0.568124 0.124898
H6    H     H_    0.778794 0.353844 0.568726 0.123359
H7    H     H_    0.777730 0.646040 0.429505 0.121344
H8    H     H_    0.221938 0.354117 0.429058 0.120075
H9    H     H_    0.574781 0.071907 0.671013 0.089621
H10   H     H_    0.375743 0.928154 0.400522 0.087228
H11   H     H_    0.425136 0.072198 0.329002 0.089690
H12   H     H_    0.796257 0.579511 0.886498 0.113121
H13   H     H_    0.624239 0.927821 0.599496 0.087151
H14   H     H_    0.575696 0.248533 0.664994 0.123597
H15   H     H_    0.380003 0.751590 0.399024 0.123852
H16   H     H_    0.424223 0.248839 0.335054 0.122434
H17   H     H_    0.619966 0.751263 0.601074 0.121721
H18   H     H_    0.203800 0.420146 0.884637 0.114973
H19   H     H_    0.796204 0.579826 0.115547 0.112871
H20   H     H_    0.661962 0.543526 0.229698 0.127358
H21   H     H_    0.337932 0.456900 0.770397 0.129708
H22   H     H_    0.662035 0.543012 0.771396 0.122434
H23   H     H_    0.338221 0.455996 0.228696 0.120821
H24   H     H_    0.060425 0.645718 0.569403 0.103333
N1    N     N_R   0.500000 0.258690 0.500000 -0.219445
N2    N     N_R   0.500000 0.741310 0.500000 -0.219228
O1    O     O_R   0.371460 0.581430 0.500010 -0.511681
O2    O     O_R   0.628540 0.418570 0.499990 -0.500137
O3    O     O_R   0.628540 0.581430 0.499990 -0.521475
O4    O     O_R   0.371460 0.418570 0.500010 -0.510118
O5    O     O_R   0.499990 0.581440 0.319660 -0.497432
O6    O     O_R   0.500010 0.418560 0.680340 -0.509637
O7    O     O_R   0.500010 0.581440 0.680340 -0.496300
O8    O     O_R   0.499990 0.418560 0.319660 -0.508151

loop_
_geom_bond_atom_site_label_1
_geom_bond_atom_site_label_2
_ccdc_geom_bond_type
C11   C18   A    
Cu1   Cu2   S    
C10   H21   S    
C2    H15   S    
C26   H2    S    
C7    O5    A    
C13   H23   S    
C28   H4    S    
C30   C35   A    
C29   H5    S    
C30   H6    S    
C19   C21   A    
C2    N2    A    
C10   C15   A    
C5    C6    S    
C7    C24   S    
C5    C36   A    
C29   C33   A    
Cu2   O2    S    
C15   H18   S    
C31   C35   A    
C26   C34   A    
C39   H13   S    
C20   C24   A    
C3    C38   A    
C40   H14   S    
C40   N1    A    
C8    C22   S    
Cu1   O3    S    
C27   H3    S    
C27   C34   A    
C21   C22   A    
C31   H7    S    
Cu2   O4    S    
Cu1   N2    S    
C10   C21   A    
C25   C29   A    
Cu2   O6    S    
C1    O4    A    
C13   C19   A    
C27   C31   A    
C9    H20   S    
C28   C32   A    
C11   H22   S    
C4    N2    A    
C37   H10   S    
C14   H19   S    
C8    O7    A    
C1    O1    A    
C9    C14   A    
C17   H1    S    
Cu1   O7    S    
C11   C16   A    
C9    C20   A    
C4    C39   A    
C36   C40   A    
C23   C34   S    
C8    O6    A    
C6    C37   A    
C23   C28   A    
C12   C35   S    
C32   H8    S    
C36   H9    S    
C12   O3    A    
C26   C30   A    
Cu2   N1    S    
C14   C16   A    
Cu1   O1    S    
C15   C17   A    
C12   O2    A    
C18   C22   A    
C3    N1    A    
C25   H24   S    
C7    O8    A    
Cu2   O8    S    
C13   C17   A    
C32   C33   A    
C19   C24   A    
C2    C37   A    
C38   H11   S    
C4    H17   S    
C18   C20   A    
C23   C25   A    
C16   H12   S    
C1    C33   S    
Cu1   O5    S    
C3    H16   S    
C6    C39   A    
C5    C38   A    
