data_mof_unit_58300.cif
_audit_creation_date              2012-12-11T15:26:02-0500
_audit_creation_method            fapswitch 2.2
_symmetry_space_group_name_H-M    P1
_symmetry_Int_Tables_number       1
_space_group_crystal_system       triclinic
_cell_length_a                    24.738837
_cell_length_b                    17.14306
_cell_length_c                    15.685299
_cell_angle_alpha                 89.515711
_cell_angle_beta                  49.735902
_cell_angle_gamma                 89.294692
_cell_volume                      5075.67468301

loop_
_atom_site_label
_atom_site_type_symbol
_atom_type_description
_atom_site_fract_x
_atom_site_fract_y
_atom_site_fract_z
_atom_type_partial_charge
C1    C     C_R   0.332710 0.109074 0.802113 -0.114156
C2    C     C_2   0.357112 0.735838 0.841820 -0.262064
C3    C     C_3   0.121806 0.949178 0.140804 -0.747965
C4    C     C_3   0.792990 0.201108 0.769494 -0.447716
C5    C     C_3   0.770781 0.127048 0.743722 -0.253001
C6    C     C_3   0.705625 0.143546 0.754679 -0.798174
C7    C     C_3   0.305743 0.566093 0.948343 -0.424592
C8    C     C_3   0.361669 0.524387 0.836598 -0.288000
C9    C     C_3   0.395901 0.456532 0.850655 -0.789559
C10   C     C_3   0.205079 0.196820 0.234625 -0.438623
C11   C     C_3   0.222451 0.119321 0.262391 -0.282184
C12   C     C_3   0.249288 0.133751 0.325329 -0.808371
C13   C     C_2   0.303332 0.155616 0.981193 -0.267167
C14   C     C_3   0.701236 0.566483 0.047583 -0.407083
C15   C     C_3   0.654049 0.517901 0.155064 -0.322273
C16   C     C_3   0.621800 0.449187 0.140783 -0.747980
C17   C     C_2   0.644810 0.736982 0.156898 -0.260075
C18   C     C_2   0.198696 0.648113 0.013690 -0.236843
C19   C     C_2   0.857104 0.235850 0.841850 -0.262091
C20   C     C_2   0.803332 0.655616 0.981194 -0.267168
C21   C     C_2   0.144810 0.236982 0.156898 -0.260063
C22   C     C_2   0.769454 0.133241 0.937966 0.138449
C23   C     C_2   0.312759 0.688273 0.842846 0.155904
C24   C     C_2   0.234289 0.135447 0.059232 0.143114
C25   C     C_R   0.650602 0.858408 0.242811 -0.135585
C26   C     C_2   0.688720 0.688086 0.156609 0.152602
C27   C     C_2   0.269447 0.633246 0.937968 0.138404
C28   C     C_2   0.812765 0.188276 0.842855 0.155903
C29   C     C_2   0.734288 0.635447 0.059232 0.143121
C30   C     C_2   0.188720 0.188085 0.156609 0.152594
C31   C     C_R   0.593217 0.135329 0.596864 -0.131987
C32   C     C_R   0.386556 0.897785 0.407569 -0.183330
C33   C     C_R   0.415753 0.144077 0.404450 -0.130765
C34   C     C_R   0.613624 0.892740 0.591273 -0.142784
C35   C     C_R   0.093220 0.635326 0.596864 -0.132003
C36   C     C_R   0.668445 0.101928 0.194064 -0.082961
C37   C     C_R   0.886557 0.397782 0.407569 -0.183329
C38   C     C_R   0.915750 0.644077 0.404451 -0.130758
C39   C     C_R   0.113625 0.392741 0.591273 -0.142785
C40   C     C_R   0.670831 0.137502 0.409984 0.269525
C41   C     C_R   0.310445 0.900203 0.592523 0.191943
C42   C     C_R   0.335060 0.144223 0.589943 0.209704
C43   C     C_R   0.690214 0.901617 0.406437 0.164713
C44   C     C_R   0.170834 0.637498 0.409983 0.269519
C45   C     C_R   0.810445 0.400200 0.592524 0.191958
C46   C     C_R   0.835059 0.644222 0.589945 0.209695
C47   C     C_R   0.350028 0.859043 0.758062 -0.137866
C48   C     C_R   0.190213 0.401617 0.406437 0.164709
C49   C     C_R   0.579228 0.104639 0.194382 -0.113398
C50   C     C_R   0.441149 0.855308 0.755135 -0.120892
C51   C     C_R   0.422195 0.108463 0.802420 -0.130475
C52   C     C_R   0.559499 0.855831 0.244935 -0.117875
C53   C     C_R   0.079226 0.604643 0.194385 -0.113405
C54   C     C_R   0.941146 0.355314 0.755147 -0.120886
C55   C     C_R   0.922196 0.608464 0.802419 -0.130479
C56   C     C_R   0.059499 0.355831 0.244935 -0.117880
C57   C     C_R   0.351351 0.127782 0.865218 0.122877
C58   C     C_R   0.832710 0.609073 0.802113 -0.114148
C59   C     C_R   0.618215 0.813018 0.215100 0.130629
C60   C     C_R   0.650638 0.119928 0.129647 0.113131
C61   C     C_R   0.382841 0.812761 0.785169 0.131386
C62   C     C_R   0.851351 0.627783 0.865218 0.122877
C63   C     C_R   0.118215 0.313018 0.215101 0.130624
C64   C     C_R   0.150635 0.619934 0.129652 0.113152
C65   C     C_R   0.882836 0.312769 0.785189 0.131381
C66   C     C_R   0.648900 0.173952 0.505808 -0.010157
C67   C     C_R   0.317758 0.885523 0.499962 0.071106
C68   C     C_R   0.365681 0.190398 0.493798 0.007562
C69   C     C_R   0.150602 0.358408 0.242812 -0.135590
C70   C     C_R   0.683805 0.880214 0.498409 0.049770
C71   C     C_R   0.148906 0.673946 0.505808 -0.010141
C72   C     C_R   0.817759 0.385518 0.499963 0.071088
C73   C     C_R   0.865679 0.690397 0.493800 0.007569
C74   C     C_R   0.183806 0.380216 0.498408 0.049772
C75   C     C_R   0.291061 0.309597 0.579144 -0.198748
C76   C     C_R   0.798933 0.816293 0.395022 -0.198945
C77   C     C_R   0.669337 0.306254 0.527291 -0.241665
C78   C     C_R   0.292533 0.755939 0.485174 -0.279418
C79   C     C_R   0.791056 0.809592 0.579154 -0.198742
C80   C     C_R   0.168445 0.601930 0.194064 -0.082955
C81   C     C_R   0.298926 0.316283 0.395023 -0.198957
C82   C     C_R   0.169337 0.806250 0.527293 -0.241669
C83   C     C_R   0.792527 0.255937 0.485179 -0.279378
C84   C     C_R   0.741102 0.854246 0.585430 0.251797
C85   C     C_R   0.353675 0.283916 0.384902 0.205938
C86   C     C_R   0.211549 0.860789 0.522995 0.268297
C87   C     C_R   0.750350 0.201645 0.490653 0.271375
C88   C     C_R   0.241109 0.354254 0.585419 0.251818
C89   C     C_R   0.853680 0.783926 0.384906 0.205934
C90   C     C_R   0.711551 0.360790 0.522993 0.268301
C91   C     C_R   0.850024 0.359046 0.758075 -0.137879
C92   C     C_R   0.250357 0.701644 0.490648 0.271366
C93   C     C_R   0.741197 0.851244 0.494911 0.066810
C94   C     C_R   0.341696 0.265877 0.483316 0.036586
C95   C     C_R   0.273308 0.834569 0.500705 0.020841
C96   C     C_R   0.689420 0.227836 0.510178 0.033251
C97   C     C_R   0.241197 0.351244 0.494907 0.066811
C98   C     C_R   0.841696 0.765878 0.483322 0.036581
C99   C     C_R   0.773307 0.334568 0.500706 0.020843
C100  C     C_R   0.189425 0.727832 0.510177 0.033243
C101  C     C_3   0.292957 0.701119 0.769521 -0.447865
C102  C     C_2   0.698701 0.148102 0.013682 -0.236790
C103  C     C_3   0.270719 0.627070 0.743778 -0.252621
C104  C     C_3   0.205573 0.643625 0.754686 -0.797926
C105  C     C_3   0.805755 0.066103 0.948353 -0.424563
C106  C     C_3   0.861690 0.024392 0.836617 -0.288154
C107  C     C_3   0.895983 0.956612 0.850670 -0.789440
C108  C     C_3   0.705079 0.696821 0.234624 -0.438621
C109  C     C_3   0.722451 0.619323 0.262391 -0.282194
C110  C     C_3   0.749289 0.633753 0.325326 -0.808383
C111  C     C_3   0.201236 0.066479 0.047592 -0.407046
C112  C     C_3   0.154082 0.017878 0.155059 -0.322294
H1    H     H_    0.279613 0.106183 0.832867 0.148216
H2    H     H_    0.409101 0.895581 0.321243 0.135504
H3    H     H_    0.446838 0.155177 0.317573 0.150061
H4    H     H_    0.589307 0.888217 0.677767 0.154155
H5    H     H_    0.067678 0.644799 0.683636 0.129649
H6    H     H_    0.909101 0.395579 0.321243 0.135502
H7    H     H_    0.946833 0.655175 0.317574 0.150056
H8    H     H_    0.089310 0.388220 0.677767 0.154148
H9    H     H_    0.550843 0.101650 0.163560 0.120983
H10   H     H_    0.477937 0.836768 0.766587 0.119526
H11   H     H_    0.450809 0.105792 0.832932 0.112393
H12   H     H_    0.699293 0.847206 0.226135 0.129552
H13   H     H_    0.522781 0.837938 0.233637 0.116779
H14   H     H_    0.050840 0.601656 0.163564 0.120979
H15   H     H_    0.977933 0.336777 0.766603 0.119523
H16   H     H_    0.950809 0.605793 0.832932 0.112387
H17   H     H_    0.022781 0.337938 0.233637 0.116778
H18   H     H_    0.287613 0.305121 0.651402 0.172505
H19   H     H_    0.802530 0.812574 0.323107 0.170095
H20   H     H_    0.621807 0.324703 0.542129 0.160777
H21   H     H_    0.339892 0.736881 0.470604 0.166470
H22   H     H_    0.787605 0.805111 0.651414 0.172507
H23   H     H_    0.721078 0.091110 0.162387 0.147752
H24   H     H_    0.302518 0.312560 0.323112 0.170091
H25   H     H_    0.121805 0.824697 0.542133 0.160774
H26   H     H_    0.839885 0.236877 0.470611 0.166464
H27   H     H_    0.369641 0.721284 0.894941 0.155377
H28   H     H_    0.675598 0.191898 0.994959 0.155748
H29   H     H_    0.634150 0.724869 0.101092 0.152296
H30   H     H_    0.324334 0.201442 0.999730 0.145372
H31   H     H_    0.869620 0.221306 0.894990 0.155384
H32   H     H_    0.175592 0.691913 0.994974 0.155752
H33   H     H_    0.134151 0.224869 0.101092 0.152287
H34   H     H_    0.301198 0.849244 0.776723 0.134812
H35   H     H_    0.824334 0.701439 0.999732 0.145368
H36   H     H_    0.158641 0.655139 0.843435 0.256037
H37   H     H_    0.214521 0.695178 0.703871 0.263386
H38   H     H_    0.194129 0.592768 0.725866 0.285727
H39   H     H_    0.315159 0.607233 0.657217 0.215444
H40   H     H_    0.257600 0.577780 0.800279 0.216044
H41   H     H_    0.247833 0.743009 0.814264 0.211090
H42   H     H_    0.338130 0.726913 0.687997 0.187564
H43   H     H_    0.922425 0.978139 0.882146 0.281794
H44   H     H_    0.855462 0.912907 0.910200 0.253216
H45   H     H_    0.779613 0.606182 0.832866 0.148210
H46   H     H_    0.936341 0.927753 0.768733 0.245187
H47   H     H_    0.836605 0.001188 0.803700 0.203385
H48   H     H_    0.903875 0.065817 0.774466 0.216952
H49   H     H_    0.831622 0.089114 0.980116 0.214892
H50   H     H_    0.766270 0.021504 0.007465 0.206367
H51   H     H_    0.796385 0.672115 0.275865 0.253120
H52   H     H_    0.707142 0.661312 0.407591 0.270576
H53   H     H_    0.765549 0.577523 0.338494 0.271756
H54   H     H_    0.674279 0.582624 0.314570 0.209909
H55   H     H_    0.764559 0.586922 0.184790 0.212118
H56   H     H_    0.199293 0.347206 0.226137 0.129556
H57   H     H_    0.751868 0.735136 0.193292 0.194958
H58   H     H_    0.659063 0.723300 0.315113 0.201618
H59   H     H_    0.088530 0.970455 0.120780 0.281235
H60   H     H_    0.164198 0.910145 0.072729 0.253608
H61   H     H_    0.088007 0.915082 0.219641 0.250225
H62   H     H_    0.186199 0.994771 0.176421 0.204594
H63   H     H_    0.110378 0.054635 0.225331 0.216556
H64   H     H_    0.169131 0.088634 0.025731 0.208457
H65   H     H_    0.242818 0.026331 0.980766 0.205746
H66   H     H_    0.658699 0.155021 0.843423 0.256114
H67   H     H_    0.221079 0.591110 0.162382 0.147755
H68   H     H_    0.714527 0.195105 0.703919 0.263439
H69   H     H_    0.694216 0.092679 0.725831 0.285804
H70   H     H_    0.815205 0.107256 0.657161 0.215522
H71   H     H_    0.757718 0.077750 0.800151 0.216131
H72   H     H_    0.747861 0.242992 0.814211 0.211095
H73   H     H_    0.838171 0.226905 0.687980 0.187541
H74   H     H_    0.422324 0.477978 0.882202 0.281797
H75   H     H_    0.355347 0.412833 0.910130 0.253188
H76   H     H_    0.436264 0.427690 0.768707 0.245190
H77   H     H_    0.336590 0.501258 0.803634 0.203372
H78   H     H_    0.801191 0.349246 0.776743 0.134815
H79   H     H_    0.403886 0.565798 0.774485 0.216933
H80   H     H_    0.331618 0.589086 0.980101 0.214879
H81   H     H_    0.266251 0.521498 0.007453 0.206386
H82   H     H_    0.296387 0.172107 0.275865 0.253121
H83   H     H_    0.207142 0.161314 0.407592 0.270570
H84   H     H_    0.265542 0.077519 0.338504 0.271757
H85   H     H_    0.174279 0.082621 0.314567 0.209904
H86   H     H_    0.264561 0.086923 0.184788 0.212115
H87   H     H_    0.251868 0.235135 0.193293 0.194962
H88   H     H_    0.159063 0.223299 0.315114 0.201617
H89   H     H_    0.567674 0.144802 0.683636 0.129656
H90   H     H_    0.588567 0.470445 0.120666 0.281249
H91   H     H_    0.664206 0.410137 0.072760 0.253593
H92   H     H_    0.587962 0.415115 0.219638 0.250236
H93   H     H_    0.686135 0.494811 0.176492 0.204590
H94   H     H_    0.610331 0.554667 0.225299 0.216571
H95   H     H_    0.669155 0.588640 0.025678 0.208455
H96   H     H_    0.742822 0.526324 0.980781 0.205758
I1    I     I_    0.767883 0.168385 0.250335 -0.386282
I2    I     I_    0.453724 0.286783 0.219673 -0.422054
I3    I     I_    0.180187 0.979741 0.549060 -0.385310
I4    I     I_    0.782180 0.082380 0.468387 -0.363180
I5    I     I_    0.171236 0.420341 0.734418 -0.452452
I6    I     I_    0.953735 0.786799 0.219684 -0.422069
I7    I     I_    0.680196 0.479743 0.549051 -0.385287
I8    I     I_    0.282189 0.582378 0.468391 -0.363164
I9    I     I_    0.211181 0.919355 0.754249 -0.382434
I10   I     I_    0.225417 0.149338 0.733291 -0.368766
I11   I     I_    0.782372 0.945282 0.249913 -0.388083
I12   I     I_    0.267887 0.668377 0.250333 -0.386252
I13   I     I_    0.711181 0.419350 0.754250 -0.382418
I14   I     I_    0.725415 0.649331 0.733292 -0.368753
I15   I     I_    0.282373 0.445279 0.249911 -0.388054
I16   I     I_    0.671213 0.920305 0.734452 -0.452435
N1    N     N_R   0.388930 0.078160 0.705470 -0.050702
N2    N     N_R   0.419500 0.922160 0.443350 -0.058761
N3    N     N_R   0.419500 0.077840 0.443350 -0.055784
N4    N     N_R   0.580500 0.922160 0.556650 -0.058388
N5    N     N_R   0.080500 0.577840 0.556650 -0.052726
N6    N     N_R   0.919500 0.422160 0.443350 -0.058760
N7    N     N_R   0.919500 0.577840 0.443350 -0.055784
N8    N     N_R   0.080500 0.422160 0.556650 -0.058387
N9    N     N_R   0.626210 0.077590 0.443410 -0.063124
N10   N     N_R   0.373790 0.922410 0.556590 -0.071531
N11   N     N_R   0.373790 0.077590 0.556590 -0.056845
N12   N     N_R   0.611070 0.921840 0.294530 -0.043837
N13   N     N_R   0.626210 0.922410 0.443410 -0.067314
N14   N     N_R   0.126210 0.577590 0.443410 -0.063128
N15   N     N_R   0.873790 0.422410 0.556590 -0.071530
N16   N     N_R   0.873790 0.577590 0.556590 -0.056845
N17   N     N_R   0.126210 0.422410 0.443410 -0.067316
N18   N     N_R   0.554800 0.077270 0.294580 -0.051837
N19   N     N_R   0.445200 0.922730 0.705420 -0.047191
N20   N     N_R   0.445200 0.077270 0.705420 -0.048439
N21   N     N_R   0.554800 0.922730 0.294580 -0.047588
N22   N     N_R   0.054800 0.577270 0.294580 -0.051836
N23   N     N_R   0.611070 0.078160 0.294530 -0.050614
N24   N     N_R   0.945200 0.422730 0.705420 -0.047192
N25   N     N_R   0.945200 0.577270 0.705420 -0.048437
N26   N     N_R   0.054800 0.422730 0.294580 -0.047589
N27   N     N_R   0.388930 0.921840 0.705470 -0.044201
N28   N     N_R   0.888930 0.578160 0.705470 -0.050702
N29   N     N_R   0.111070 0.421840 0.294530 -0.043837
N30   N     N_R   0.111070 0.578160 0.294530 -0.050617
N31   N     N_R   0.888930 0.421840 0.705470 -0.044200
N32   N     N_R   0.580500 0.077840 0.556650 -0.052727
Ni1   Ni    Ni4+2 0.382710 0.000000 0.629850 0.251925
Ni2   Ni    Ni4+2 0.617290 0.000000 0.370150 0.251297
Ni3   Ni    Ni4+2 0.882710 0.500000 0.629850 0.251926
Ni4   Ni    Ni4+2 0.117290 0.500000 0.370150 0.251297
Ni5   Ni    Ni4+2 0.513020 0.000000 0.629850 0.225161
Ni6   Ni    Ni4+2 0.486980 0.000000 0.370150 0.216422
Ni7   Ni    Ni4+2 0.013020 0.500000 0.629850 0.225154
Ni8   Ni    Ni4+2 0.986980 0.500000 0.370150 0.216419

loop_
_geom_bond_atom_site_label_1
_geom_bond_atom_site_label_2
_ccdc_geom_bond_type
C58   C62   A    
C31   C66   A    
C83   C87   A    
N7    Ni8   S    
N8    Ni7   S    
C108  H58   S    
N10   Ni1   S    
C51   H11   S    
C87   I4    S    
C104  H36   S    
C105  C106  S    
C58   N28   A    
C111  C112  S    
C50   H10   S    
C36   N23   A    
C9    H76   S    
C3    H59   S    
C10   H87   S    
N23   Ni2   S    
C45   N15   A    
C49   N18   A    
N24   N31   A    
C69   N29   A    
C7    C8    S    
C41   C67   A    
C54   C65   A    
C23   C101  S    
C1    C57   A    
N1    N20   A    
C72   C99   S    
C49   C60   A    
C80   N30   A    
C31   N32   A    
C2    H27   S    
C52   H13   S    
N15   Ni3   S    
N17   Ni4   S    
C75   C94   A    
C82   H25   S    
C14   H96   S    
C5    C6    S    
C110  H53   S    
C60   C102  S    
C3    H60   S    
C13   C57   S    
C41   N10   A    
C8    H79   S    
C34   H4    S    
C106  H47   S    
C55   C62   A    
C7    C27   S    
C108  C109  S    
C44   C71   A    
C17   H29   S    
C83   H26   S    
C42   N11   A    
C39   C74   A    
C104  H38   S    
C10   C30   S    
C53   N22   A    
C43   N13   A    
N9    N32   A    
C3    H61   S    
C33   N3    A    
C37   H6    S    
C51   N20   A    
C25   N12   A    
C8    C9    S    
C56   N26   A    
C76   H19   S    
C55   N25   A    
N14   Ni4   S    
C51   C57   A    
C46   N16   A    
C7    H81   S    
C16   H91   S    
C109  H55   S    
C34   C70   A    
C92   I8    S    
C47   N27   A    
C88   C97   A    
C2    C61   S    
C103  H39   S    
C76   C89   A    
N24   Ni7   S    
N26   N29   A    
C47   H34   S    
C35   C71   A    
C101  C103  S    
C83   C99   A    
C14   H95   S    
C52   N21   A    
C45   C72   A    
C67   C95   S    
C54   H15   S    
C64   C80   A    
N6    N15   A    
C73   C98   S    
C24   C111  S    
C1    H1    S    
C16   H90   S    
N21   Ni6   S    
C90   I7    S    
C4    C28   S    
C103  C104  S    
C81   C85   A    
C74   C97   S    
N6    Ni8   S    
C20   C29   D    
N5    Ni7   S    
C37   N6    A    
C91   H78   S    
N31   Ni3   S    
C77   C90   A    
C33   H3    S    
N19   N27   A    
C88   I5    S    
C6    H69   S    
C111  H64   S    
C80   H67   S    
C63   C69   A    
C70   C93   S    
C86   I3    S    
C50   N19   A    
C84   I16   S    
C26   C108  S    
C4    H72   S    
C110  H52   S    
C40   N9    A    
N19   Ni5   S    
N22   N30   A    
C78   C92   A    
C101  H41   S    
C82   C86   A    
C40   C66   A    
C40   I1    S    
C68   C94   S    
N8    N17   A    
C13   C24   D    
C10   H88   S    
N7    N16   A    
C35   N5    A    
C85   I2    S    
C21   H33   S    
C104  H37   S    
N28   Ni3   S    
C34   N4    A    
C11   H85   S    
C32   H2    S    
C52   C59   A    
C48   C74   A    
C76   C93   A    
C85   C94   A    
C12   H84   S    
N30   Ni4   S    
C78   C95   A    
N11   Ni1   S    
C49   H9    S    
C87   C96   A    
N18   Ni6   S    
C56   C63   A    
C109  H54   S    
C102  H28   S    
C13   H30   S    
N25   Ni7   S    
C108  H57   S    
C19   C28   D    
N26   Ni8   S    
C25   H12   S    
C15   H93   S    
C103  H40   S    
C17   C59   S    
C32   C67   A    
C38   H7    S    
C36   C60   A    
C8    H77   S    
C32   N2    A    
C54   N24   A    
C9    H74   S    
C3    C112  S    
C23   C27   S    
C10   C11   S    
C21   C63   S    
C20   H35   S    
C12   H83   S    
C105  H49   S    
C7    H80   S    
C35   H5    S    
C24   C30   S    
C17   C26   D    
C14   C29   S    
C36   H23   S    
C90   C99   A    
C2    C23   D    
C107  H46   S    
N22   Ni8   S    
N4    Ni5   S    
C92   C100  A    
C81   H24   S    
C66   C96   S    
C71   C100  S    
C1    N1    A    
C65   C91   A    
C79   H22   S    
N2    Ni6   S    
N25   N28   A    
C19   H31   S    
C4    H73   S    
C6    H68   S    
C112  H62   S    
C14   C15   S    
C12   H82   S    
N12   N21   A    
C43   I11   S    
C18   C27   D    
C56   H17   S    
C4    C5    S    
C42   I10   S    
C58   H45   S    
C44   N14   A    
C47   C61   A    
C38   N7    A    
C41   I9    S    
C11   C12   S    
C75   H18   S    
N9    Ni2   S    
C48   N17   A    
C48   I15   S    
C43   C70   A    
C22   C105  S    
N3    N11   A    
C21   C30   D    
C77   C96   A    
N12   Ni2   S    
N18   N23   A    
N2    N10   A    
C89   C98   A    
C45   I13   S    
C18   H32   S    
C5    H70   S    
C11   H86   S    
N1    Ni1   S    
N4    N13   A    
C16   H92   S    
C109  C110  S    
N27   Ni1   S    
C110  H51   S    
N29   Ni4   S    
C18   C64   S    
C79   C84   A    
C22   C102  D    
C91   N31   A    
C101  H42   S    
C106  H48   S    
C82   C100  A    
C53   C64   A    
C5    H71   S    
C19   C65   S    
C84   C93   A    
C42   C68   A    
N16   Ni3   S    
C20   C62   S    
C46   I14   S    
C78   H21   S    
C107  H43   S    
C44   I12   S    
C31   H89   S    
C15   H94   S    
C69   H56   S    
C53   H14   S    
C107  H44   S    
C75   C88   A    
C39   N8    A    
C112  H63   S    
C55   H16   S    
N3    Ni6   S    
C26   C29   S    
C39   H8    S    
C106  C107  S    
C37   C72   A    
N13   Ni2   S    
C111  H65   S    
C50   C61   A    
C81   C97   A    
C105  H50   S    
C9    H75   S    
C79   C98   A    
C22   C28   S    
N20   Ni5   S    
C25   C59   A    
C86   C95   A    
N5    N14   A    
N32   Ni5   S    
C77   H20   S    
C46   C73   A    
C6    H66   S    
C15   C16   S    
C33   C68   A    
C89   I6    S    
C38   C73   A    
