data_mof_unit_10596.cif
_audit_creation_date              2012-12-10T18:33:37-0500
_audit_creation_method            fapswitch 2.2
_symmetry_space_group_name_H-M    P1
_symmetry_Int_Tables_number       1
_space_group_crystal_system       triclinic
_cell_length_a                    10.507311
_cell_length_b                    14.979982
_cell_length_c                    15.469032
_cell_angle_alpha                 82.472873
_cell_angle_beta                  89.400791
_cell_angle_gamma                 103.989462
_cell_volume                      2339.99371187

loop_
_atom_site_label
_atom_site_type_symbol
_atom_type_description
_atom_site_fract_x
_atom_site_fract_y
_atom_site_fract_z
_atom_type_partial_charge
C1    C     C_R   0.484950 0.442073 0.662123 0.863619
C2    C     C_R   0.521876 0.558044 0.337794 0.861169
C3    C     C_R   0.536291 0.474572 0.810321 -0.264569
C4    C     C_R   0.551699 0.526898 0.188647 -0.259280
C5    C     C_R   0.562830 0.449023 0.896798 0.092038
C6    C     C_R   0.595270 0.553497 0.101598 0.092665
C7    C     C_R   0.540382 0.353197 0.928661 0.171938
C8    C     C_R   0.634344 0.649563 0.069638 0.166173
C9    C     C_R   0.601142 0.516456 0.953720 0.066465
C10   C     C_R   0.591172 0.486588 0.044410 0.068748
C11   C     C_R   0.575012 0.390890 0.074636 -0.226252
C12   C     C_R   0.646436 0.612582 0.923289 -0.223169
C13   C     C_R   0.552674 0.325457 0.017034 -0.224566
C14   C     C_R   0.665268 0.677953 0.980940 -0.220142
C15   C     C_R   0.696519 0.839949 0.639058 -0.093544
C16   C     C_R   0.300450 0.158878 0.363322 -0.098916
C17   C     C_R   0.659190 0.750777 0.616536 -0.029656
C18   C     C_R   0.339150 0.248518 0.384557 -0.031091
C19   C     C_R   0.517354 0.795356 0.510908 -0.059122
C20   C     C_R   0.482830 0.204851 0.489296 -0.059266
C21   C     C_R   0.544801 0.886446 0.532589 -0.016037
C22   C     C_R   0.453842 0.113164 0.469027 -0.015694
C23   C     C_R   0.742410 0.500320 0.500066 0.860039
C24   C     C_R   0.257576 0.499676 0.499945 0.864283
C25   C     C_R   0.643590 0.911263 0.594059 0.064276
C26   C     C_R   0.353844 0.087837 0.408395 0.062804
C27   C     C_R   0.478627 0.952999 0.493383 0.076690
C28   C     C_R   0.519544 0.046507 0.508803 0.076890
C29   C     C_R   0.627225 0.071417 0.561901 -0.276197
C30   C     C_R   0.370095 0.927735 0.441145 -0.275000
C31   C     C_R   0.686444 0.005996 0.605637 -0.002748
C32   C     C_R   0.310197 0.992876 0.397736 -0.002768
C33   C     C_3   0.930329 0.417220 0.482221 -0.129595
C34   C     C_3   0.069598 0.582770 0.517820 -0.130106
C35   C     C_3   0.017413 0.432046 0.561317 -0.175022
C36   C     C_3   0.982512 0.567941 0.438723 -0.175341
C37   C     C_3   0.122255 0.499778 0.499955 0.019989
C38   C     C_3   0.877688 0.500210 0.500083 0.022431
C39   C     C_3   0.037853 0.485148 0.420899 -0.179452
C40   C     C_3   0.962066 0.514839 0.579143 -0.178061
C41   C     C_R   0.497462 0.408516 0.753943 -0.062027
C42   C     C_R   0.555318 0.592361 0.245460 -0.063956
C43   C     C_R   0.502777 0.286484 0.871923 -0.192902
C44   C     C_R   0.638891 0.715757 0.126683 -0.192412
C45   C     C_R   0.482314 0.314109 0.784559 -0.191697
C46   C     C_R   0.600469 0.687222 0.214576 -0.190179
H1    H     H_    0.036232 0.376717 0.611024 0.145068
H2    H     H_    0.963628 0.623248 0.389013 0.145824
H3    H     H_    0.547301 0.228080 0.539686 0.130232
H4    H     H_    0.454145 0.772893 0.459618 0.130576
H5    H     H_    0.298925 0.303420 0.351866 0.140222
H6    H     H_    0.698820 0.695616 0.649334 0.134928
H7    H     H_    0.670317 0.142767 0.569522 0.138154
H8    H     H_    0.326560 0.856167 0.434411 0.138622
H9    H     H_    0.869822 0.349520 0.467763 0.148250
H10   H     H_    0.130088 0.650476 0.532276 0.148892
H11   H     H_    0.073333 0.472931 0.356663 0.138406
H12   H     H_    0.926499 0.527030 0.643370 0.139215
H13   H     H_    0.539133 0.252648 0.042336 0.152516
H14   H     H_    0.698543 0.751048 0.955510 0.161303
H15   H     H_    0.510259 0.454705 0.212709 0.162011
H16   H     H_    0.541172 0.546269 0.786516 0.162053
H17   H     H_    0.605670 0.739013 0.257997 0.163551
H18   H     H_    0.454333 0.261960 0.741367 0.162284
H19   H     H_    0.487649 0.213124 0.895373 0.143398
H20   H     H_    0.670734 0.789365 0.103125 0.145007
H21   H     H_    0.581892 0.365069 0.142503 0.151500
H22   H     H_    0.670568 0.638858 0.855198 0.148989
N1    N     N_R   0.574200 0.731700 0.552740 -0.106464
N2    N     N_R   0.425800 0.268300 0.447260 -0.107553
O1    O     O_R   0.462600 0.383110 0.605620 -0.616320
O2    O     O_R   0.537400 0.616890 0.394380 -0.616789
O3    O     O_R   0.510210 0.531900 0.639510 -0.623083
O4    O     O_R   0.489790 0.468100 0.360490 -0.623908
O5    O     O_R   0.662240 0.425610 0.483080 -0.626193
O6    O     O_R   0.337760 0.574390 0.516920 -0.623523
O7    O     O_R   0.709860 0.574400 0.516970 -0.617919
O8    O     O_R   0.290140 0.425600 0.483030 -0.616122
Zn1   Zn    Zn3+2 0.468210 0.400660 0.477370 0.939182
Zn2   Zn    Zn3+2 0.531790 0.599340 0.522630 0.940368
C47   C     C_1   0.783706 0.852160 0.710544 0.144583
N3    N     N_1   0.853213 0.860821 0.768071 -0.195657
C48   C     C_1   0.210639 0.145737 0.293349 0.154119
N4    N     N_1   0.138953 0.136286 0.237056 -0.185508
C49   C     C_1   0.796934 0.042008 0.656836 0.172504
N5    N     N_1   0.885310 0.071873 0.697360 -0.192074
C50   C     C_1   0.198502 0.956358 0.347726 0.171512
N6    N     N_1   0.109164 0.926062 0.308173 -0.193608

loop_
_geom_bond_atom_site_label_1
_geom_bond_atom_site_label_2
_ccdc_geom_bond_type
C18   N2    A    
C38   C40   S    
C50   N6    T    
C17   N1    A    
C31   C49   S    
C34   C37   S    
C44   H20   S    
C35   H1    S    
O1    Zn1   S    
C47   N3    T    
C15   C47   S    
C49   N5    T    
C34   H10   S    
C12   H22   S    
C1    O1    A    
C29   H7    S    
C34   C40   S    
C28   C29   A    
C35   C37   S    
O7    Zn2   S    
C39   H11   S    
C42   C46   A    
C44   C46   A    
C7    C43   A    
C9    C10   A    
C2    O4    A    
C21   C27   A    
C22   C28   A    
C27   C30   A    
C29   C31   A    
C20   N2    A    
C2    O2    A    
C17   H6    S    
C11   H21   S    
C18   H5    S    
C16   C26   A    
C40   H12   S    
O6    Zn2   S    
C4    C6    A    
C23   O5    A    
C5    C7    A    
O8    Zn1   S    
C24   O6    A    
C6    C8    A    
C32   C50   S    
C4    H15   S    
C16   C48   S    
C5    C9    A    
C20   H3    S    
C30   H8    S    
C48   N4    T    
C43   H19   S    
C24   C37   S    
C33   H9    S    
C16   C18   A    
C33   C39   S    
C23   O7    A    
C43   C45   A    
C13   H13   S    
C1    C41   S    
C12   C14   A    
O4    Zn1   S    
C19   N1    A    
C3    H16   S    
C24   O8    A    
C15   C17   A    
C21   C25   A    
C3    C41   A    
C8    C14   A    
C19   C21   A    
N2    Zn1   S    
C25   C31   A    
C36   C39   S    
C8    C44   A    
C20   C22   A    
C3    C5    A    
C6    C10   A    
C26   C32   A    
C23   C38   S    
C14   H14   S    
C45   H18   S    
C33   C38   S    
C46   H17   S    
C1    O3    A    
C36   C38   S    
C35   C40   S    
O2    Zn2   S    
C30   C32   A    
C11   C13   A    
C19   H4    S    
C4    C42   A    
C2    C42   S    
C33   C35   S    
O3    Zn2   S    
C36   H2    S    
C34   C36   S    
C9    C12   A    
C15   C25   A    
C10   C11   A    
C7    C13   A    
C37   C39   S    
C22   C26   A    
C27   C28   A    
C41   C45   A    
N1    Zn2   S    
O5    Zn1   S    
