data_mof_unit_41752.cif
_audit_creation_date              2012-12-10T17:05:17-0500
_audit_creation_method            fapswitch 2.2
_symmetry_space_group_name_H-M    P1
_symmetry_Int_Tables_number       1
_space_group_crystal_system       triclinic
_cell_length_a                    10.045365
_cell_length_b                    10.749049
_cell_length_c                    15.366049
_cell_angle_alpha                 90.060119
_cell_angle_beta                  67.904342
_cell_angle_gamma                 90.003028
_cell_volume                      1537.33996038

loop_
_atom_site_label
_atom_site_type_symbol
_atom_type_description
_atom_site_fract_x
_atom_site_fract_y
_atom_site_fract_z
_atom_type_partial_charge
C1    C     C_R   0.498893 0.737256 0.502186 0.940940
C2    C     C_R   0.741682 0.491360 0.024892 0.096680
C3    C     C_R   0.608084 0.549037 0.078050 0.076335
C4    C     C_R   0.410205 0.502778 0.676221 0.868668
C5    C     C_R   0.829957 0.448629 0.071882 -0.158411
C6    C     C_R   0.783783 0.455626 0.169135 -0.162231
C7    C     C_R   0.562716 0.551263 0.176152 -0.219670
C8    C     C_2   0.610177 0.066977 0.503517 -0.153788
C9    C     C_2   0.506235 0.131164 0.489520 -0.329428
C10   C     C_2   0.613462 0.933081 0.498038 -0.140412
C11   C     C_2   0.493778 0.868770 0.511229 -0.331781
C12   C     C_R   0.440679 0.571039 0.902342 0.057968
C13   C     C_2   0.107102 0.431359 0.443995 -0.112605
C14   C     C_2   0.958449 0.434713 0.441727 -0.121491
C15   C     C_R   0.501204 0.262734 0.498040 0.931268
C16   C     C_R   0.590058 0.500295 0.323754 0.869053
C17   C     C_R   0.357785 0.531317 0.776208 -0.058482
C18   C     C_R   0.648007 0.503349 0.221416 -0.063863
C19   C     C_R   0.214540 0.659983 0.907106 -0.144570
C20   C     C_R   0.239827 0.609758 0.818435 -0.245717
C21   C     C_R   0.448996 0.504280 0.822678 -0.219943
C22   C     C_3   0.922785 0.410758 0.870053 -0.914227
C23   C     C_R   0.314895 0.641490 0.949984 0.070956
C24   C     C_3   0.760457 0.556090 0.778190 -0.920546
C25   C     C_R   0.551464 0.562503 0.938064 -0.002665
C26   C     C_R   0.516974 0.592220 0.033253 -0.041215
C27   C     C_R   0.391610 0.663551 0.080488 -0.243753
C28   C     C_R   0.293805 0.691080 0.038594 0.357805
C29   C     C_R   0.694599 0.525243 0.882228 0.185944
C30   C     C_R   0.784704 0.478755 0.926489 0.156567
Cl1   Cl    Cl    0.142128 0.781813 0.102609 -0.639744
H1    H     H_    0.934394 0.407781 0.034691 0.159653
H2    H     H_    0.457393 0.584438 0.219674 0.157810
H3    H     H_    0.851880 0.419304 0.203600 0.156804
H4    H     H_    0.119640 0.716606 0.939679 0.199264
H5    H     H_    0.169387 0.634140 0.782298 0.162821
H6    H     H_    0.532575 0.435760 0.792461 0.169403
H7    H     H_    0.369240 0.702985 0.149125 0.182613
H8    H     H_    0.015395 0.459898 0.876241 0.248963
H9    H     H_    0.918353 0.314770 0.897676 0.242625
H10   H     H_    0.942726 0.401258 0.794438 0.257466
H11   H     H_    0.776286 0.470469 0.734994 0.237176
H12   H     H_    0.695967 0.112774 0.518154 0.175110
H13   H     H_    0.694211 0.623339 0.757213 0.255120
H14   H     H_    0.866125 0.602262 0.761588 0.241319
H15   H     H_    0.424546 0.088379 0.469203 0.154023
H16   H     H_    0.716050 0.887423 0.483814 0.180991
H17   H     H_    0.388696 0.911439 0.531225 0.151274
H18   H     H_    0.184624 0.369032 0.395244 0.164528
H19   H     H_    0.077313 0.560750 0.543342 0.159683
H20   H     H_    0.939282 0.378551 0.388907 0.158664
H21   H     H_    0.868222 0.548875 0.551152 0.166923
N1    N     N_2   0.148330 0.498670 0.499030 -0.191162
N2    N     N_2   0.852680 0.498640 0.499000 -0.191129
O1    O     O_R   0.386950 0.680940 0.500010 -0.615128
O2    O     O_R   0.613110 0.680900 0.499990 -0.604478
O3    O     O_R   0.322330 0.500030 0.632270 -0.611251
O4    O     O_R   0.548480 0.499990 0.632240 -0.613331
O5    O     O_R   0.386890 0.319100 0.500010 -0.610662
O6    O     O_R   0.613050 0.319060 0.499990 -0.611543
O7    O     O_R   0.451520 0.500010 0.367760 -0.610764
O8    O     O_R   0.677670 0.499970 0.367730 -0.601013
Zn1   Zn    Zn3+2 0.349000 0.500030 0.500020 0.942680
Zn2   Zn    Zn3+2 0.651000 0.499970 0.499980 0.947905

loop_
_geom_bond_atom_site_label_1
_geom_bond_atom_site_label_2
_ccdc_geom_bond_type
C4    O3    A    
C19   C23   A    
O2    Zn2   S    
C13   N1    D    
C29   C30   A    
C24   H11   S    
C15   O6    A    
O5    Zn1   S    
C14   H20   S    
C1    C11   S    
C8    H12   S    
O6    Zn2   S    
C12   C25   A    
C2    C30   A    
C7    C18   A    
C22   H9    S    
C5    H1    S    
C19   C20   A    
C2    C3    A    
C26   C27   A    
C9    H15   S    
C19   H4    S    
C13   C14   S    
O4    Zn2   S    
C7    H2    S    
C12   C23   A    
C11   H17   S    
H19   N1    S    
C16   O8    A    
C6    C18   A    
C24   H14   S    
C8    C10   S    
C14   N2    D    
C1    O2    A    
H21   N2    S    
O3    Zn1   S    
C3    C7    A    
C3    C26   A    
C25   C29   A    
C5    C6    A    
C24   H13   S    
C13   H18   S    
C1    O1    A    
C22   H10   S    
C10   C11   D    
C22   H8    S    
C27   H7    S    
C2    C5    A    
C27   C28   A    
C17   C20   A    
C21   H6    S    
N2    Zn2   S    
C16   C18   S    
C16   O7    A    
C4    O4    A    
C10   H16   S    
O7    Zn1   S    
C24   C29   S    
N1    Zn1   S    
C20   H5    S    
O8    Zn2   S    
C22   C30   S    
C25   C26   A    
C23   C28   A    
C15   O5    A    
C12   C21   A    
C28   Cl1   S    
C17   C21   A    
C6    H3    S    
C9    C15   S    
O1    Zn1   S    
C8    C9    D    
C4    C17   S    
