data_mof_unit_40369.cif
_audit_creation_date              2012-12-11T16:37:24-0500
_audit_creation_method            fapswitch 2.2
_symmetry_space_group_name_H-M    P1
_symmetry_Int_Tables_number       1
_space_group_crystal_system       triclinic
_cell_length_a                    19.464576
_cell_length_b                    6.933525
_cell_length_c                    17.750395
_cell_angle_alpha                 89.905315
_cell_angle_beta                  109.018445
_cell_angle_gamma                 90.113975
_cell_volume                      2264.78954096

loop_
_atom_site_label
_atom_site_type_symbol
_atom_type_description
_atom_site_fract_x
_atom_site_fract_y
_atom_site_fract_z
_atom_type_partial_charge
O1    O     O_R   0.561710 0.369960 0.440200 -0.530488
O2    O     O_R   0.061710 0.630040 0.940200 -0.519178
O3    O     O_R   0.412630 0.033330 0.406330 -0.549602
O4    O     O_R   0.912630 0.966670 0.906330 -0.543903
O5    O     O_R   0.438290 0.869790 0.559800 -0.529084
O6    O     O_R   0.938290 0.130210 0.059800 -0.506263
C1    C     C_R   0.384498 0.203206 0.383617 0.734901
C2    C     C_R   0.884745 0.796621 0.883248 0.707118
O7    O     O_R   0.559570 0.039810 0.430640 -0.535949
O8    O     O_R   0.059570 0.960190 0.930640 -0.543330
O9    O     O_R   0.586280 0.876320 0.584290 -0.551281
O10   O     O_R   0.086280 0.123680 0.084290 -0.549196
C3    C     C_R   0.579409 0.209609 0.413672 0.745564
C4    C     C_R   0.082080 0.791184 0.917128 0.714148
O11   O     O_R   0.413720 0.363440 0.415710 -0.537096
O12   O     O_R   0.913720 0.636560 0.915710 -0.542715
O13   O     O_3   0.508590 0.205630 0.550380 -0.367586
O14   O     O_3   0.008590 0.794370 0.050380 -0.370508
V1    V     V_3+5 0.498410 0.928130 0.490650 1.464427
V2    V     V_3+5 0.998410 0.071870 0.990650 1.484524
O15   O     O_R   0.587370 0.546990 0.593670 -0.533771
O16   O     O_R   0.087370 0.453010 0.093670 -0.534120
C5    C     C_R   0.614740 0.716907 0.617604 0.744506
C6    C     C_R   0.114299 0.283281 0.118143 0.766136
O17   O     O_R   0.440430 0.540520 0.569360 -0.534543
O18   O     O_R   0.940430 0.459480 0.069360 -0.543376
C7    C     C_R   0.418114 0.708875 0.583788 0.747225
C8    C     C_R   0.919822 0.290229 0.085781 0.808354
V3    V     V_3+5 0.501590 0.428960 0.509350 1.503005
V4    V     V_3+5 0.001590 0.571040 0.009350 1.494189
O19   O     O_3   0.491410 0.701330 0.449620 -0.373475
O20   O     O_3   0.991410 0.298670 0.949620 -0.377930
C9    C     C_R   0.269506 0.888722 0.664731 0.385873
C10   C     C_R   0.770680 0.120928 0.167801 0.254497
C11   C     C_R   0.314343 0.869933 0.616359 0.279349
C12   C     C_R   0.819506 0.128729 0.123256 0.293945
C13   C     C_R   0.366233 0.718215 0.630416 -0.317437
C14   C     C_R   0.872186 0.277649 0.137338 -0.219318
C15   C     C_R   0.366365 0.574673 0.687760 -0.091389
C16   C     C_R   0.878792 0.411241 0.200196 -0.173591
C17   C     C_R   0.313189 0.577411 0.725998 0.257237
C18   C     C_R   0.832087 0.395438 0.247305 0.276942
C19   C     C_R   0.267216 0.740435 0.718316 -0.131896
C20   C     C_R   0.778006 0.251957 0.230157 -0.038055
C21   C     C_R   0.248959 0.724019 0.852091 -0.149729
C22   C     C_R   0.676716 0.390525 0.270838 -0.114517
H1    H     H_    0.305828 0.685674 0.877574 0.181620
H2    H     H_    0.675749 0.511303 0.231607 0.165667
C23   C     C_R   0.204708 0.723507 0.900770 -0.043998
C24   C     C_R   0.625487 0.380249 0.311407 -0.054371
C25   C     C_R   0.130827 0.780038 0.868215 -0.093953
C26   C     C_R   0.626983 0.220899 0.362656 -0.116749
C27   C     C_R   0.102946 0.826929 0.786916 -0.195124
C28   C     C_R   0.677581 0.072337 0.367837 -0.132811
H3    H     H_    0.046532 0.868731 0.760730 0.112294
H4    H     H_    0.680109 0.949073 0.406227 0.147849
C29   C     C_R   0.146497 0.813189 0.737963 -0.058897
C30   C     C_R   0.726391 0.081800 0.324893 -0.053667
H5    H     H_    0.122260 0.840727 0.674771 0.144908
H6    H     H_    0.764518 0.965000 0.329900 0.150660
C31   C     C_R   0.220145 0.761510 0.770015 0.120371
C32   C     C_R   0.726857 0.241915 0.276811 0.177008
C33   C     C_R   0.791600 0.599417 0.781283 0.051196
C34   C     C_R   0.302107 0.384359 0.265917 0.065519
C35   C     C_R   0.814514 0.778990 0.817427 -0.086743
C36   C     C_R   0.316802 0.218881 0.314289 -0.115503
C37   C     C_R   0.765223 0.933471 0.793783 -0.171926
C38   C     C_R   0.263272 0.074296 0.296870 -0.128532
H7    H     H_    0.778098 0.072047 0.823042 0.132148
H8    H     H_    0.270983 0.948094 0.334433 0.114745
C39   C     C_R   0.699099 0.911176 0.730604 -0.182946
C40   C     C_R   0.196976 0.097824 0.234328 -0.117316
H9    H     H_    0.663502 0.034705 0.712798 0.135337
H10   H     H_    0.155980 0.986451 0.224430 0.121874
C41   C     C_R   0.680455 0.733912 0.689255 -0.063122
C42   C     C_R   0.182244 0.266327 0.187084 -0.166936
C43   C     C_R   0.726593 0.577382 0.718896 0.100511
C44   C     C_R   0.236581 0.407143 0.203439 0.158461
C45   C     C_3   0.759412 0.436429 0.676932 0.163925
C46   C     C_3   0.231005 0.613462 0.224156 0.164201
C47   C     C_3   0.830609 0.460856 0.745178 -0.435541
C48   C     C_3   0.302349 0.589411 0.291195 -0.373436
H11   H     H_    0.734769 0.290161 0.671875 0.084560
H12   H     H_    0.183822 0.645343 0.244614 0.062550
H13   H     H_    0.874581 0.531257 0.727700 0.184324
H14   H     H_    0.347900 0.673516 0.282722 0.195121
H15   H     H_    0.847416 0.328455 0.781844 0.146727
H16   H     H_    0.296649 0.603293 0.351297 0.117027
O21   O     O_3   0.226614 0.050101 0.660332 -0.635228
H17   H     H_    0.238438 0.150021 0.626579 0.344742
O22   O     O_3   0.713646 0.991113 0.150210 -0.627761
H18   H     H_    0.698761 0.958396 0.092858 0.307459
O23   O     O_3   0.763023 0.510967 0.604861 -0.634757
H19   H     H_    0.784898 0.407616 0.581496 0.297680
O24   O     O_3   0.237962 0.737120 0.164658 -0.616451
H20   H     H_    0.187775 0.763408 0.129124 0.313470
O25   O     O_3   0.305572 0.001537 0.555481 -0.641530
H21   H     H_    0.309963 0.931704 0.508613 0.274771
O26   O     O_3   0.815772 0.994707 0.064513 -0.637470
H22   H     H_    0.799800 0.869579 0.080205 0.308513
C49   C     C_2   0.423029 0.422270 0.711093 0.895064
O27   O     O_2   0.487260 0.466108 0.728967 -0.576866
O28   O     O_R   0.403096 0.229458 0.714407 -0.620475
H23   H     H_    0.446478 0.139523 0.730948 0.294719
C50   C     C_2   0.935346 0.564096 0.218109 0.781628
O29   O     O_2   0.918221 0.733230 0.219883 -0.555906
O30   O     O_R   0.008155 0.514082 0.232998 -0.672556
H24   H     H_    0.041464 0.630666 0.243657 0.277648
O31   O     O_3   0.309254 0.420879 0.772792 -0.607591
H25   H     H_    0.258738 0.408531 0.773407 0.315065
O32   O     O_3   0.838045 0.515071 0.311518 -0.632374
H26   H     H_    0.886971 0.573829 0.330748 0.311830
C51   C     C_2   0.237707 0.656725 0.984020 0.769881
O33   O     O_2   0.203702 0.550920 0.014200 -0.558202
O34   O     O_R   0.309829 0.704617 0.026292 -0.639578
H27   H     H_    0.327523 0.644089 0.081292 0.333985
C52   C     C_2   0.568424 0.530921 0.293980 0.787123
O35   O     O_2   0.583255 0.697652 0.282644 -0.551163
O36   O     O_R   0.496895 0.481068 0.286532 -0.657512
H28   H     H_    0.462983 0.595899 0.272504 0.292195

loop_
_geom_bond_atom_site_label_1
_geom_bond_atom_site_label_2
_ccdc_geom_bond_type
C30   C32   A    
C36   C38   A    
C33   C35   A    
C49   O27   D    
C24   C52   S    
O13   V3    S    
C23   C51   S    
O24   H20   S    
O4    C2    A    
V1    O19   S    
O25   H21   S    
C15   C17   A    
C50   O30   S    
O9    V1    S    
O23   H19   S    
C22   C32   A    
C11   C13   A    
C42   C44   A    
C45   O23   S    
O3    C1    A    
C52   O36   S    
C28   C30   A    
C44   C46   S    
C29   H5    S    
C35   C37   A    
C30   H6    S    
O34   H27   S    
C2    O12   A    
C21   C31   A    
C33   C43   A    
O7    C3    A    
C10   O22   S    
C9    C11   A    
O5    C7    A    
O7    V1    S    
O6    C8    A    
O26   H22   S    
O8    V2    S    
C23   C25   A    
C24   C26   A    
O30   H24   S    
O3    V1    S    
O14   V4    S    
C8    C14   S    
V4    O20   S    
C37   C39   A    
C46   H12   S    
C21   H1    S    
C2    C35   S    
C49   O28   S    
C17   O31   S    
C17   C19   A    
C18   C20   A    
C26   C28   A    
O11   V3    S    
C22   H2    S    
C27   H3    S    
O17   V3    S    
C13   C15   A    
C28   H4    S    
C39   C41   A    
C9    C19   A    
C10   C20   A    
C40   H10   S    
O8    C4    A    
O22   H18   S    
C45   C47   S    
C27   C29   A    
C6    C42   S    
C1    O11   A    
C20   C32   S    
C48   H14   S    
O15   V3    S    
C25   C27   A    
C34   C36   A    
C18   O32   S    
C9    O21   S    
C3    C26   S    
C4    C25   S    
C21   C23   A    
C38   C40   A    
C15   C49   S    
O10   V2    S    
O1    V3    S    
C43   C45   S    
C40   C42   A    
C46   O24   S    
C41   C43   A    
C34   C48   S    
C47   H15   S    
C46   C48   S    
C33   C47   S    
O18   V4    S    
O15   C5    A    
O16   C6    A    
O1    C3    A    
C19   C31   S    
C39   H9    S    
C51   O33   D    
V2    O20   S    
O10   C6    A    
O16   V4    S    
O32   H26   S    
C34   C44   A    
C5    C41   S    
C16   C18   A    
O36   H28   S    
C29   C31   A    
O5    V1    S    
O4    V2    S    
O17   C7    A    
O6    V2    S    
C50   O29   D    
C22   C24   A    
O18   C8    A    
O2    V4    S    
C12   C14   A    
V3    O19   S    
C52   O35   D    
C1    C36   S    
C14   C16   A    
C7    C13   S    
C48   H16   S    
O9    C5    A    
O13   V1    S    
C10   C12   A    
C12   O26   S    
O14   V2    S    
O2    C4    A    
C45   H11   S    
C38   H8    S    
O31   H25   S    
O28   H23   S    
C37   H7    S    
O21   H17   S    
C11   O25   S    
O12   V4    S    
C47   H13   S    
C16   C50   S    
C51   O34   S    
