data_mof_unit_5379.cif
_audit_creation_date              2012-12-10T17:19:03-0500
_audit_creation_method            fapswitch 2.2
_symmetry_space_group_name_H-M    P1
_symmetry_Int_Tables_number       1
_space_group_crystal_system       triclinic
_cell_length_a                    18.339213
_cell_length_b                    18.343092
_cell_length_c                    34.342985
_cell_angle_alpha                 90.041711
_cell_angle_beta                  89.879087
_cell_angle_gamma                 89.988217
_cell_volume                      11552.8780122

loop_
_atom_site_label
_atom_site_type_symbol
_atom_type_description
_atom_site_fract_x
_atom_site_fract_y
_atom_site_fract_z
_atom_type_partial_charge
C1    C     C_R   0.468342 0.870844 0.520294 -0.231944
C2    C     C_R   0.028735 0.629636 0.979768 -0.209056
C3    C     C_R   0.434660 0.014218 0.959324 0.114573
C4    C     C_R   0.013617 0.565277 0.040845 0.116821
C5    C     C_R   0.983845 0.435131 0.959221 0.114041
C6    C     C_R   0.434738 0.014279 0.040913 0.112569
C7    C     C_R   0.565041 0.985093 0.959148 0.113762
C8    C     C_R   0.000042 0.500145 0.644150 0.824040
C9    C     C_R   0.999937 0.499973 0.355859 0.866343
C10   C     C_R   0.499628 0.999990 0.644155 0.825643
C11   C     C_R   0.499938 0.000025 0.355857 0.865668
C12   C     C_R   0.500042 0.000145 0.144150 0.824051
C13   C     C_R   0.629529 0.970333 0.020141 -0.231066
C14   C     C_R   0.499937 0.999973 0.855859 0.866358
C15   C     C_R   0.999628 0.499990 0.144155 0.825655
C16   C     C_R   0.999938 0.500025 0.855857 0.865669
C17   C     C_R   0.859856 0.639277 0.750396 1.026915
C18   C     C_R   0.140460 0.360073 0.249936 0.924902
C19   C     C_R   0.360637 0.859869 0.750326 1.028064
C20   C     C_R   0.639918 0.140482 0.249968 0.923955
C21   C     C_R   0.139859 0.360311 0.750047 1.000270
C22   C     C_R   0.859707 0.640066 0.250060 0.918145
C23   C     C_R   0.639460 0.140012 0.750224 0.999088
C24   C     C_R   0.370219 0.028834 0.979908 -0.208780
C25   C     C_R   0.359979 0.859655 0.249970 0.921529
C26   C     C_R   0.860637 0.359868 0.250327 1.028062
C27   C     C_R   0.139919 0.640481 0.749968 0.923942
C28   C     C_R   0.359857 0.139278 0.250396 1.026916
C29   C     C_R   0.640459 0.860073 0.749936 0.924913
C30   C     C_R   0.139459 0.640012 0.250224 0.999085
C31   C     C_R   0.859979 0.359655 0.749970 0.921528
C32   C     C_R   0.639858 0.860311 0.250047 1.000269
C33   C     C_R   0.359706 0.140066 0.750060 0.918150
C34   C     C_R   0.163943 0.737227 0.681326 0.323559
C35   C     C_R   0.028622 0.629637 0.020366 -0.231260
C36   C     C_R   0.858855 0.244967 0.308809 0.341649
C37   C     C_R   0.264314 0.163687 0.681536 0.325022
C38   C     C_R   0.754816 0.859865 0.308391 0.342095
C39   C     C_R   0.833843 0.265096 0.681003 0.347573
C40   C     C_R   0.139814 0.755418 0.308594 0.343512
C41   C     C_R   0.736835 0.834263 0.681080 0.349161
C42   C     C_R   0.244290 0.140607 0.308845 0.343251
C43   C     C_R   0.175688 0.274786 0.321250 0.297902
C44   C     C_R   0.866140 0.757458 0.694767 0.295889
C45   C     C_R   0.273708 0.824353 0.321181 0.298025
C46   C     C_R   0.968562 0.370829 0.979693 -0.208969
C47   C     C_R   0.760040 0.133840 0.694956 0.312469
C48   C     C_R   0.823474 0.725909 0.321155 0.300820
C49   C     C_R   0.133909 0.239647 0.694704 0.314953
C50   C     C_R   0.724504 0.176829 0.321265 0.300984
C51   C     C_R   0.243775 0.865063 0.693890 0.293633
C52   C     C_R   0.663932 0.237238 0.181329 0.323566
C53   C     C_R   0.358853 0.744970 0.808810 0.341647
C54   C     C_R   0.764314 0.663686 0.181536 0.325030
C55   C     C_R   0.254817 0.359865 0.808390 0.342093
C56   C     C_R   0.333842 0.765096 0.181003 0.347576
C57   C     C_R   0.370260 0.028867 0.020508 -0.231892
C58   C     C_R   0.639815 0.255417 0.808594 0.343509
C59   C     C_R   0.236828 0.334257 0.181078 0.349144
C60   C     C_R   0.744288 0.640605 0.808844 0.343250
C61   C     C_R   0.675685 0.774785 0.821249 0.297884
C62   C     C_R   0.366135 0.257454 0.194763 0.295880
C63   C     C_R   0.773708 0.324352 0.821181 0.298030
C64   C     C_R   0.260041 0.633839 0.194958 0.312471
C65   C     C_R   0.323476 0.225909 0.821155 0.300806
C66   C     C_R   0.633908 0.739645 0.194704 0.314957
C67   C     C_R   0.224504 0.676829 0.821265 0.300982
C68   C     C_R   0.629502 0.970401 0.979543 -0.209332
C69   C     C_R   0.743773 0.365067 0.193892 0.293668
C70   C     C_R   0.161169 0.794021 0.653932 0.351890
C71   C     C_R   0.847396 0.204422 0.342849 0.385849
C72   C     C_R   0.204328 0.152106 0.656833 0.324387
C73   C     C_R   0.795153 0.848882 0.342520 0.385391
C74   C     C_R   0.844715 0.205239 0.655970 0.363508
C75   C     C_R   0.150688 0.796182 0.342635 0.385967
C76   C     C_R   0.794040 0.837333 0.653819 0.377327
C77   C     C_R   0.203273 0.151838 0.342808 0.386125
C78   C     C_R   0.171761 0.220080 0.350040 0.288854
C79   C     C_R   0.250835 0.805619 0.720482 -0.179669
C80   C     C_R   0.859230 0.799705 0.660810 0.313696
C81   C     C_R   0.218794 0.827812 0.349966 0.289268
C82   C     C_R   0.810440 0.138620 0.664071 0.347756
C83   C     C_R   0.826670 0.780754 0.349925 0.288077
C84   C     C_R   0.138399 0.188329 0.664239 0.338128
C85   C     C_R   0.779088 0.173081 0.350080 0.287632
C86   C     C_R   0.201262 0.857956 0.660089 0.310827
C87   C     C_R   0.661157 0.294035 0.153935 0.351818
C88   C     C_R   0.347394 0.704425 0.842851 0.385847
C89   C     C_R   0.704327 0.652103 0.156834 0.324389
C90   C     C_R   0.739711 0.208138 0.283903 -0.181576
C91   C     C_R   0.295155 0.348883 0.842520 0.385395
C92   C     C_R   0.344715 0.705238 0.155971 0.363512
C93   C     C_R   0.650688 0.296181 0.842635 0.385963
C94   C     C_R   0.294030 0.337325 0.153815 0.377343
C95   C     C_R   0.703269 0.651836 0.842808 0.386132
C96   C     C_R   0.671757 0.720078 0.850039 0.288851
C97   C     C_R   0.359221 0.299698 0.160805 0.313703
C98   C     C_R   0.718794 0.327811 0.849966 0.289266
C99   C     C_R   0.310441 0.638619 0.164072 0.347756
C100  C     C_R   0.326673 0.280755 0.849924 0.288075
C101  C     C_R   0.194201 0.249581 0.720562 -0.173554
C102  C     C_R   0.638398 0.688325 0.164240 0.338117
C103  C     C_R   0.279087 0.673083 0.850081 0.287627
C104  C     C_R   0.701257 0.357967 0.160094 0.310833
C105  C     C_R   0.498533 0.000226 0.520444 0.062419
C106  C     C_R   0.498689 0.000222 0.479629 0.059000
C107  C     C_R   0.999898 0.499622 0.520437 0.062387
C108  C     C_R   0.999862 0.499632 0.479625 0.058916
C109  C     C_R   0.998535 0.500226 0.020444 0.062418
C110  C     C_R   0.998691 0.500221 0.979629 0.058999
C111  C     C_R   0.499898 0.999619 0.020437 0.062393
C112  C     C_R   0.528739 0.129635 0.479768 -0.209056
C113  C     C_R   0.792216 0.740601 0.283789 -0.180197
C114  C     C_R   0.499862 0.999630 0.979625 0.058905
C115  C     C_3   0.183382 0.632276 0.648614 -0.205662
C116  C     C_3   0.972680 0.228771 0.284475 -0.324057
C117  C     C_3   0.370068 0.196431 0.652556 -0.257740
C118  C     C_3   0.770929 0.973559 0.284080 -0.318025
C119  C     C_3   0.798924 0.371318 0.653300 -0.279012
C120  C     C_3   0.026149 0.771103 0.284240 -0.320294
C121  C     C_3   0.631877 0.812678 0.648760 -0.235833
C122  C     C_3   0.228638 0.026858 0.284467 -0.325413
C123  C     C_3   0.219751 0.379168 0.347440 -0.201456
C124  C     C_R   0.749919 0.194347 0.720710 -0.178712
C125  C     C_3   0.975294 0.780339 0.723131 -0.189520
C126  C     C_3   0.378241 0.781178 0.347525 -0.198729
C127  C     C_3   0.681013 0.043613 0.675259 -0.137913
C128  C     C_3   0.779846 0.621228 0.347238 -0.211363
C129  C     C_3   0.045116 0.319762 0.674422 -0.144289
C130  C     C_3   0.619901 0.221625 0.347048 -0.214685
C131  C     C_3   0.223316 0.976120 0.720730 -0.179726
C132  C     C_3   0.683357 0.132288 0.148614 -0.205697
C133  C     C_3   0.472679 0.728775 0.784477 -0.324053
C134  C     C_3   0.870066 0.696430 0.152556 -0.257739
C135  C     C_R   0.259097 0.792702 0.283867 -0.185632
C136  C     C_3   0.270929 0.473560 0.784080 -0.318025
C137  C     C_3   0.298921 0.871317 0.153301 -0.279030
C138  C     C_3   0.526149 0.271103 0.784240 -0.320295
C139  C     C_3   0.131864 0.312661 0.148765 -0.235824
C140  C     C_3   0.728637 0.526857 0.784466 -0.325418
C141  C     C_3   0.719746 0.879166 0.847441 -0.201422
C142  C     C_3   0.475292 0.280335 0.223123 -0.189507
C143  C     C_3   0.878242 0.281178 0.847525 -0.198728
C144  C     C_3   0.181016 0.543608 0.175261 -0.137923
C145  C     C_3   0.279850 0.121229 0.847239 -0.211325
C146  C     C_R   0.805908 0.749269 0.720845 -0.186516
C147  C     C_3   0.545115 0.819760 0.174421 -0.144298
C148  C     C_3   0.119900 0.721623 0.847050 -0.214698
C149  C     C_3   0.723321 0.476124 0.220734 -0.179656
C150  C     C_3   0.235803 0.576803 0.887183 -0.177401
C151  C     C_3   0.762019 0.426841 0.114866 -0.152423
C152  C     C_3   0.422586 0.237862 0.887371 -0.177434
C153  C     C_3   0.581883 0.692559 0.104595 -0.188860
C154  C     C_3   0.761328 0.424222 0.887234 -0.178894
C155  C     C_3   0.306301 0.578506 0.105281 -0.198144
C156  C     C_3   0.575066 0.763027 0.887088 -0.178749
C157  C     C_R   0.207494 0.259801 0.283953 -0.187348
C158  C     C_3   0.435380 0.243131 0.117075 -0.138657
C159  C     C_3   0.292194 0.344861 0.086638 -0.254352
C160  C     C_3   0.629880 0.575712 0.878678 -0.322195
C161  C     C_3   0.371742 0.746881 0.094477 -0.338539
C162  C     C_3   0.574067 0.369160 0.878522 -0.321556
C163  C     C_3   0.745939 0.618178 0.096176 -0.274054
C164  C     C_3   0.367611 0.425411 0.878574 -0.321407
C165  C     C_3   0.649532 0.291417 0.086842 -0.214900
C166  C     C_3   0.423422 0.631527 0.878906 -0.321809
C167  C     C_3   0.735803 0.076802 0.387183 -0.177401
C168  C     C_R   0.251803 0.197361 0.280655 -0.199610
C169  C     C_3   0.262031 0.926856 0.614872 -0.152238
C170  C     C_3   0.922586 0.737866 0.387370 -0.177449
C171  C     C_3   0.081885 0.192568 0.604594 -0.188857
C172  C     C_3   0.261329 0.924223 0.387234 -0.178896
C173  C     C_3   0.806299 0.078510 0.605279 -0.198137
C174  C     C_3   0.075065 0.263020 0.387086 -0.178764
C175  C     C_3   0.935390 0.743144 0.617079 -0.138710
C176  C     C_3   0.792229 0.844889 0.586642 -0.254354
C177  C     C_3   0.129884 0.075714 0.378679 -0.322186
C178  C     C_3   0.871745 0.246883 0.594476 -0.338536
C179  C     C_R   0.745077 0.795791 0.717041 -0.170787
C180  C     C_3   0.074067 0.869163 0.378521 -0.321561
C181  C     C_3   0.245940 0.118183 0.596175 -0.274113
C182  C     C_3   0.867608 0.925409 0.378575 -0.321407
C183  C     C_3   0.149574 0.791373 0.586839 -0.214897
C184  C     C_3   0.923422 0.131521 0.378905 -0.321815
C185  C     C_R   0.196835 0.748211 0.280437 -0.198836
C186  C     C_R   0.795258 0.256026 0.716899 -0.171543
C187  C     C_R   0.747821 0.802873 0.280246 -0.197102
C188  C     C_R   0.129497 0.470188 0.520141 -0.231073
C189  C     C_R   0.255663 0.203761 0.716987 -0.189346
C190  C     C_R   0.802224 0.252260 0.280558 -0.198661
C191  C     C_R   0.203580 0.745202 0.716975 -0.190279
C192  C     C_R   0.750833 0.305621 0.220483 -0.179687
C193  C     C_R   0.239710 0.708138 0.783904 -0.181570
C194  C     C_R   0.694201 0.749580 0.220562 -0.173553
C195  C     C_R   0.292216 0.240601 0.783789 -0.180193
C196  C     C_R   0.249919 0.694346 0.220710 -0.178710
C197  C     C_R   0.759098 0.292702 0.783867 -0.185632
C198  C     C_R   0.305906 0.249266 0.220843 -0.186510
C199  C     C_R   0.870252 0.528985 0.479908 -0.208783
C200  C     C_R   0.707492 0.759800 0.783953 -0.187346
C201  C     C_R   0.751801 0.697360 0.780655 -0.199606
C202  C     C_R   0.245074 0.295789 0.217040 -0.170789
C203  C     C_R   0.696835 0.248210 0.780437 -0.198837
C204  C     C_R   0.295258 0.756026 0.216900 -0.171545
C205  C     C_R   0.247822 0.302874 0.780246 -0.197102
C206  C     C_R   0.755663 0.703761 0.216987 -0.189353
C207  C     C_R   0.302223 0.752261 0.780558 -0.198660
C208  C     C_R   0.703575 0.245206 0.216976 -0.190264
C209  C     C_R   0.304287 0.804568 0.750232 -0.014037
C210  C     C_R   0.528626 0.129635 0.520366 -0.231261
C211  C     C_R   0.695260 0.198164 0.250053 -0.028236
C212  C     C_R   0.195345 0.304116 0.749946 0.006839
C213  C     C_R   0.802444 0.695828 0.250079 -0.030162
C214  C     C_R   0.695624 0.195484 0.750196 0.007881
C215  C     C_R   0.303817 0.802703 0.250068 -0.011815
C216  C     C_R   0.804544 0.695589 0.750448 -0.014594
C217  C     C_R   0.197851 0.304356 0.250089 -0.008649
C218  C     C_R   0.304545 0.195589 0.250447 -0.014596
C219  C     C_R   0.697851 0.804356 0.750090 -0.008649
C220  C     C_R   0.195624 0.695484 0.250196 0.007882
C221  C     C_R   0.468555 0.870830 0.479693 -0.208968
C222  C     C_R   0.803817 0.302703 0.750067 -0.011816
C223  C     C_R   0.695344 0.804116 0.249945 0.006840
C224  C     C_R   0.302444 0.195828 0.750078 -0.030161
C225  C     C_R   0.804287 0.304568 0.250233 -0.014040
C226  C     C_R   0.195261 0.698163 0.750053 -0.028240
C227  C     C_R   0.513678 0.064752 0.581402 -0.283985
C228  C     C_R   0.484615 0.935489 0.418662 -0.253702
C229  C     C_R   0.935266 0.514291 0.581469 -0.278324
C230  C     C_R   0.064592 0.485463 0.418597 -0.253811
C231  C     C_R   0.483852 0.935520 0.581380 -0.281574
C232  C     C_R   0.870293 0.529019 0.520508 -0.231891
C233  C     C_R   0.513899 0.064793 0.418698 -0.255501
C234  C     C_R   0.064690 0.485142 0.581296 -0.285536
C235  C     C_R   0.935093 0.514045 0.418760 -0.254837
C236  C     C_R   0.013677 0.564752 0.081402 -0.283986
C237  C     C_R   0.984619 0.435488 0.918662 -0.253700
C238  C     C_R   0.435250 0.014217 0.081468 -0.278313
C239  C     C_R   0.564607 0.985533 0.918597 -0.253776
C240  C     C_R   0.983856 0.435519 0.081380 -0.281557
C241  C     C_R   0.013897 0.564794 0.918698 -0.255502
C242  C     C_R   0.564705 0.985210 0.081295 -0.285491
C243  C     C_R   0.129470 0.470255 0.479543 -0.209335
C244  C     C_R   0.435078 0.013972 0.918760 -0.254799
C245  C     C_R   0.499078 0.000058 0.601700 -0.032482
C246  C     C_R   0.499528 0.000092 0.398348 -0.052744
C247  C     C_R   0.000035 0.499879 0.601693 -0.032205
C248  C     C_R   0.999852 0.499827 0.398347 -0.053067
C249  C     C_R   0.999079 0.500057 0.101700 -0.032481
C250  C     C_R   0.999529 0.500092 0.898348 -0.052746
C251  C     C_R   0.500034 0.999877 0.101693 -0.032244
C252  C     C_R   0.499852 0.999826 0.898347 -0.053122
C253  C     C_R   0.483449 0.935148 0.540816 0.115911
C254  C     C_R   0.968350 0.370842 0.020294 -0.231946
C255  C     C_R   0.513835 0.065277 0.459258 0.114327
C256  C     C_R   0.065086 0.484904 0.540733 0.120095
C257  C     C_R   0.934676 0.514294 0.459324 0.114576
C258  C     C_R   0.513618 0.065277 0.540845 0.116821
C259  C     C_R   0.483841 0.935132 0.459221 0.114041
C260  C     C_R   0.934754 0.514356 0.540914 0.112579
C261  C     C_R   0.065025 0.485022 0.459148 0.113766
C262  C     C_R   0.983453 0.435147 0.040816 0.115909
C263  C     C_R   0.013833 0.565277 0.959258 0.114327
C264  C     C_R   0.565101 0.984974 0.040733 0.120088
H1    H     H_    0.525752 0.114577 0.597126 0.145627
H2    H     H_    0.973134 0.385569 0.902962 0.159583
H3    H     H_    0.160127 0.297900 0.121253 0.137335
H4    H     H_    0.078451 0.335835 0.140517 0.201733
H5    H     H_    0.714515 0.548361 0.755132 0.156581
H6    H     H_    0.678203 0.517514 0.801801 0.148222
H7    H     H_    0.755316 0.473180 0.780371 0.181933
H8    H     H_    0.706072 0.936739 0.854048 0.176195
H9    H     H_    0.737579 0.853032 0.875048 0.161411
H10   H     H_    0.765334 0.879714 0.825956 0.153628
H11   H     H_    0.448580 0.296953 0.250891 0.138825
H12   H     H_    0.485989 0.328916 0.204594 0.195669
H13   H     H_    0.385314 0.025874 0.097251 0.149235
H14   H     H_    0.528849 0.256195 0.230509 0.175668
H15   H     H_    0.878960 0.235306 0.826253 0.158649
H16   H     H_    0.935778 0.295165 0.853945 0.175639
H17   H     H_    0.852241 0.263621 0.875268 0.162096
H18   H     H_    0.137835 0.510725 0.189522 0.166378
H19   H     H_    0.208555 0.507569 0.153929 0.233685
H20   H     H_    0.153535 0.589597 0.159921 0.090826
H21   H     H_    0.293997 0.063890 0.854068 0.173774
H22   H     H_    0.261167 0.147518 0.874706 0.165167
H23   H     H_    0.234731 0.119937 0.825585 0.149003
H24   H     H_    0.614603 0.974265 0.902851 0.160463
H25   H     H_    0.511304 0.862649 0.188332 0.163753
H26   H     H_    0.510204 0.792430 0.152586 0.231511
H27   H     H_    0.591826 0.847442 0.159745 0.094523
H28   H     H_    0.118742 0.766255 0.825083 0.143824
H29   H     H_    0.062512 0.707883 0.854117 0.174071
H30   H     H_    0.146364 0.740771 0.874324 0.164299
H31   H     H_    0.748867 0.529176 0.227749 0.176790
H32   H     H_    0.705277 0.451056 0.248658 0.129256
H33   H     H_    0.675496 0.487524 0.201810 0.203640
H34   H     H_    0.253251 0.544335 0.861385 0.191735
H35   H     H_    0.971916 0.385665 0.097094 0.146946
H36   H     H_    0.175417 0.577991 0.889135 0.207963
H37   H     H_    0.255673 0.548062 0.913503 0.172268
H38   H     H_    0.797157 0.464285 0.131934 0.229784
H39   H     H_    0.751044 0.453436 0.086498 0.161079
H40   H     H_    0.792052 0.375324 0.108449 0.079514
H41   H     H_    0.455288 0.254632 0.861533 0.192977
H42   H     H_    0.421299 0.177536 0.889645 0.207791
H43   H     H_    0.451143 0.258303 0.913630 0.172098
H44   H     H_    0.617912 0.740906 0.100232 0.073401
H45   H     H_    0.527205 0.708120 0.093895 0.199141
H46   H     H_    0.025702 0.614667 0.903021 0.160881
H47   H     H_    0.600316 0.646273 0.086304 0.197558
H48   H     H_    0.744183 0.456646 0.861433 0.193348
H49   H     H_    0.821688 0.423181 0.889319 0.207663
H50   H     H_    0.740984 0.452901 0.913538 0.172177
H51   H     H_    0.255836 0.611549 0.101082 0.077501
H52   H     H_    0.293634 0.522336 0.095497 0.209083
H53   H     H_    0.350766 0.598720 0.086242 0.199164
H54   H     H_    0.542766 0.745365 0.861340 0.192465
H55   H     H_    0.576085 0.823412 0.888920 0.208057
H56   H     H_    0.546250 0.743227 0.913456 0.172097
H57   H     H_    0.614633 0.973480 0.096943 0.143125
H58   H     H_    0.386385 0.210169 0.109393 0.077407
H59   H     H_    0.473322 0.210336 0.135094 0.240460
H60   H     H_    0.464172 0.255769 0.089457 0.177464
H61   H     H_    0.254966 0.370411 0.065195 0.168570
H62   H     H_    0.276553 0.286262 0.088851 0.104605
H63   H     H_    0.348360 0.349866 0.074885 0.212185
H64   H     H_    0.593438 0.578376 0.852742 0.107526
H65   H     H_    0.607206 0.608337 0.903031 0.214622
H66   H     H_    0.630361 0.518393 0.888573 0.155836
H67   H     H_    0.387135 0.805199 0.096814 0.210670
H68   H     H_    0.385094 0.025321 0.903134 0.159603
H69   H     H_    0.311935 0.740919 0.089641 0.124259
H70   H     H_    0.399213 0.725287 0.068079 0.170683
H71   H     H_    0.576857 0.405765 0.852628 0.106879
H72   H     H_    0.606437 0.391748 0.902927 0.214983
H73   H     H_    0.516656 0.368504 0.888362 0.155902
H74   H     H_    0.803898 0.601848 0.099171 0.201168
H75   H     H_    0.741348 0.677473 0.089540 0.110163
H76   H     H_    0.724165 0.588475 0.070578 0.168139
H77   H     H_    0.404473 0.422968 0.852718 0.106901
H78   H     H_    0.390039 0.392830 0.902932 0.214953
H79   H     H_    0.456547 0.820599 0.535643 0.138355
H80   H     H_    0.366722 0.482692 0.888556 0.155891
H81   H     H_    0.621827 0.254307 0.066086 0.161470
H82   H     H_    0.707872 0.274501 0.088058 0.097388
H83   H     H_    0.645056 0.347404 0.074882 0.210026
H84   H     H_    0.421202 0.594904 0.852983 0.107479
H85   H     H_    0.390532 0.608970 0.903175 0.214496
H86   H     H_    0.480616 0.632216 0.888980 0.155829
H87   H     H_    0.753252 0.044333 0.361385 0.191735
H88   H     H_    0.675417 0.077991 0.389134 0.207964
H89   H     H_    0.755672 0.048062 0.413503 0.172266
H90   H     H_    0.540531 0.179876 0.464411 0.143928
H91   H     H_    0.297120 0.964347 0.631938 0.229825
H92   H     H_    0.251064 0.953411 0.586492 0.161033
H93   H     H_    0.292116 0.875357 0.608480 0.079507
H94   H     H_    0.955287 0.754643 0.361534 0.192971
H95   H     H_    0.921304 0.677540 0.389641 0.207783
H96   H     H_    0.951140 0.758305 0.413631 0.172104
H97   H     H_    0.117914 0.240915 0.600232 0.073392
H98   H     H_    0.027208 0.208130 0.593894 0.199137
H99   H     H_    0.100319 0.146284 0.586302 0.197560
H100  H     H_    0.244185 0.956647 0.361433 0.193349
H101  H     H_    0.179838 0.458730 0.535431 0.138262
H102  H     H_    0.321689 0.923181 0.389319 0.207663
H103  H     H_    0.240986 0.952902 0.413538 0.172179
H104  H     H_    0.755836 0.111556 0.601080 0.077496
H105  H     H_    0.793630 0.022342 0.595495 0.209073
H106  H     H_    0.850765 0.098722 0.586240 0.199162
H107  H     H_    0.042767 0.245348 0.361340 0.192458
H108  H     H_    0.076075 0.323405 0.388914 0.208050
H109  H     H_    0.046251 0.243223 0.413456 0.172104
H110  H     H_    0.886392 0.710195 0.609387 0.077390
H111  H     H_    0.973316 0.710334 0.635100 0.240442
H112  H     H_    0.473128 0.885570 0.402962 0.159584
H113  H     H_    0.819917 0.540438 0.464608 0.143572
H114  H     H_    0.964198 0.755785 0.589467 0.177522
H115  H     H_    0.755023 0.870452 0.565193 0.168557
H116  H     H_    0.776575 0.786293 0.588846 0.104613
H117  H     H_    0.848403 0.849890 0.574900 0.212202
H118  H     H_    0.093442 0.078378 0.352744 0.107523
H119  H     H_    0.107211 0.108339 0.403032 0.214619
H120  H     H_    0.130365 0.018395 0.388574 0.155836
H121  H     H_    0.887139 0.305200 0.596814 0.210667
H122  H     H_    0.811938 0.240922 0.589641 0.124259
H123  H     H_    0.899216 0.225288 0.568079 0.170682
H124  H     H_    0.540327 0.179882 0.535746 0.138110
H125  H     H_    0.076857 0.905767 0.352627 0.106880
H126  H     H_    0.106438 0.891750 0.402926 0.214985
H127  H     H_    0.016657 0.868508 0.388362 0.155900
H128  H     H_    0.303899 0.101855 0.599170 0.201160
H129  H     H_    0.241347 0.177478 0.589538 0.110179
H130  H     H_    0.224168 0.088478 0.570577 0.168166
H131  H     H_    0.904470 0.922969 0.352720 0.106901
H132  H     H_    0.890036 0.892828 0.402933 0.214952
H133  H     H_    0.866718 0.982690 0.388559 0.155891
H134  H     H_    0.121979 0.754126 0.566109 0.161423
H135  H     H_    0.456891 0.820582 0.464303 0.143961
H136  H     H_    0.207957 0.774610 0.588075 0.097400
H137  H     H_    0.144968 0.847317 0.574839 0.210022
H138  H     H_    0.921196 0.094896 0.352981 0.107481
H139  H     H_    0.890534 0.108967 0.403175 0.214498
H140  H     H_    0.980617 0.132207 0.388975 0.155823
H141  H     H_    0.819981 0.540485 0.535946 0.138256
H142  H     H_    0.179784 0.458823 0.464096 0.144020
H143  H     H_    0.956557 0.320597 0.035642 0.138354
H144  H     H_    0.040524 0.679878 0.964411 0.143925
H145  H     H_    0.679883 0.958933 0.035430 0.138258
H146  H     H_    0.319870 0.040229 0.964608 0.143552
H147  H     H_    0.040320 0.679884 0.035746 0.138108
H148  H     H_    0.885343 0.526004 0.597252 0.149228
H149  H     H_    0.956901 0.320580 0.964303 0.143959
H150  H     H_    0.319934 0.040275 0.035945 0.138252
H151  H     H_    0.679829 0.959027 0.964096 0.144000
H152  H     H_    0.198536 0.660947 0.621328 0.126872
H153  H     H_    0.159207 0.579703 0.639809 0.198581
H154  H     H_    0.233263 0.620068 0.665866 0.134537
H155  H     H_    0.951226 0.214440 0.255154 0.157568
H156  H     H_    0.981851 0.178484 0.301867 0.147910
H157  H     H_    0.026445 0.255265 0.280358 0.181901
H158  H     H_    0.339652 0.222147 0.628195 0.104004
H159  H     H_    0.114575 0.474137 0.402851 0.160471
H160  H     H_    0.422078 0.175511 0.640462 0.195350
H161  H     H_    0.383465 0.238975 0.674512 0.161715
H162  H     H_    0.785591 0.952074 0.254768 0.156747
H163  H     H_    0.821029 0.982858 0.301587 0.146183
H164  H     H_    0.744377 0.027268 0.279975 0.182074
H165  H     H_    0.771724 0.341341 0.629228 0.109741
H166  H     H_    0.819049 0.423624 0.641234 0.197741
H167  H     H_    0.757767 0.384196 0.676138 0.164988
H168  H     H_    0.047737 0.785479 0.254916 0.155750
H169  H     H_    0.016668 0.821370 0.301661 0.146596
H170  H     H_    0.471909 0.885667 0.597094 0.146947
H171  H     H_    0.972509 0.744422 0.280142 0.182461
H172  H     H_    0.621153 0.762771 0.666316 0.138782
H173  H     H_    0.660152 0.797911 0.621252 0.137329
H174  H     H_    0.578473 0.835861 0.640503 0.201728
H175  H     H_    0.214528 0.048357 0.255129 0.156593
H176  H     H_    0.178198 0.017527 0.301797 0.148210
H177  H     H_    0.255312 0.973177 0.280378 0.181925
H178  H     H_    0.206078 0.436741 0.354046 0.176207
H179  H     H_    0.237584 0.353036 0.375048 0.161406
H180  H     H_    0.265338 0.379714 0.325955 0.153637
H181  H     H_    0.525706 0.114666 0.403021 0.160882
H182  H     H_    0.948580 0.796951 0.750899 0.138835
H183  H     H_    0.985988 0.828924 0.704604 0.195657
H184  H     H_    0.028852 0.756200 0.730516 0.175663
H185  H     H_    0.378959 0.735305 0.326253 0.158652
H186  H     H_    0.435778 0.795164 0.353945 0.175640
H187  H     H_    0.352241 0.763621 0.375268 0.162099
H188  H     H_    0.637832 0.010728 0.689520 0.166384
H189  H     H_    0.708550 0.007575 0.653925 0.233689
H190  H     H_    0.653531 0.089603 0.659921 0.090823
H191  H     H_    0.793991 0.563888 0.354065 0.173784
H192  H     H_    0.114605 0.473358 0.596945 0.143124
H193  H     H_    0.761163 0.647515 0.374705 0.165164
H194  H     H_    0.734727 0.619939 0.325584 0.149011
H195  H     H_    0.011305 0.362652 0.688333 0.163752
H196  H     H_    0.010203 0.292432 0.652586 0.231512
H197  H     H_    0.091826 0.347443 0.659745 0.094509
H198  H     H_    0.618738 0.266253 0.325079 0.143829
H199  H     H_    0.562514 0.207885 0.354119 0.174066
H200  H     H_    0.646369 0.240780 0.374321 0.164294
H201  H     H_    0.248861 0.029173 0.727746 0.176798
H202  H     H_    0.205269 0.951052 0.748654 0.129273
H203  H     H_    0.885122 0.525452 0.403134 0.159610
H204  H     H_    0.175494 0.987519 0.701805 0.203643
H205  H     H_    0.698479 0.160946 0.121319 0.126916
H206  H     H_    0.659190 0.079704 0.139823 0.198591
H207  H     H_    0.733255 0.120101 0.165856 0.134508
H208  H     H_    0.451225 0.714442 0.755156 0.157566
H209  H     H_    0.481852 0.678490 0.801870 0.147910
H210  H     H_    0.526444 0.755270 0.780360 0.181901
H211  H     H_    0.839651 0.722145 0.128195 0.104003
H212  H     H_    0.922077 0.675510 0.140462 0.195349
H213  H     H_    0.883464 0.738974 0.174511 0.161713
H214  H     H_    0.025748 0.614579 0.097126 0.145628
H215  H     H_    0.285592 0.452075 0.754768 0.156745
H216  H     H_    0.321029 0.482860 0.801587 0.146186
H217  H     H_    0.244377 0.527268 0.779975 0.182074
H218  H     H_    0.271722 0.841340 0.129228 0.109744
H219  H     H_    0.319044 0.923625 0.141236 0.197720
H220  H     H_    0.257763 0.884192 0.176139 0.164989
H221  H     H_    0.547738 0.285481 0.754916 0.155750
H222  H     H_    0.516668 0.321370 0.801661 0.146597
H223  H     H_    0.472509 0.244422 0.780141 0.182463
H224  H     H_    0.121158 0.262752 0.166323 0.138763
O1    O     O_3   1.000000 0.500000 0.750000 -0.499543
O2    O     O_R   0.060740 0.500000 0.337440 -0.632762
O3    O     O_3   0.401807 0.703875 0.870812 -0.556804
O4    O     O_3   0.763920 0.148581 0.387536 -0.597037
O5    O     O_3   0.194663 0.915281 0.634066 -0.543369
O6    O     O_3   0.850820 0.766079 0.387468 -0.597526
O7    O     O_3   0.075673 0.170359 0.643892 -0.511179
O8    O     O_3   0.233379 0.852384 0.387464 -0.597862
O9    O     O_3   0.830167 0.075563 0.644364 -0.518081
O10   O     O_3   0.146916 0.235050 0.387482 -0.597585
O11   O     O_3   0.917876 0.809627 0.635802 -0.554738
O12   O     O_3   0.786320 0.883569 0.622113 -0.558465
O13   O     O_R   0.500000 0.939260 0.662560 -0.653414
O14   O     O_3   0.202362 0.097249 0.370703 -0.557241
O15   O     O_3   0.897543 0.207873 0.627114 -0.547246
O16   O     O_3   0.095852 0.796793 0.370484 -0.556813
O17   O     O_3   0.205777 0.096661 0.629370 -0.530477
O18   O     O_3   0.795353 0.903607 0.370385 -0.556539
O19   O     O_3   0.112942 0.787234 0.623012 -0.545839
O20   O     O_3   0.901810 0.203870 0.370810 -0.556804
O21   O     O_R   0.500000 0.060740 0.337440 -0.632663
O22   O     O_R   0.560740 0.000000 0.162560 -0.667310
O23   O     O_R   0.439260 0.000000 0.837440 -0.633331
O24   O     O_R   0.000000 0.560740 0.162560 -0.657859
O25   O     O_R   0.000000 0.439260 0.837440 -0.633464
O26   O     O_R   0.439260 0.000000 0.162560 -0.644743
O27   O     O_R   0.560740 0.000000 0.837440 -0.632772
O28   O     O_R   0.000000 0.439260 0.162560 -0.653416
O29   O     O_3   0.000000 0.500000 0.250000 -0.499862
O30   O     O_R   0.000000 0.560740 0.837440 -0.632664
O31   O     O_R   0.853850 0.585450 0.727070 -0.656081
O32   O     O_R   0.146150 0.414550 0.272930 -0.590059
O33   O     O_R   0.414550 0.853850 0.727070 -0.652943
O34   O     O_R   0.585450 0.146150 0.272930 -0.606257
O35   O     O_R   0.146150 0.414550 0.727070 -0.678584
O36   O     O_R   0.853850 0.585450 0.272930 -0.607841
O37   O     O_R   0.585450 0.146150 0.727070 -0.680431
O38   O     O_R   0.414550 0.853850 0.272930 -0.589662
O39   O     O_R   0.853850 0.414550 0.272930 -0.634683
O40   O     O_3   0.500000 0.000000 0.750000 -0.499860
O41   O     O_R   0.146150 0.585450 0.727070 -0.625739
O42   O     O_R   0.414550 0.146150 0.272930 -0.631855
O43   O     O_R   0.585450 0.853850 0.727070 -0.639424
O44   O     O_R   0.146150 0.585450 0.272930 -0.610828
O45   O     O_R   0.853850 0.414550 0.727070 -0.639050
O46   O     O_R   0.585450 0.853850 0.272930 -0.612062
O47   O     O_R   0.414550 0.146150 0.727070 -0.623885
O48   O     O_R   0.353850 0.085450 0.227070 -0.656078
O49   O     O_R   0.646150 0.914550 0.772930 -0.590060
O50   O     O_R   0.914550 0.353850 0.227070 -0.652943
O51   O     O_3   0.500000 0.000000 0.250000 -0.499541
O52   O     O_R   0.085450 0.646150 0.772930 -0.606254
O53   O     O_R   0.646150 0.914550 0.227070 -0.678582
O54   O     O_R   0.353850 0.085450 0.772930 -0.607839
O55   O     O_R   0.085450 0.646150 0.227070 -0.680433
O56   O     O_R   0.914550 0.353850 0.772930 -0.589661
O57   O     O_R   0.353850 0.914550 0.772930 -0.634683
O58   O     O_R   0.646150 0.085450 0.227070 -0.625746
O59   O     O_R   0.914550 0.646150 0.772930 -0.631851
O60   O     O_R   0.085450 0.353850 0.227070 -0.639421
O61   O     O_R   0.646150 0.085450 0.772930 -0.610833
O62   O     O_R   0.060740 0.500000 0.662560 -0.667286
O63   O     O_R   0.353850 0.914550 0.227070 -0.639048
O64   O     O_R   0.085450 0.353850 0.772930 -0.612063
O65   O     O_R   0.914550 0.646150 0.227070 -0.623884
O66   O     O_3   0.131851 0.672148 0.670817 -0.558500
O67   O     O_3   0.926070 0.277996 0.303991 -0.589140
O68   O     O_3   0.331167 0.137643 0.669478 -0.564049
O69   O     O_3   0.721581 0.926907 0.303427 -0.586464
O70   O     O_3   0.858838 0.332193 0.668793 -0.587291
O71   O     O_3   0.072820 0.722058 0.303698 -0.586387
O72   O     O_3   0.671368 0.865190 0.670325 -0.585519
O73   O     O_R   0.939260 0.500000 0.337440 -0.633324
O74   O     O_3   0.277571 0.073512 0.304042 -0.588897
O75   O     O_3   0.157093 0.344609 0.332269 -0.581400
O76   O     O_3   0.933551 0.727594 0.703208 -0.613546
O77   O     O_3   0.343362 0.843477 0.332137 -0.583276
O78   O     O_3   0.730786 0.066274 0.704211 -0.591600
O79   O     O_3   0.842445 0.656236 0.332177 -0.579342
O80   O     O_3   0.066530 0.269878 0.703585 -0.590467
O81   O     O_3   0.654600 0.158565 0.332335 -0.577336
O82   O     O_3   0.275273 0.932068 0.701531 -0.612769
O83   O     O_3   0.631834 0.172161 0.170820 -0.558510
O84   O     O_R   0.500000 0.060740 0.662560 -0.657860
O85   O     O_3   0.426068 0.777999 0.803993 -0.589140
O86   O     O_3   0.831167 0.637642 0.169478 -0.564034
O87   O     O_3   0.221582 0.426908 0.803427 -0.586464
O88   O     O_3   0.358836 0.832193 0.168793 -0.587287
O89   O     O_3   0.572820 0.222057 0.803698 -0.586388
O90   O     O_3   0.171359 0.365180 0.170323 -0.585512
O91   O     O_3   0.777569 0.573511 0.804041 -0.588900
O92   O     O_3   0.657090 0.844607 0.832268 -0.581400
O93   O     O_3   0.433547 0.227589 0.203202 -0.613545
O94   O     O_3   0.843362 0.343477 0.832137 -0.583275
O95   O     O_R   0.500000 0.939260 0.337440 -0.633464
O96   O     O_3   0.230788 0.566272 0.204213 -0.591602
O97   O     O_3   0.342448 0.156237 0.832177 -0.579340
O98   O     O_3   0.566530 0.769877 0.203585 -0.590467
O99   O     O_3   0.154600 0.658564 0.832335 -0.577333
O100  O     O_3   0.775275 0.432071 0.201534 -0.612748
O101  O     O_3   0.263918 0.648581 0.887537 -0.597039
O102  O     O_3   0.694661 0.415299 0.134077 -0.543368
O103  O     O_3   0.350822 0.266081 0.887468 -0.597525
O104  O     O_3   0.575671 0.670354 0.143894 -0.511179
O105  O     O_3   0.733380 0.352383 0.887464 -0.597863
O106  O     O_R   0.939260 0.500000 0.662560 -0.644748
O107  O     O_3   0.330170 0.575561 0.144366 -0.518092
O108  O     O_3   0.646914 0.735047 0.887483 -0.597585
O109  O     O_3   0.417862 0.309617 0.135794 -0.554726
O110  O     O_3   0.286305 0.383552 0.122107 -0.558475
O111  O     O_3   0.702358 0.597247 0.870703 -0.557243
O112  O     O_3   0.397542 0.707872 0.127114 -0.547251
O113  O     O_3   0.595853 0.296791 0.870484 -0.556814
O114  O     O_3   0.705776 0.596657 0.129372 -0.530440
O115  O     O_3   0.295356 0.403609 0.870385 -0.556539
O116  O     O_3   0.612918 0.287257 0.123019 -0.545823
Zn1   Zn    Zn3+2 1.000000 0.586740 0.782740 1.045326
Zn2   Zn    Zn3+2 0.500000 0.913260 0.717260 0.995369
Zn3   Zn    Zn3+2 0.913260 0.500000 0.282740 1.043034
Zn4   Zn    Zn3+2 0.086740 0.500000 0.717260 0.982149
Zn5   Zn    Zn3+2 0.500000 0.913260 0.282740 1.050826
Zn6   Zn    Zn3+2 0.500000 0.086740 0.717260 0.983262
Zn7   Zn    Zn3+2 0.086740 0.500000 0.282740 1.050934
Zn8   Zn    Zn3+2 0.913260 0.500000 0.717260 0.996536
Zn9   Zn    Zn3+2 0.000000 0.413260 0.217260 0.995367
Zn10  Zn    Zn3+2 0.413260 0.000000 0.782740 1.043031
Zn11  Zn    Zn3+2 0.586740 0.000000 0.217260 0.982141
Zn12  Zn    Zn3+2 0.000000 0.413260 0.782740 1.050824
Zn13  Zn    Zn3+2 0.000000 0.586740 0.217260 0.983264
Zn14  Zn    Zn3+2 0.586740 0.000000 0.782740 1.050930
Zn15  Zn    Zn3+2 0.413260 0.000000 0.217260 0.996543
Zn16  Zn    Zn3+2 0.500000 0.086740 0.282740 1.045329

loop_
_geom_bond_atom_site_label_1
_geom_bond_atom_site_label_2
_ccdc_geom_bond_type
O35   Zn4   S    
C115  H153  S    
C40   O71   S    
C163  H76   S    
C176  H116  S    
C104  O102  S    
C190  C225  A    
C4    C236  A    
C126  H186  S    
C136  H216  S    
C105  C253  A    
C238  H13   S    
C3    C24   A    
C228  C259  A    
C132  H207  S    
C97   O109  S    
C6    C238  A    
C204  C215  A    
C150  H34   S    
C242  C251  A    
C202  C217  A    
C122  H175  S    
O32   Zn7   S    
C63   C98   A    
O84   Zn6   S    
C140  O91   S    
C199  H113  S    
C167  H88   S    
C181  H130  S    
C66   O98   S    
C156  H55   S    
C65   O97   S    
C164  O115  S    
C1    C221  A    
C39   C74   A    
C88   O3    S    
C229  H148  S    
C7    C68   A    
C133  H208  S    
C50   C90   A    
O29   Zn7   S    
C148  O99   S    
C55   O87   S    
C165  H81   S    
C91   C100  A    
C196  C204  A    
C80   O11   S    
C155  H52   S    
C230  C261  A    
C45   O77   S    
C240  C249  A    
C137  H219  S    
C79   C191  A    
C127  H188  S    
C119  H165  S    
C16   O25   A    
C129  H196  S    
O13   Zn2   S    
C198  C218  A    
C165  H82   S    
C134  H212  S    
C157  C168  A    
C11   O21   A    
C153  H45   S    
O49   Zn14  S    
C125  H184  S    
C101  C212  A    
C183  O19   S    
C161  H70   S    
C153  H44   S    
C26   O50   A    
O31   Zn8   S    
C21   O35   A    
O57   Zn10  S    
C129  H195  S    
C9    O73   A    
C65   C100  A    
C143  H15   S    
C138  O89   S    
C159  O110  S    
C112  C255  A    
C147  H27   S    
C183  H136  S    
C15   C249  S    
C94   C97   A    
C176  H117  S    
C173  H106  S    
C159  H62   S    
C15   O28   A    
C63   C197  A    
C29   O43   A    
C136  H217  S    
C160  O111  S    
C128  H194  S    
C162  H73   S    
C117  H161  S    
C234  C247  A    
C85   O4    S    
C116  H155  S    
C158  H59   S    
C63   O94   S    
O51   Zn15  S    
C152  H43   S    
C162  O113  S    
O48   Zn15  S    
C145  H22   S    
C78   O10   S    
O43   Zn2   S    
O65   Zn13  S    
C10   O13   A    
C138  H223  S    
C76   O12   S    
C163  H74   S    
C92   O112  S    
C14   O27   A    
C30   O55   A    
C94   O110  S    
C210  C258  A    
C118  H162  S    
C136  O87   S    
C49   O80   S    
C234  C256  A    
C86   O5    S    
C148  H30   S    
C30   C220  S    
C147  H25   S    
C123  H180  S    
C139  H3    S    
C130  H199  S    
C179  C219  A    
C100  O103  S    
C45   C81   A    
C240  C262  A    
C141  O92   S    
C144  O96   S    
C230  H159  S    
C132  H205  S    
C68   H151  S    
C5    C46   A    
C101  C189  A    
C25   O38   A    
C153  O104  S    
C176  O12   S    
C16   O30   A    
C169  H92   S    
C169  O5    S    
C41   C76   A    
C124  C186  A    
C149  O100  S    
C21   O64   A    
O51   Zn11  S    
C161  O112  S    
C167  O4    S    
C183  H137  S    
C235  H203  S    
C33   C224  S    
C150  O101  S    
C93   O113  S    
C241  C263  A    
C242  C264  A    
C121  H174  S    
C188  C243  A    
C178  H122  S    
C109  C262  A    
C12   C251  S    
C142  H11   S    
C73   C83   A    
C133  H209  S    
C153  H47   S    
C82   O9    S    
C154  H48   S    
C48   O79   S    
C4    C109  A    
C172  H103  S    
C18   O32   A    
C105  C258  A    
C129  H197  S    
C6    C111  A    
O34   Zn16  S    
C221  H135  S    
C139  O90   S    
C141  H9    S    
C61   C96   A    
C67   C103  A    
C183  H134  S    
O63   Zn15  S    
C148  H29   S    
O44   Zn7   S    
C13   H145  S    
C181  H128  S    
C36   C190  A    
C49   C84   A    
C243  H142  S    
C208  C211  A    
C90   C211  A    
C154  H49   S    
C11   O95   A    
C116  H157  S    
C240  H35   S    
C228  C246  A    
C5    C110  A    
C26   C225  S    
C233  H181  S    
O26   Zn15  S    
C150  H37   S    
C140  H5    S    
C121  H173  S    
C141  H8    S    
O24   Zn13  S    
C127  O78   S    
C9    C248  S    
C38   O69   S    
C129  O80   S    
C64   C99   A    
C8    C247  S    
C24   C57   A    
C156  H54   S    
C198  C202  A    
C107  C108  A    
C111  C114  A    
C95   O111  S    
C254  H143  S    
C50   C85   A    
O40   Zn14  S    
C170  H95   S    
C123  H178  S    
C9    O2    A    
C181  O17   S    
C87   O116  S    
C177  H118  S    
O55   Zn13  S    
C108  C257  A    
C231  C245  A    
C8    O62   A    
C231  C253  A    
C159  H63   S    
C154  O105  S    
C147  H26   S    
C128  H193  S    
C119  O70   S    
C160  H66   S    
C45   C135  A    
C210  H124  S    
C173  O9    S    
C188  C256  A    
C29   O49   A    
C131  H204  S    
O45   Zn8   S    
C227  H1    S    
C70   O19   S    
C161  H67   S    
C62   O93   S    
C1    H79   S    
C10   O84   A    
C60   C95   A    
C201  C216  A    
C62   C97   A    
C144  H19   S    
C155  O107  S    
O73   Zn3   S    
C175  O11   S    
C110  C263  A    
C128  O79   S    
C115  O66   S    
C184  O20   S    
O40   Zn10  S    
C192  C225  A    
C151  O102  S    
C184  H138  S    
C106  C259  A    
C25   C215  S    
C237  C250  A    
C151  H39   S    
C235  C248  A    
C182  H133  S    
C145  H21   S    
O38   Zn5   S    
C49   C101  A    
C90   C190  A    
C180  H127  S    
C163  H75   S    
C239  C252  A    
O106  Zn8   S    
C126  H187  S    
C41   C179  A    
C14   O23   A    
C76   C80   A    
C43   C157  A    
C171  H98   S    
C36   C71   A    
C96   O108  S    
C162  H71   S    
O1    Zn4   S    
C48   C83   A    
C19   O33   A    
C93   C98   A    
C122  H176  S    
O61   Zn14  S    
C152  H42   S    
C59   C202  A    
C167  H87   S    
C187  C223  A    
C176  H115  S    
C149  H33   S    
C156  H56   S    
C143  H16   S    
C24   H146  S    
C3    C244  A    
C2    H144  S    
C51   C79   A    
C111  C264  A    
C128  H191  S    
C12   O22   A    
C229  C247  A    
C229  C260  A    
C254  C262  A    
C42   C77   A    
C22   C213  S    
C207  C209  A    
C177  H120  S    
C149  H31   S    
C36   O67   S    
C243  C261  A    
C89   O114  S    
C46   H149  S    
C18   O60   A    
C135  C185  A    
C164  H80   S    
C103  O101  S    
C92   C99   A    
C194  C223  A    
C13   C68   A    
C2    C35   A    
C120  H169  S    
C131  O82   S    
C137  H218  S    
C193  C207  A    
C185  C220  A    
C164  H77   S    
C28   O42   A    
C126  H185  S    
C174  H108  S    
C117  H158  S    
C139  H4    S    
C134  H213  S    
C142  H14   S    
C131  H202  S    
C189  C224  A    
C125  H183  S    
O29   Zn13  S    
C77   C78   A    
C43   C78   A    
C145  O97   S    
C161  H69   S    
C5    C237  A    
C180  O16   S    
C7    C114  A    
C58   C93   A    
C91   O115  S    
C195  C224  A    
C238  C251  A    
C14   C252  S    
C148  H28   S    
C127  H190  S    
C173  H105  S    
C159  H61   S    
C51   C86   A    
C69   O100  S    
C73   O18   S    
C66   C102  A    
C55   C91   A    
C227  C258  A    
C66   C194  A    
C39   C186  A    
C53   O85   S    
C116  H156  S    
C158  H60   S    
C95   C96   A    
C60   O91   S    
C1    C253  A    
C54   C206  A    
C184  H140  S    
O56   Zn12  S    
C59   C94   A    
C17   C216  S    
C236  H214  S    
C34   C70   A    
C152  O103  S    
C182  H131  S    
C139  H224  S    
C44   O76   S    
C125  O76   S    
C186  C222  A    
C173  H104  S    
C133  O85   S    
C160  H64   S    
C158  O109  S    
C74   O15   S    
C6    C57   A    
C136  H215  S    
C171  O7    S    
C118  H163  S    
C74   C82   A    
C55   C205  A    
C69   C192  A    
O29   Zn3   S    
C42   C168  A    
O27   Zn14  S    
C123  H179  S    
C31   O45   A    
O29   Zn9   S    
C167  H89   S    
C130  H200  S    
O1    Zn12  S    
C22   O36   A    
C44   C80   A    
C33   O54   A    
C234  H192  S    
C19   O57   A    
C143  O94   S    
C155  H51   S    
C155  H53   S    
C165  O116  S    
C3    C114  A    
C175  H110  S    
C75   O16   S    
C178  O15   S    
C237  H2    S    
C112  C210  A    
C199  C232  A    
C169  H91   S    
C30   O44   A    
C180  H125  S    
C52   O83   S    
C227  C245  A    
C31   C222  S    
C58   O89   S    
C31   O56   A    
O30   Zn1   S    
O28   Zn9   S    
O54   Zn10  S    
C157  C217  A    
C108  C261  A    
C10   C245  S    
C149  H32   S    
C117  O68   S    
C42   O74   S    
C39   O70   S    
C118  H164  S    
C132  O83   S    
C120  H171  S    
C35   H147  S    
C58   C203  A    
C137  H220  S    
C172  H100  S    
C119  H166  S    
C144  H18   S    
C112  H90   S    
C178  H123  S    
C165  H83   S    
C117  H160  S    
C134  H211  S    
C142  H12   S    
C32   C223  S    
C166  H85   S    
C122  O74   S    
C174  H107  S    
C79   C209  A    
C4    C35   A    
O51   Zn5   S    
C175  H114  S    
C19   C209  S    
C11   C246  S    
C241  C250  A    
C116  O67   S    
C21   C212  S    
C188  H101  S    
C156  O108  S    
C137  O88   S    
C180  H126  S    
C105  C106  A    
C120  O71   S    
O40   Zn2   S    
C205  C212  A    
C40   C75   A    
C27   O41   A    
C166  H86   S    
C170  O6    S    
O50   Zn9   S    
C171  H99   S    
C109  C110  A    
C25   O63   A    
C154  H50   S    
C61   O92   S    
O40   Zn6   S    
C47   C124  A    
C158  H58   S    
O51   Zn16  S    
C140  H7    S    
O1    Zn1   S    
C41   O72   S    
C140  H6    S    
C146  C179  A    
C121  H172  S    
C64   O96   S    
C145  H23   S    
C13   C264  A    
O42   Zn16  S    
C121  O72   S    
C87   C104  A    
C84   O7    S    
C60   C201  A    
C138  H222  S    
C132  H206  S    
C232  C260  A    
C37   C72   A    
O62   Zn4   S    
C27   O52   A    
C200  C219  A    
O52   Zn1   S    
C46   C254  A    
C120  H168  S    
C48   C113  A    
C65   C195  A    
C23   C214  S    
C170  H96   S    
C17   O31   A    
C37   C189  A    
C239  H24   S    
C130  H198  S    
C242  H57   S    
C89   C102  A    
C71   O20   S    
C203  C214  A    
C177  O14   S    
C34   O66   S    
C113  C213  A    
C236  C249  A    
C57   H150  S    
C43   O75   S    
C124  C214  A    
O95   Zn5   S    
C115  H154  S    
C8    O106  A    
C172  O8    S    
C34   C191  A    
C169  H93   S    
C193  C226  A    
C59   O90   S    
C181  H129  S    
C233  C246  A    
O1    Zn8   S    
C22   O65   A    
C199  C257  A    
C38   C187  A    
C64   C196  A    
C166  O3    S    
C32   O46   A    
O53   Zn11  S    
C33   O47   A    
C20   C211  S    
O37   Zn6   S    
C23   O37   A    
C244  H68   S    
C71   C85   A    
C102  O104  S    
C135  C215  A    
C2    C263  A    
C200  C201  A    
C172  H102  S    
C232  H141  S    
C144  H20   S    
C44   C146  A    
C107  C260  A    
O36   Zn3   S    
C197  C203  A    
C178  H121  S    
C133  H210  S    
C81   O8    S    
C115  H152  S    
C15   O24   A    
C20   O58   A    
C182  O18   S    
O46   Zn5   S    
C192  C208  A    
C141  H10   S    
C184  H139  S    
C61   C200  A    
C196  C220  A    
O59   Zn1   S    
C194  C206  A    
C142  O93   S    
C174  O10   S    
C26   O39   A    
C166  H84   S    
C62   C198  A    
C54   C89   A    
C197  C222  A    
C171  H97   S    
C113  C187  A    
O41   Zn4   S    
C16   C250  S    
C75   C81   A    
C40   C185  A    
C54   O86   S    
C162  H72   S    
C23   O61   A    
C147  O98   S    
C150  H36   S    
O39   Zn3   S    
O60   Zn9   S    
C164  H78   S    
C228  H112  S    
O64   Zn12  S    
C241  H46   S    
C195  C205  A    
C56   C92   A    
C235  C257  A    
C231  H170  S    
C134  O86   S    
C175  H111  S    
C51   O82   S    
C72   C84   A    
O25   Zn12  S    
C47   O78   S    
C170  H94   S    
C7    C239  A    
C177  H119  S    
C98   O105  S    
C70   C86   A    
C163  O114  S    
C88   C103  A    
C230  C248  A    
C206  C213  A    
C123  O75   S    
C77   O14   S    
C69   C104  A    
C160  H65   S    
C126  O77   S    
C28   C218  S    
C244  C252  A    
C119  H167  S    
C52   C208  A    
C50   O81   S    
C106  C255  A    
C47   C82   A    
C52   C87   A    
C174  H109  S    
C122  H177  S    
C56   O88   S    
C131  H201  S    
C151  H38   S    
C27   C226  S    
C125  H182  S    
C56   C204  A    
C72   O17   S    
C191  C226  A    
C83   O6    S    
O58   Zn11  S    
C37   O68   S    
O22   Zn11  S    
C130  O81   S    
C138  H221  S    
O21   Zn16  S    
C221  C259  A    
C12   O26   A    
C127  H189  S    
C53   C207  A    
C107  C256  A    
C28   O48   A    
C53   C88   A    
C182  H132  S    
C233  C255  A    
C29   C219  S    
O47   Zn6   S    
C67   O99   S    
C32   O53   A    
C143  H17   S    
C20   O34   A    
C152  H41   S    
O2    Zn7   S    
C99   O107  S    
C151  H40   S    
C17   O59   A    
C168  C218  A    
C67   C193  A    
C18   C217  S    
O33   Zn2   S    
O23   Zn10  S    
C146  C216  A    
C118  O69   S    
C38   C73   A    
