data_mof_unit_48173.cif
_audit_creation_date              2012-12-10T17:56:45-0500
_audit_creation_method            fapswitch 2.2
_symmetry_space_group_name_H-M    P1
_symmetry_Int_Tables_number       1
_space_group_crystal_system       triclinic
_cell_length_a                    10.828423
_cell_length_b                    9.793394
_cell_length_c                    10.723654
_cell_angle_alpha                 90.098314
_cell_angle_beta                  96.221597
_cell_angle_gamma                 90.071619
_cell_volume                      1130.51066363

loop_
_atom_site_label
_atom_site_type_symbol
_atom_type_description
_atom_site_fract_x
_atom_site_fract_y
_atom_site_fract_z
_atom_type_partial_charge
C1    C     C_R   0.262970 0.499904 0.501063 0.758263
C2    C     C_R   0.737147 0.499965 0.500199 0.734423
C3    C     C_R   0.936122 0.623639 0.498989 -0.213717
C4    C     C_R   0.064221 0.623605 0.502479 -0.200586
C5    C     C_R   0.438106 0.071639 0.401284 0.192241
C6    C     C_R   0.561485 0.072303 0.598906 0.192984
C7    C     C_R   0.426145 0.924711 0.410110 0.179305
C8    C     C_R   0.573595 0.925585 0.589878 0.173365
C9    C     C_R   0.501188 0.500116 0.263387 0.761942
C10   C     C_R   0.502771 0.500024 0.736799 0.768332
C11   C     C_R   0.724757 0.584602 0.154998 -0.174600
C12   C     C_R   0.728632 0.574094 0.895469 -0.205163
C13   C     C_R   0.832127 0.621014 0.101959 -0.141280
C14   C     C_R   0.834248 0.615081 0.972508 -0.127020
C15   C     C_R   0.618131 0.539698 0.947152 0.089567
C16   C     C_R   0.616789 0.542594 0.078685 0.097612
C17   C     C_R   0.507929 0.500694 0.129893 -0.089064
C18   C     C_R   0.509319 0.499435 0.871410 -0.088356
C19   C     C_R   0.402994 0.457863 0.052768 -0.229474
C20   C     C_R   0.403656 0.457288 0.924211 -0.201578
C21   C     C_R   0.063965 0.375949 0.502697 -0.192027
C22   C     C_R   0.935922 0.375980 0.499616 -0.180277
C23   C     C_R   0.871326 0.499863 0.499278 -0.010125
C24   C     C_R   0.128812 0.499787 0.502549 -0.010134
Cu1   Cu    Cu3+1 0.500000 0.640660 0.500000 0.908912
Cu2   Cu    Cu3+1 0.500000 0.359340 0.500000 0.928314
H1    H     H_    0.319237 0.427413 0.091849 0.137019
H2    H     H_    0.320784 0.425598 0.865346 0.141412
H3    H     H_    0.727395 0.589174 0.255711 0.145360
H4    H     H_    0.734960 0.567615 0.795801 0.107480
H5    H     H_    0.914292 0.652685 0.161652 0.136999
H6    H     H_    0.918176 0.641676 0.931638 0.134921
H7    H     H_    0.111608 0.278886 0.505654 0.145287
H8    H     H_    0.888085 0.278895 0.496977 0.145826
H9    H     H_    0.888194 0.720522 0.495693 0.167419
H10   H     H_    0.112310 0.720503 0.505438 0.167389
N1    N     N_R   0.500000 0.852070 0.500000 -0.226673
N2    N     N_R   0.500000 0.147940 0.500000 -0.198217
O1    O     O_R   0.319640 0.618740 0.499990 -0.591370
O2    O     O_R   0.680360 0.618740 0.500010 -0.600458
O3    O     O_R   0.319620 0.381170 0.499990 -0.574998
O4    O     O_R   0.680380 0.381170 0.500010 -0.571362
O5    O     O_R   0.500000 0.618810 0.319650 -0.601995
O6    O     O_R   0.500000 0.618810 0.680350 -0.596103
O7    O     O_R   0.499970 0.381240 0.319640 -0.573051
O8    O     O_R   0.500030 0.381240 0.680360 -0.577598
C25   C     C_3   0.389740 0.135892 0.274720 -0.270809
C26   C     C_3   0.269015 0.217809 0.274569 -0.746709
H11   H     H_    0.215469 0.183694 0.351101 0.240932
H12   H     H_    0.285246 0.328565 0.282122 0.249611
H13   H     H_    0.209915 0.202659 0.184209 0.193478
H14   H     H_    0.464522 0.185117 0.229646 0.199980
H15   H     H_    0.369508 0.059544 0.200311 0.148018
C27   C     C_3   0.608234 0.136706 0.726276 -0.273513
C28   C     C_3   0.728901 0.219670 0.728730 -0.727003
H16   H     H_    0.783415 0.186801 0.652482 0.235663
H17   H     H_    0.712705 0.330405 0.722477 0.250267
H18   H     H_    0.787128 0.204009 0.819453 0.198624
H19   H     H_    0.532519 0.185141 0.770600 0.197870
H20   H     H_    0.627800 0.060239 0.800433 0.148613
C29   C     C_3   0.332925 0.848622 0.316188 -0.313394
C30   C     C_3   0.197782 0.894302 0.318357 -0.912048
H21   H     H_    0.181887 0.936652 0.411440 0.253639
H22   H     H_    0.171555 0.969995 0.243881 0.259861
H23   H     H_    0.134000 0.806274 0.297316 0.235170
H24   H     H_    0.360958 0.850518 0.219810 0.160362
H25   H     H_    0.330399 0.740844 0.332846 0.268030
C31   C     C_3   0.666440 0.850431 0.683672 -0.318250
C32   C     C_3   0.801627 0.896465 0.682388 -0.905571
H26   H     H_    0.865194 0.808583 0.703798 0.238165
H27   H     H_    0.818125 0.938543 0.589484 0.252405
H28   H     H_    0.827351 0.972454 0.757035 0.259854
H29   H     H_    0.638003 0.851197 0.779915 0.169827
H30   H     H_    0.668489 0.743518 0.664787 0.267780

loop_
_geom_bond_atom_site_label_1
_geom_bond_atom_site_label_2
_ccdc_geom_bond_type
C10   O8    A    
C15   C18   A    
C30   H22   S    
C28   H16   S    
C4    H10   S    
C9    O7    A    
C25   H14   S    
C32   H28   S    
C19   H1    S    
C11   C16   A    
C29   H25   S    
C3    C23   A    
C19   C20   A    
Cu2   O7    S    
C12   C15   A    
C3    H9    S    
C25   H15   S    
Cu1   N1    S    
C21   C22   A    
Cu1   O5    S    
C6    N2    A    
C31   H29   S    
C27   H20   S    
C13   C14   A    
Cu1   O1    S    
C1    O3    A    
C11   C13   A    
C11   H3    S    
C30   H21   S    
C26   H13   S    
C2    O4    A    
C4    C24   A    
C15   C16   A    
Cu1   O6    S    
C26   H12   S    
C26   H11   S    
C17   C19   A    
C12   C14   A    
C8    C31   S    
C18   C20   A    
C27   H19   S    
C28   H17   S    
Cu1   O2    S    
C10   C18   S    
C29   C30   S    
C22   H8    S    
C32   H26   S    
C21   C24   A    
C9    O5    A    
C21   H7    S    
C8    N1    A    
C1    O1    A    
C10   O6    A    
C3    C4    A    
C5    C25   S    
C16   C17   A    
C2    O2    A    
C14   H6    S    
Cu2   O4    S    
C1    C24   S    
C32   H27   S    
C28   H18   S    
C9    C17   S    
C2    C23   S    
C5    C7    A    
Cu2   O8    S    
C22   C23   A    
Cu2   N2    S    
C6    C8    A    
C20   H2    S    
C30   H23   S    
C12   H4    S    
Cu1   Cu2   S    
C5    N2    A    
C31   H30   S    
C29   H24   S    
C13   H5    S    
C6    C27   S    
C7    C29   S    
C25   C26   S    
Cu2   O3    S    
C27   C28   S    
C31   C32   S    
C7    N1    A    
