data_mof_unit_18438.cif
_audit_creation_date              2012-12-10T17:50:12-0500
_audit_creation_method            fapswitch 2.2
_symmetry_space_group_name_H-M    P1
_symmetry_Int_Tables_number       1
_space_group_crystal_system       triclinic
_cell_length_a                    10.603226
_cell_length_b                    14.723402
_cell_length_c                    14.705525
_cell_angle_alpha                 64.911221
_cell_angle_beta                  103.779135
_cell_angle_gamma                 103.122912
_cell_volume                      1998.48284165

loop_
_atom_site_label
_atom_site_type_symbol
_atom_type_description
_atom_site_fract_x
_atom_site_fract_y
_atom_site_fract_z
_atom_type_partial_charge
C1    C     C_R   0.475596 0.119726 0.312120 0.807923
C2    C     C_R   0.519851 0.880266 0.687879 0.804809
C3    C     C_R   0.469046 0.291897 0.178555 -0.266972
C4    C     C_R   0.498092 0.707885 0.821370 -0.258477
C5    C     C_R   0.442572 0.360145 0.077279 0.086046
C6    C     C_R   0.481624 0.639182 0.920439 0.084073
C7    C     C_R   0.405775 0.320885 0.000316 0.172321
C8    C     C_R   0.498880 0.678306 0.996308 0.167489
C9    C     C_R   0.456307 0.466404 0.050425 0.062808
C10   C     C_R   0.451273 0.532825 0.946327 0.065757
C11   C     C_R   0.412932 0.490816 0.871553 -0.227072
C12   C     C_R   0.472080 0.508252 0.123888 -0.227364
C13   C     C_R   0.388747 0.386718 0.898426 -0.229023
C14   C     C_R   0.491221 0.612325 0.096775 -0.228417
C15   C     C_R   0.724876 0.288319 0.664137 -0.415280
C16   C     C_R   0.284866 0.715713 0.329039 -0.415935
C17   C     C_R   0.688255 0.203935 0.637279 0.659119
C18   C     C_R   0.312707 0.795445 0.362305 0.649876
C19   C     C_R   0.516968 0.284572 0.510095 -0.097218
C20   C     C_R   0.483749 0.715721 0.489770 -0.097948
C21   C     C_R   0.550345 0.371933 0.534134 -0.019867
C22   C     C_R   0.454408 0.629999 0.462993 -0.019934
C23   C     C_R   0.259552 0.000257 0.499959 0.843238
C24   C     C_R   0.740385 0.000040 0.499738 0.847055
C25   C     C_R   0.655187 0.370856 0.614411 0.108292
C26   C     C_R   0.353290 0.632681 0.379901 0.107205
C27   C     C_R   0.484480 0.459714 0.481889 0.094577
C28   C     C_R   0.521753 0.542910 0.514248 0.091027
C29   C     C_R   0.625184 0.536236 0.596420 -0.237677
C30   C     C_R   0.384120 0.467772 0.397518 -0.242002
C31   C     C_R   0.691113 0.452465 0.644458 -0.175471
C32   C     C_R   0.320487 0.552627 0.347654 -0.183875
C33   C     C_3   0.022612 0.041003 0.404660 0.528127
C34   C     C_3   0.977556 0.960822 0.593893 0.548278
C35   C     C_3   0.973394 0.097755 0.453831 -0.303388
C36   C     C_3   0.026453 0.903948 0.545148 -0.316856
C37   C     C_3   0.876868 0.000739 0.498632 -0.083500
C38   C     C_3   0.123037 0.000570 0.500386 -0.105302
C39   C     C_3   0.924627 0.944885 0.447810 -0.292069
C40   C     C_3   0.075545 0.056785 0.551088 -0.276313
C41   C     C_R   0.451854 0.187377 0.204307 -0.036746
C42   C     C_R   0.519529 0.812544 0.795327 -0.051008
C43   C     C_R   0.387195 0.215940 0.026172 -0.225196
C44   C     C_R   0.523079 0.783328 0.970654 -0.204068
C45   C     C_R   0.408812 0.149424 0.127739 -0.187017
C46   C     C_R   0.531340 0.850148 0.870387 -0.220646
Cu1   Cu    Cu3+1 0.465750 0.918270 0.475680 0.972744
Cu2   Cu    Cu3+1 0.534250 0.081730 0.524320 0.974426
H1    H     H_    0.946407 0.175334 0.419162 0.149893
H2    H     H_    0.052203 0.825947 0.582433 0.148560
H3    H     H_    0.561803 0.721558 0.549835 0.149770
H4    H     H_    0.436429 0.277705 0.451952 0.148532
H5    H     H_    0.808348 0.290736 0.722428 0.143589
H6    H     H_    0.209090 0.718386 0.264140 0.148094
H7    H     H_    0.658767 0.595153 0.625269 0.132756
H8    H     H_    0.352886 0.409918 0.367125 0.128888
H9    H     H_    0.859982 0.900906 0.404640 0.152441
H10   H     H_    0.139798 0.100497 0.594712 0.152654
H11   H     H_    0.358872 0.357628 0.838851 0.145339
H12   H     H_    0.501847 0.641281 0.155224 0.153051
H13   H     H_    0.496713 0.681453 0.763133 0.151613
H14   H     H_    0.507245 0.318904 0.238699 0.153576
H15   H     H_    0.545798 0.930885 0.851612 0.142718
H16   H     H_    0.393645 0.068700 0.146117 0.174043
H17   H     H_    0.356880 0.185401 0.967724 0.131377
H18   H     H_    0.534235 0.813745 0.028014 0.135742
H19   H     H_    0.396050 0.536492 0.791155 0.146058
H20   H     H_    0.465296 0.462341 0.202821 0.144191
H21   H     H_    0.771048 0.451392 0.706473 0.140470
H22   H     H_    0.243907 0.555310 0.283174 0.143100
N1    N     N_R   0.585750 0.204560 0.560800 -0.211810
N2    N     N_R   0.414250 0.795440 0.439200 -0.210792
O1    O     O_R   0.454850 0.022100 0.338110 -0.542674
O2    O     O_R   0.545150 0.977900 0.661890 -0.563573
O3    O     O_R   0.512700 0.160150 0.379180 -0.603319
O4    O     O_R   0.487300 0.839850 0.620820 -0.600181
O5    O     O_R   0.287930 0.931000 0.479440 -0.555240
O6    O     O_R   0.712070 0.069000 0.520560 -0.524633
O7    O     O_R   0.345780 0.069050 0.520520 -0.602128
O8    O     O_R   0.654220 0.930950 0.479480 -0.602765
O9    O     O_3   0.245787 0.878457 0.312654 -0.586482
C47   C     C_3   0.108242 0.848936 0.309496 0.065239
H23   H     H_    0.075091 0.882877 0.352444 0.203561
H24   H     H_    0.076323 0.765630 0.346058 0.106385
C48   C     C_3   0.039006 0.890138 0.199206 -0.335985
H25   H     H_    0.056534 0.974353 0.168042 0.248675
H26   H     H_    0.080071 0.864589 0.152642 0.209647
C49   C     C_3   0.891527 0.853755 0.191405 -0.942666
H27   H     H_    0.872013 0.770144 0.215319 0.261736
H28   H     H_    0.842993 0.889279 0.111476 0.256226
H29   H     H_    0.848657 0.874736 0.240491 0.252518
O10   O     O_3   0.762188 0.124749 0.677833 -0.572293
C50   C     C_3   0.797789 0.088877 0.785018 0.056687
H30   H     H_    0.771051 0.005189 0.815596 0.183224
H31   H     H_    0.744579 0.116830 0.822780 0.099500
C51   C     C_3   0.946651 0.112817 0.813313 -0.338964
H32   H     H_    0.996782 0.082893 0.775732 0.238397
H33   H     H_    0.977357 0.195991 0.785915 0.204541
C52   C     C_3   0.990523 0.065449 0.928162 -0.954659
H34   H     H_    0.941590 0.094142 0.967606 0.263357
H35   H     H_    0.098349 0.085376 0.946313 0.255318
H36   H     H_    0.966291 0.981625 0.956476 0.260312
O11   O     O_3   0.058340 0.076122 0.307252 -0.626502
C53   C     C_3   0.989022 0.155261 0.234760 0.057468
H37   H     H_    0.040057 0.191587 0.167404 0.173843
H38   H     H_    0.993283 0.216059 0.261724 0.128431
C54   C     C_3   0.847056 0.115341 0.200156 -0.388852
H39   H     H_    0.847407 0.057205 0.170916 0.231582
H40   H     H_    0.791802 0.080026 0.265092 0.209622
C55   C     C_3   0.776534 0.200477 0.116205 -0.903582
H41   H     H_    0.769962 0.257704 0.144871 0.260649
H42   H     H_    0.675706 0.168740 0.090851 0.264483
H43   H     H_    0.829332 0.237690 0.049821 0.251503
O12   O     O_3   0.944730 0.919954 0.692555 -0.614497
C56   C     C_3   0.053970 0.883476 0.766820 0.038575
H44   H     H_    0.064650 0.913251 0.826569 0.161681
H45   H     H_    0.149430 0.908967 0.737588 0.123175
C57   C     C_3   0.029092 0.767661 0.815947 -0.345231
H46   H     H_    0.941862 0.743135 0.854716 0.227315
H47   H     H_    0.008436 0.736322 0.756397 0.212801
C58   C     C_3   0.147356 0.725089 0.893214 -0.904504
H48   H     H_    0.234348 0.746187 0.854957 0.267328
H49   H     H_    0.125904 0.641154 0.928433 0.257321
H50   H     H_    0.169882 0.754824 0.954118 0.253225

loop_
_geom_bond_atom_site_label_1
_geom_bond_atom_site_label_2
_ccdc_geom_bond_type
C25   C31   A    
C38   C40   S    
C26   C32   A    
C50   H30   S    
C34   C37   S    
C49   H28   S    
C19   N1    A    
C57   H47   S    
C53   H38   S    
O12   C56   S    
C36   H2    S    
C48   H25   S    
C12   H20   S    
C33   C39   S    
C34   C40   S    
C15   H5    S    
Cu2   O7    S    
C28   C29   A    
C35   C37   S    
Cu1   O4    S    
C20   H3    S    
C48   C49   S    
C56   H44   S    
C39   H9    S    
C51   C52   S    
C18   O9    S    
C42   C46   A    
Cu2   O6    S    
C55   H41   S    
C58   H50   S    
C57   H46   S    
C44   H18   S    
C19   H4    S    
C24   O8    A    
Cu1   Cu2   S    
C44   C46   A    
C56   H45   S    
C51   H33   S    
C35   H1    S    
C54   H39   S    
C7    C43   A    
C9    C10   A    
C2    O2    A    
C21   C27   A    
C50   H31   S    
C22   C28   A    
C27   C30   A    
C18   N2    A    
C54   H40   S    
Cu2   O3    S    
C17   O10   S    
Cu1   O8    S    
C29   C31   A    
C53   H37   S    
C11   H19   S    
O9    C47   S    
C55   H42   S    
C48   H26   S    
C16   C26   A    
C40   H10   S    
C1    O3    A    
Cu2   O2    S    
Cu1   O1    S    
C4    C6    A    
C5    C7    A    
C32   H22   S    
C29   H7    S    
C30   H8    S    
C4    H13   S    
C57   C58   S    
C5    C9    A    
C52   H34   S    
C49   H29   S    
C7    C13   A    
C43   H17   S    
C56   C57   S    
C51   H32   S    
C24   C37   S    
C23   O5    A    
C43   C45   A    
C55   H43   S    
C58   H48   S    
C24   O6    A    
C52   H35   S    
C12   C14   A    
C17   N1    A    
C50   C51   S    
C47   H24   S    
C54   C55   S    
Cu1   O5    S    
Cu2   N1    S    
C47   C48   S    
O11   C53   S    
C2    O4    A    
C3    H14   S    
C1    C41   S    
C15   C17   A    
C21   C25   A    
C3    C41   A    
C8    C14   A    
C19   C21   A    
C33   O11   S    
C36   C39   S    
C8    C44   A    
C20   C22   A    
C3    C5    A    
C6    C10   A    
C6    C8    A    
C13   H11   S    
C34   O12   S    
C23   C38   S    
C14   H12   S    
C45   H16   S    
C33   C38   S    
C46   H15   S    
C1    O1    A    
C36   C38   S    
C35   C40   S    
C37   C39   S    
C30   C32   A    
C11   C13   A    
C4    C42   A    
C2    C42   S    
O10   C50   S    
C33   C35   S    
C34   C36   S    
C9    C12   A    
C16   H6    S    
Cu1   N2    S    
C58   H49   S    
C15   C25   A    
C10   C11   A    
C31   H21   S    
C52   H36   S    
C49   H27   S    
C16   C18   A    
C47   H23   S    
C22   C26   A    
C27   C28   A    
C41   C45   A    
C20   N2    A    
C23   O7    A    
C53   C54   S    
