data_mof_unit_7382.cif
_audit_creation_date              2012-12-10T16:43:26-0500
_audit_creation_method            fapswitch 2.2
_symmetry_space_group_name_H-M    P1
_symmetry_Int_Tables_number       1
_space_group_crystal_system       triclinic
_cell_length_a                    10.725476
_cell_length_b                    8.6737
_cell_length_c                    7.497911
_cell_angle_alpha                 103.185561
_cell_angle_beta                  94.735768
_cell_angle_gamma                 92.871658
_cell_volume                      675.109471864

loop_
_atom_site_label
_atom_site_type_symbol
_atom_type_description
_atom_site_fract_x
_atom_site_fract_y
_atom_site_fract_z
_atom_type_partial_charge
C1    C     C_R   0.496030 0.199758 0.453104 0.842665
C2    C     C_R   0.074268 0.652426 0.556177 0.043461
C3    C     C_R   0.129838 0.507026 0.504953 -0.138351
C4    C     C_R   0.057900 0.363456 0.447697 -0.130925
C5    C     C_R   0.928760 0.358884 0.443227 0.391311
C6    C     C_R   0.870920 0.503235 0.496270 -0.159659
C7    C     C_2   0.494612 0.031526 0.427106 -0.336733
C8    C     C_2   0.506639 0.968527 0.572891 -0.382163
C9    C     C_R   0.263049 0.501063 0.501637 0.801676
C10   C     C_R   0.504550 0.800263 0.546882 0.835171
C11   C     C_R   0.736967 0.500073 0.498490 0.759217
C12   C     C_R   0.146635 0.799114 0.608564 -0.254872
C13   C     C_R   0.088997 0.943016 0.655681 0.453282
C14   C     C_R   0.958768 0.940099 0.651615 -0.070326
C15   C     C_R   0.886077 0.796378 0.600356 -0.227237
C16   C     C_R   0.942645 0.650663 0.551630 0.049959
Cu1   Cu    Cu3+1 0.513920 0.517380 0.684380 1.045483
Cu2   Cu    Cu3+1 0.486080 0.482620 0.315620 1.049104
H1    H     H_    0.102900 0.253247 0.406928 0.177172
H2    H     H_    0.247687 0.802932 0.612290 0.120812
H3    H     H_    0.913336 0.050191 0.687693 0.179658
H4    H     H_    0.785361 0.800933 0.597900 0.148410
H5    H     H_    0.483666 0.959248 0.286949 0.198971
H6    H     H_    0.517545 0.040787 0.713055 0.196096
N1    N     N_2   0.465100 0.456430 0.038520 0.139762
N2    N     N_2   0.534900 0.543570 0.961480 0.140554
O1    O     O_R   0.509050 0.286130 0.619770 -0.538171
O2    O     O_R   0.485540 0.256780 0.308360 -0.608330
O3    O     O_R   0.331410 0.514680 0.655740 -0.527303
O4    O     O_R   0.307900 0.485330 0.344330 -0.596901
O5    O     O_R   0.514460 0.743220 0.691640 -0.612129
O6    O     O_R   0.490950 0.713870 0.380230 -0.533634
O7    O     O_R   0.692100 0.514670 0.655670 -0.595512
O8    O     O_R   0.668590 0.485320 0.344260 -0.532253
O9    O     O_3   0.619216 0.646638 0.075566 -0.599663
H7    H     H_    0.663398 0.702021 0.994757 0.336134
O10   O     O_3   0.157232 0.087869 0.705447 -0.729596
H8    H     H_    0.247508 0.070130 0.698670 0.329462
O11   O     O_3   0.864273 0.211065 0.387821 -0.729748
H9    H     H_    0.773323 0.220194 0.395165 0.315356
O12   O     O_3   0.380661 0.353572 0.924515 -0.594165
H10   H     H_    0.336470 0.298300 0.005406 0.343954

loop_
_geom_bond_atom_site_label_1
_geom_bond_atom_site_label_2
_ccdc_geom_bond_type
C1    O2    A    
O10   H8    S    
Cu2   O4    S    
Cu1   O3    S    
C2    C16   A    
O12   H10   S    
C13   O10   S    
O9    H7    S    
C11   O8    A    
C9    O3    A    
C2    C12   A    
C12   H2    S    
C2    C3    A    
C7    C8    D    
C13   C14   A    
Cu2   O8    S    
C6    C11   S    
Cu2   N1    S    
Cu1   O7    S    
C9    O4    A    
C3    C9    S    
Cu1   N2    S    
C14   H3    S    
C8    H6    S    
Cu1   Cu2   S    
C5    O11   S    
C5    C6    A    
Cu1   O5    S    
C7    H5    S    
Cu2   O6    S    
C6    C16   A    
C3    C4    A    
Cu1   O1    S    
C10   O6    A    
N2    O9    S    
C11   O7    A    
Cu2   O2    S    
C12   C13   A    
C8    C10   S    
N1    O12   S    
O11   H9    S    
C1    O1    A    
C14   C15   A    
N1    N2    D    
C1    C7    S    
C4    H1    S    
C10   O5    A    
C15   H4    S    
C15   C16   A    
C4    C5    A    
