data_mof_unit_17378.cif
_audit_creation_date              2012-12-10T17:15:16-0500
_audit_creation_method            fapswitch 2.2
_symmetry_space_group_name_H-M    P1
_symmetry_Int_Tables_number       1
_space_group_crystal_system       triclinic
_cell_length_a                    10.075769
_cell_length_b                    10.829149
_cell_length_c                    13.06366
_cell_angle_alpha                 90.246026
_cell_angle_beta                  94.577399
_cell_angle_gamma                 97.202064
_cell_volume                      1409.49806225

loop_
_atom_site_label
_atom_site_type_symbol
_atom_type_description
_atom_site_fract_x
_atom_site_fract_y
_atom_site_fract_z
_atom_type_partial_charge
C1    C     C_R   0.442070 0.266581 0.493039 0.901465
C2    C     C_R   0.627741 0.400026 0.049037 -0.313511
C3    C     C_R   0.386126 0.598947 0.846898 -0.031966
C4    C     C_R   0.613874 0.401053 0.153102 -0.031966
C5    C     C_R   0.563317 0.463071 0.875864 -0.109381
C6    C     C_R   0.436683 0.536929 0.124136 -0.109381
C7    C     C_R   0.548778 0.466382 0.981190 0.125074
C8    C     C_R   0.451222 0.533618 0.018810 0.125074
C9    C     C_2   0.404992 0.133096 0.481352 -0.164821
C10   C     C_2   0.595007 0.866904 0.518648 -0.164821
C11   C     C_2   0.498687 0.063235 0.517412 -0.171308
C12   C     C_R   0.557929 0.733419 0.506961 0.901465
C13   C     C_2   0.501313 0.936765 0.482588 -0.171307
C14   C     C_R   0.324952 0.598740 0.160622 0.166815
C15   C     C_R   0.194683 0.533903 0.154607 -0.116349
C16   C     C_R   0.086964 0.593526 0.181184 -0.174068
C17   C     C_R   0.108697 0.717965 0.213683 -0.146705
C18   C     C_R   0.238498 0.782576 0.221101 -0.131724
C19   C     C_R   0.346653 0.723309 0.194497 -0.150985
C20   C     C_R   0.675049 0.401261 0.839378 0.166816
C21   C     C_R   0.653348 0.276691 0.805503 -0.150986
C22   C     C_R   0.761503 0.217424 0.778900 -0.131725
C23   C     C_2   0.071226 0.487851 0.506730 -0.128673
C24   C     C_R   0.891303 0.282036 0.786317 -0.146704
C25   C     C_R   0.913037 0.406476 0.818816 -0.174067
C26   C     C_R   0.805317 0.466098 0.845393 -0.116349
C27   C     C_2   0.689072 0.314720 0.216074 0.416879
C28   C     C_2   0.310927 0.685279 0.783926 0.416879
C29   C     C_R   0.724958 0.917383 0.575835 0.103177
C30   C     C_R   0.770630 0.860027 0.666213 -0.110861
C31   C     C_R   0.896246 0.902016 0.716037 -0.159373
C32   C     C_R   0.976741 0.002475 0.677079 -0.140302
C33   C     C_R   0.931205 0.062016 0.588825 -0.145124
C34   C     C_2   0.928773 0.512148 0.493270 -0.128673
C35   C     C_R   0.807071 0.018533 0.537326 -0.163179
C36   C     C_R   0.275042 0.082617 0.424165 0.103177
C37   C     C_R   0.192929 0.981468 0.462674 -0.163179
C38   C     C_R   0.068794 0.937984 0.411175 -0.145124
C39   C     C_R   0.023258 0.997526 0.322921 -0.140302
C40   C     C_R   0.103754 0.097984 0.283963 -0.159373
C41   C     C_R   0.229370 0.139973 0.333786 -0.110861
C42   C     C_R   0.479469 0.508420 0.698402 0.910139
C43   C     C_R   0.520531 0.491581 0.301598 0.910140
C44   C     C_R   0.524044 0.476314 0.191822 -0.138911
C45   C     C_R   0.475956 0.523686 0.808178 -0.138912
C46   C     C_R   0.372259 0.599974 0.950963 -0.313511
H1    H     H_    0.301847 0.657651 0.978503 0.151346
H2    H     H_    0.986551 0.543578 0.175952 0.129452
H3    H     H_    0.024661 0.763686 0.233347 0.132139
H4    H     H_    0.255322 0.878837 0.246448 0.157327
H5    H     H_    0.446509 0.774423 0.198878 0.116551
H6    H     H_    0.553492 0.225577 0.801123 0.116551
H7    H     H_    0.744679 0.121163 0.753553 0.157327
H8    H     H_    0.975340 0.236316 0.766653 0.132138
H9    H     H_    0.013449 0.456424 0.824048 0.129451
H10   H     H_    0.823284 0.562068 0.872012 0.117480
H11   H     H_    0.787609 0.297051 0.196068 0.037388
H12   H     H_    0.698153 0.342349 0.021497 0.151346
H13   H     H_    0.212390 0.702948 0.803932 0.037388
H14   H     H_    0.709342 0.782459 0.698024 0.146037
H15   H     H_    0.931120 0.856661 0.784944 0.129788
H16   H     H_    0.074025 0.034826 0.715686 0.129848
H17   H     H_    0.993396 0.140371 0.559059 0.145804
H18   H     H_    0.775625 0.062984 0.466933 0.172349
H19   H     H_    0.224375 0.937017 0.533067 0.172349
H20   H     H_    0.006603 0.859631 0.440942 0.145804
H21   H     H_    0.925974 0.965174 0.284314 0.129848
H22   H     H_    0.068880 0.143339 0.215056 0.129788
H23   H     H_    0.417977 0.895240 0.430681 0.176489
H24   H     H_    0.290659 0.217541 0.301976 0.146037
H25   H     H_    0.582022 0.104760 0.569319 0.176489
H26   H     H_    0.900344 0.583516 0.440766 0.154450
H27   H     H_    0.099656 0.416484 0.559234 0.154450
H28   H     H_    0.867272 0.380381 0.589545 0.179586
H29   H     H_    0.132728 0.619619 0.410455 0.179586
H30   H     H_    0.176715 0.437933 0.127988 0.117480
N1    N     N_2   0.162330 0.550370 0.457540 -0.184059
N2    N     N_2   0.837670 0.449630 0.542460 -0.184060
O1    O     O_R   0.567930 0.307680 0.508550 -0.580690
O2    O     O_2   0.361449 0.743637 0.714019 -0.573753
O3    O     O_R   0.432070 0.692320 0.491450 -0.580690
O4    O     O_R   0.351090 0.340020 0.481290 -0.628548
O5    O     O_R   0.648910 0.659980 0.518710 -0.628548
O6    O     O_R   0.590490 0.486480 0.665020 -0.618130
O7    O     O_R   0.409510 0.513520 0.334980 -0.618130
O8    O     O_R   0.373660 0.518820 0.637760 -0.589675
O9    O     O_R   0.626340 0.481180 0.362240 -0.589675
O10   O     O_2   0.638550 0.256362 0.285981 -0.573754
Zn1   Zn    Zn3+2 0.644780 0.478400 0.518200 0.972513
Zn2   Zn    Zn3+2 0.355220 0.521600 0.481800 0.972513

loop_
_geom_bond_atom_site_label_1
_geom_bond_atom_site_label_2
_ccdc_geom_bond_type
C31   H15   S    
C2    C7    A    
C16   H2    S    
C7    C8    A    
C5    C20   S    
C29   C30   A    
C13   H23   S    
C36   C37   A    
C30   C31   A    
C11   H25   S    
C24   H8    S    
C15   C16   A    
C18   C19   A    
C38   H20   S    
C16   C17   A    
C30   H14   S    
C9    C36   S    
C35   H18   S    
C42   O8    A    
H28   N2    S    
C15   H30   S    
C6    C44   A    
C21   C22   A    
C36   C41   A    
C23   H27   S    
C22   H7    S    
N2    Zn1   S    
O5    Zn1   S    
N1    Zn2   S    
C43   O7    A    
C42   O6    A    
C24   C25   A    
C27   H11   S    
C17   H3    S    
C39   C40   A    
C5    C7    A    
C6    C8    A    
C4    C44   A    
C1    O4    A    
C5    C45   A    
C3    C45   A    
C12   O5    A    
C37   H19   S    
C42   C45   S    
C2    C4    A    
C43   C44   S    
C37   C38   A    
C6    C14   S    
C9    C11   D    
C31   C32   A    
C33   H17   S    
C23   C34   S    
C17   C18   A    
C1    C9    S    
C23   N1    D    
H29   N1    S    
C10   C12   S    
O3    Zn2   S    
C40   C41   A    
O9    Zn1   S    
O8    Zn2   S    
C1    O1    A    
C22   C24   A    
O6    Zn1   S    
C34   H26   S    
C4    C27   S    
C18   H4    S    
C28   H13   S    
C46   H1    S    
C3    C28   S    
C39   H21   S    
C14   C19   A    
C25   H9    S    
C10   C13   D    
C26   H10   S    
O7    Zn2   S    
C2    H12   S    
C29   C35   A    
C3    C46   A    
O4    Zn2   S    
C43   O9    A    
C32   C33   A    
C25   C26   A    
C32   H16   S    
C34   N2    D    
C11   C13   S    
C10   C29   S    
C38   C39   A    
C20   C26   A    
C33   C35   A    
C12   O3    A    
C27   O10   D    
C28   O2    D    
C8    C46   A    
O1    Zn1   S    
C19   H5    S    
C20   C21   A    
C40   H22   S    
C14   C15   A    
C21   H6    S    
C41   H24   S    
