data_mof_unit_37403.cif
_audit_creation_date              2012-12-10T16:37:40-0500
_audit_creation_method            fapswitch 2.2
_symmetry_space_group_name_H-M    P1
_symmetry_Int_Tables_number       1
_space_group_crystal_system       triclinic
_cell_length_a                    10.894225
_cell_length_b                    10.864698
_cell_length_c                    15.592866
_cell_angle_alpha                 96.313891
_cell_angle_beta                  75.18213
_cell_angle_gamma                 98.227039
_cell_volume                      1760.66913022

loop_
_atom_site_label
_atom_site_type_symbol
_atom_type_description
_atom_site_fract_x
_atom_site_fract_y
_atom_site_fract_z
_atom_type_partial_charge
C1    C     C_R   0.159916 0.480811 0.518273 0.522593
C2    C     C_R   0.519605 0.498564 0.118360 0.270411
C3    C     C_R   0.652051 0.333069 0.117540 0.238712
C4    C     C_R   0.841677 0.520240 0.480352 0.530713
C5    C     C_R   0.427209 0.580270 0.840055 0.017054
C6    C     C_2   0.978955 0.521062 0.470332 0.269517
C7    C     C_2   0.022878 0.469411 0.530114 0.286343
C8    C     C_2   0.539687 0.968700 0.473691 0.262169
C9    C     C_2   0.454042 0.036538 0.529573 0.285143
C10   C     C_R   0.468047 0.168508 0.520858 0.539497
C11   C     C_R   0.529399 0.833683 0.480494 0.518506
C12   C     C_R   0.268695 0.618343 0.980114 0.218208
C13   C     C_R   0.555415 0.444727 0.259489 0.520429
C14   C     C_R   0.449985 0.557583 0.741568 0.558976
C15   C     C_R   0.682176 0.321485 0.024322 0.294240
C16   C     C_R   0.575414 0.425138 0.163973 -0.004658
C17   C     C_R   0.314208 0.631461 0.887933 0.189641
C18   C     C_3   0.793349 0.312603 0.201702 -0.086399
C19   C     C_3   0.998915 0.337705 0.643944 -0.095038
C20   C     C_3   0.680018 0.222919 0.794129 -0.059851
C21   C     C_3   0.891052 0.291099 0.966697 -0.049898
C22   C     C_3   0.390628 0.614979 0.234471 -0.015676
C23   C     C_R   0.331364 0.548289 0.022204 0.321255
C24   C     C_3   0.809087 0.611986 0.787196 -0.063699
C25   C     C_3   0.064887 0.505214 0.320990 -0.128175
C26   C     C_R   0.456435 0.520465 0.980103 0.000873
C27   C     C_R   0.504258 0.533492 0.887733 -0.121385
C28   C     C_R   0.531402 0.469427 0.026603 -0.020669
C29   C     C_R   0.625078 0.393269 0.978289 -0.089094
C30   C     C_R   0.664595 0.398701 0.885456 0.270472
C31   C     C_R   0.624397 0.491185 0.846492 0.289136
H1    H     H_    0.754121 0.328479 0.274525 0.140545
H2    H     H_    0.601704 0.174667 0.844695 0.135081
H3    H     H_    0.744732 0.152532 0.761073 0.130818
H4    H     H_    0.905741 0.387863 0.945315 0.115247
H5    H     H_    0.952076 0.234622 0.913436 0.144110
H6    H     H_    0.924737 0.290665 0.027923 0.120949
H7    H     H_    0.434903 0.651628 0.290218 0.128106
H8    H     H_    0.335791 0.521735 0.247707 0.139558
H9    H     H_    0.321784 0.679951 0.232540 0.171890
H10   H     H_    0.151964 0.667068 0.871379 0.322151
H11   H     H_    0.175558 0.502744 0.112699 0.342273
H12   H     H_    0.839926 0.402781 0.173726 0.085820
H13   H     H_    0.153074 0.745196 0.004018 0.345553
H14   H     H_    0.873432 0.555402 0.806804 0.147623
H15   H     H_    0.781031 0.688104 0.839590 0.102638
H16   H     H_    0.864152 0.656198 0.725848 0.161071
H17   H     H_    0.967781 0.470956 0.311341 0.112509
H18   H     H_    0.118766 0.424677 0.317883 0.132564
H19   H     H_    0.113226 0.562245 0.264734 0.164348
H20   H     H_    0.869107 0.250588 0.191920 0.141258
H21   H     H_    0.065406 0.395176 0.680178 0.115802
H22   H     H_    0.048681 0.267634 0.594770 0.112807
H23   H     H_    0.925354 0.284853 0.693212 0.182765
H24   H     H_    0.691638 0.967026 0.374467 0.352998
H25   H     H_    0.303596 0.050719 0.627425 0.305057
H26   H     H_    0.640675 0.255644 0.742594 0.164727
O1    O     O_3   0.500000 0.500000 0.500000 -0.477916
O2    O     O_R   0.463530 0.379110 0.309170 -0.528987
O3    O     O_R   0.388210 0.611730 0.699360 -0.479014
O4    O     O_R   0.624720 0.532760 0.292120 -0.548789
O5    O     O_R   0.523540 0.476390 0.699360 -0.510911
O6    O     O_3   0.696087 0.250897 0.161722 -0.513995
O7    O     O_3   0.938905 0.414077 0.603385 -0.555351
O8    O     O_3   0.636733 0.028602 0.410358 -0.720812
O9    O     O_3   0.354202 0.983845 0.594301 -0.691052
O10   O     O_3   0.750466 0.322844 0.833217 -0.550991
O11   O     O_3   0.762908 0.235593 0.978909 -0.492865
O12   O     O_R   0.537910 0.240570 0.564270 -0.552253
O13   O     O_3   0.484768 0.616315 0.153121 -0.533726
O14   O     O_3   0.244182 0.684481 0.842374 -0.666662
O15   O     O_3   0.268355 0.496971 0.101135 -0.716939
O16   O     O_3   0.160815 0.668497 0.030229 -0.726104
O17   O     O_3   0.700979 0.536773 0.768442 -0.503280
O18   O     O_3   0.063710 0.580860 0.400727 -0.594406
O19   O     O_R   0.438950 0.782540 0.540270 -0.475623
O20   O     O_R   0.222350 0.398740 0.468260 -0.571580
O21   O     O_R   0.800790 0.578160 0.427210 -0.535044
O22   O     O_R   0.212140 0.566330 0.564260 -0.532067
O23   O     O_R   0.764730 0.456770 0.540270 -0.480506
O24   O     O_R   0.412790 0.208310 0.468260 -0.527647
O25   O     O_R   0.610350 0.768590 0.427210 -0.560688
Zn1   Zn    Zn3+2 0.580150 0.419820 0.574680 0.977389
Zn2   Zn    Zn3+2 0.401380 0.373730 0.437510 0.943133
Zn3   Zn    Zn3+2 0.631680 0.593260 0.413140 0.943378
Zn4   Zn    Zn3+2 0.386790 0.613180 0.574670 0.995691

loop_
_geom_bond_atom_site_label_1
_geom_bond_atom_site_label_2
_ccdc_geom_bond_type
O5    Zn1   S    
C1    O20   A    
C20   O10   S    
C6    O18   S    
C21   H5    S    
C12   C23   A    
C26   C27   A    
C24   H14   S    
C28   C29   A    
C4    O23   A    
C11   O19   A    
C30   C31   A    
C18   O6    S    
C5    C17   A    
C15   O11   S    
C22   H7    S    
C23   C26   A    
C25   H19   S    
C9    O9    S    
C19   H21   S    
C8    C9    D    
C12   C17   A    
C2    C16   A    
C9    C10   S    
C30   O10   S    
H10   O14   S    
C20   H3    S    
C19   H22   S    
C8    O8    S    
C5    C27   A    
C12   O16   S    
O23   Zn1   S    
O1    Zn4   S    
H24   O8    S    
C18   H20   S    
C15   C29   A    
C11   O25   A    
C27   C31   A    
O2    Zn2   S    
C4    C6    S    
O3    Zn4   S    
C31   O17   S    
O20   Zn2   S    
C25   O18   S    
C4    O21   A    
C29   C30   A    
O12   Zn1   S    
O1    Zn2   S    
C19   O7    S    
C22   H9    S    
H11   O15   S    
C13   O4    A    
C25   H17   S    
C5    C14   S    
O4    Zn3   S    
C13   O2    A    
C20   H2    S    
O21   Zn3   S    
C17   O14   S    
C21   O11   S    
C1    O22   A    
C18   H1    S    
O1    Zn3   S    
O19   Zn4   S    
O24   Zn2   S    
C3    C15   A    
C19   H23   S    
C1    C7    S    
C24   H16   S    
C23   O15   S    
C6    C7    D    
C21   H4    S    
C3    O6    S    
O25   Zn3   S    
C14   O3    A    
C10   O24   A    
C26   C28   A    
C24   H15   S    
C2    O13   S    
O1    Zn1   S    
C24   O17   S    
C8    C11   S    
H25   O9    S    
C22   H8    S    
H13   O16   S    
C25   H18   S    
C7    O7    S    
C10   O12   A    
C21   H6    S    
C13   C16   S    
C2    C28   A    
C20   H26   S    
C18   H12   S    
C22   O13   S    
O22   Zn4   S    
C3    C16   A    
C14   O5    A    
