data_mof_unit_6765.cif
_audit_creation_date              2012-12-11T15:32:32-0500
_audit_creation_method            fapswitch 2.2
_symmetry_space_group_name_H-M    P1
_symmetry_Int_Tables_number       1
_space_group_crystal_system       triclinic
_cell_length_a                    6.952226
_cell_length_b                    20.470685
_cell_length_c                    24.394417
_cell_angle_alpha                 89.654139
_cell_angle_beta                  90.389838
_cell_angle_gamma                 89.543035
_cell_volume                      3471.48088882

loop_
_atom_site_label
_atom_site_type_symbol
_atom_type_description
_atom_site_fract_x
_atom_site_fract_y
_atom_site_fract_z
_atom_type_partial_charge
O1    O     O_R   0.507320 0.423560 0.460500 -0.538477
O2    O     O_R   0.170760 0.556250 0.437010 -0.539706
O3    O     O_R   0.004030 0.576440 0.539500 -0.539786
C1    C     C_R   0.338951 0.576345 0.421057 0.706152
O4    O     O_R   0.177370 0.422820 0.454110 -0.540690
O5    O     O_R   0.010680 0.442050 0.556720 -0.532160
C2    C     C_R   0.346330 0.399017 0.443298 0.727209
O6    O     O_R   0.500680 0.557950 0.443280 -0.541494
O7    O     O_3   0.340380 0.506470 0.533650 -0.360297
V1    V     V_3+5 0.064130 0.498800 0.493760 1.471548
O8    O     O_R   0.681160 0.443750 0.562990 -0.530812
C3    C     C_R   0.850644 0.423798 0.578923 0.750457
O9    O     O_R   0.674560 0.577180 0.545890 -0.535795
C4    C     C_R   0.842898 0.601054 0.556540 0.814054
V2    V     V_3+5 0.564560 0.501200 0.506240 1.491610
O10   O     O_3   0.838180 0.493530 0.466350 -0.378960
C5    C     C_R   0.977249 0.837720 0.911806 -0.174013
C6    C     C_R   0.850600 0.661580 0.588875 -0.191297
C7    C     C_R   0.057540 0.722922 0.905559 -0.226476
C8    C     C_R   0.041929 0.779664 0.936363 0.612976
C9    C     C_R   0.926794 0.838436 0.855854 -0.306099
C10   C     C_R   0.946124 0.781337 0.823040 0.130924
C11   C     C_R   0.012963 0.723404 0.849369 0.047235
C12   C     C_R   0.907259 0.779957 0.765039 -0.013481
C13   C     C_R   0.929790 0.720302 0.735019 0.087085
C14   C     C_R   0.005735 0.665416 0.763292 -0.077982
C15   C     C_R   0.042664 0.666713 0.819221 -0.199196
C16   C     C_R   0.853355 0.836750 0.735806 -0.269740
C17   C     C_R   0.828456 0.836623 0.679333 0.675611
C18   C     C_R   0.846053 0.778615 0.649186 -0.173667
C19   C     C_R   0.886329 0.718606 0.677181 -0.160516
C20   C     C_R   0.822563 0.779550 0.591391 0.520928
C21   C     C_R   0.824527 0.721150 0.562115 -0.382692
C22   C     C_R   0.877454 0.659666 0.645987 0.577111
H1    H     H_    0.100415 0.623062 0.838879 0.134163
H2    H     H_    0.801190 0.722340 0.518134 0.148511
H3    H     H_    0.109429 0.678649 0.925500 0.150571
H4    H     H_    0.878470 0.884616 0.839215 0.131229
H5    H     H_    0.048964 0.621314 0.742952 0.207166
H6    H     H_    0.834603 0.883375 0.755269 0.160191
C23   C     C_3   0.795194 0.300405 0.765714 0.406831
C24   C     C_3   0.987823 0.281719 0.795087 -0.429671
H7    H     H_    0.056366 0.305913 0.830744 0.147959
C25   C     C_1   0.961751 0.122063 0.875731 -0.186617
C26   C     C_1   0.862225 0.378621 0.624876 -0.132102
C27   C     C_3   0.738222 0.228075 0.764089 0.525385
C28   C     C_3   0.929077 0.208572 0.792421 -0.081387
C29   C     C_3   0.832103 0.220568 0.707148 -0.283804
C30   C     C_3   0.889920 0.293367 0.709312 -0.077829
C31   C     C_3   0.025523 0.201182 0.735829 -0.207350
C32   C     C_3   0.080388 0.274210 0.737859 0.689193
C33   C     C_1   0.948717 0.160854 0.838042 0.027570
C34   C     C_1   0.873683 0.340398 0.663050 0.131261
H8    H     H_    0.123344 0.160815 0.723531 0.187883
H9    H     H_    0.766358 0.195584 0.671457 0.189827
C35   C     C_3   0.482057 0.717789 0.205686 -0.257115
C36   C     C_3   0.289467 0.702828 0.234722 0.592815
H10   H     H_    0.539823 0.691557 0.169591 0.163739
C37   C     C_1   0.349213 0.621818 0.375075 -0.177924
C38   C     C_1   0.474969 0.877991 0.124744 -0.165871
C39   C     C_3   0.582276 0.722032 0.262797 -0.168130
C40   C     C_3   0.388630 0.707271 0.290954 0.002475
C41   C     C_3   0.535139 0.796406 0.264928 -0.145247
C42   C     C_3   0.435050 0.791911 0.208385 -0.001215
C43   C     C_3   0.341069 0.781145 0.293554 -0.244302
C44   C     C_3   0.243949 0.776283 0.236592 0.420221
C45   C     C_1   0.364668 0.660178 0.337036 0.041731
C46   C     C_1   0.459398 0.839381 0.162581 0.005049
H11   H     H_    0.281139 0.807306 0.329405 0.151741
H12   H     H_    0.637767 0.834886 0.277477 0.167581
H13   H     H_    0.723325 0.699525 0.273730 0.179513
C47   C     C_R   0.472182 0.162752 0.087719 -0.133071
C48   C     C_R   0.353198 0.338484 0.410863 -0.139134
C49   C     C_R   0.520392 0.279471 0.091964 -0.215611
C50   C     C_R   0.521329 0.221489 0.061887 0.427773
C51   C     C_R   0.431390 0.161985 0.144075 -0.267233
C52   C     C_R   0.438153 0.220025 0.176059 0.034191
C53   C     C_R   0.482132 0.279394 0.148579 -0.026175
C54   C     C_R   0.404375 0.221054 0.234173 0.075811
C55   C     C_R   0.416353 0.281297 0.263796 0.023783
C56   C     C_R   0.460113 0.338620 0.234279 -0.260040
C57   C     C_R   0.487892 0.338328 0.177698 0.447561
C58   C     C_R   0.360633 0.163687 0.263776 -0.185058
C59   C     C_R   0.329620 0.164693 0.319883 -0.132225
C60   C     C_R   0.339914 0.222773 0.349365 -0.001184
C61   C     C_R   0.383844 0.282243 0.322029 0.046472
C62   C     C_R   0.304580 0.221842 0.406129 0.639563
C63   C     C_R   0.309982 0.279291 0.436296 -0.233125
C64   C     C_R   0.390704 0.340116 0.354295 -0.218843
H14   H     H_    0.420512 0.387410 0.336920 0.116717
H15   H     H_    0.279168 0.277683 0.479770 0.148897
H16   H     H_    0.296199 0.119051 0.340311 0.188394
H17   H     H_    0.551002 0.324690 0.070581 0.171076
H18   H     H_    0.398571 0.115012 0.161581 0.115861
H19   H     H_    0.474869 0.385294 0.253829 0.145906
H20   H     H_    0.348827 0.116544 0.244858 0.125339
O11   O     O_R   0.323550 0.942140 0.056770 -0.526880
O12   O     O_R   0.647080 0.077200 0.045890 -0.543296
O13   O     O_R   0.813610 0.057920 0.943260 -0.532514
C65   C     C_R   0.478278 0.101318 0.056355 0.748095
O14   O     O_R   0.653470 0.943760 0.063000 -0.539903
O15   O     O_R   0.820050 0.923540 0.960490 -0.538465
C66   C     C_R   0.485271 0.923665 0.078933 0.736916
O16   O     O_R   0.317110 0.076520 0.039540 -0.542788
O17   O     O_3   0.483830 0.993580 0.966380 -0.368001
V3    V     V_3+5 0.760140 0.001190 0.006240 1.463227
O18   O     O_R   0.149510 0.922740 0.954070 -0.529597
C67   C     C_R   0.981385 0.898701 0.943635 0.786022
O19   O     O_R   0.143120 0.056170 0.936970 -0.539099
C68   C     C_R   0.973657 0.076348 0.921226 0.710529
V4    V     V_3+5 0.259690 0.998700 0.993700 1.486873
O20   O     O_3   0.986130 0.006420 0.033620 -0.374836
O21   O     O_3   0.786059 0.837281 0.563330 -0.511049
C69   C     C_3   0.957498 0.857598 0.538025 -0.067525
H21   H     H_    0.002915 0.822846 0.505601 0.087867
H22   H     H_    0.075400 0.864053 0.568624 0.144297
H23   H     H_    0.930936 0.905665 0.518024 0.176866
O22   O     O_3   0.663588 0.351653 0.776429 -0.512007
C70   C     C_3   0.708371 0.381121 0.826832 -0.187787
H24   H     H_    0.848501 0.406792 0.824546 0.145462
H25   H     H_    0.709217 0.344853 0.861023 0.102939
H26   H     H_    0.595959 0.418188 0.835881 0.170303
F1    F     F_    0.258127 0.298449 0.723386 -0.633052
O23   O     O_3   0.557040 0.200296 0.775040 -0.526813
C71   C     C_3   0.489389 0.221154 0.826424 -0.115208
H27   H     H_    0.430638 0.271583 0.823447 0.190539
H28   H     H_    0.601002 0.218030 0.859188 0.098791
H29   H     H_    0.369834 0.188905 0.838892 0.152156
F2    F     F_    0.163825 0.654020 0.219576 -0.693108
O24   O     O_3   0.066289 0.807742 0.225568 -0.560208
C72   C     C_3   0.990439 0.785875 0.175275 -0.165277
H30   H     H_    0.926748 0.736656 0.180200 0.190489
H31   H     H_    0.098873 0.785583 0.141944 0.155643
H32   H     H_    0.873377 0.819762 0.162346 0.158400
F3    F     F_    0.875656 0.599792 0.670075 -0.711436
O25   O     O_3   0.535373 0.396009 0.151377 -0.555563
C73   C     C_3   0.365147 0.432335 0.141740 -0.209275
H33   H     H_    0.298019 0.448022 0.180842 0.155966
H34   H     H_    0.260351 0.404320 0.116590 0.130716
H35   H     H_    0.401984 0.477110 0.118358 0.180557
O26   O     O_3   0.555482 0.222654 0.006041 -0.564290
C74   C     C_3   0.753280 0.233030 0.997260 -0.255719
H36   H     H_    0.781987 0.228845 0.952744 0.151379
H37   H     H_    0.843461 0.195465 0.018698 0.142624
H38   H     H_    0.796516 0.282893 0.009999 0.137750
F4    F     F_    0.261948 0.165198 0.432509 -0.670872
F5    F     F_    0.783037 0.894395 0.654605 -0.632320
F6    F     F_    0.092878 0.778213 0.990202 -0.696769

loop_
_geom_bond_atom_site_label_1
_geom_bond_atom_site_label_2
_ccdc_geom_bond_type
C13   C19   A    
C29   H9    S    
C54   C58   A    
C62   C63   A    
C41   C43   S    
C62   F4    S    
C32   F1    S    
C23   C24   S    
C4    C6    S    
O17   V3    S    
O2    C1    A    
C7    C8    A    
C74   H38   S    
C36   C44   S    
C47   C51   A    
C72   H32   S    
C21   H2    S    
C69   H21   S    
C36   C40   S    
C2    C48   S    
V3    O20   S    
C52   C53   A    
C73   H34   S    
C14   C15   A    
C31   H8    S    
C40   C45   S    
C42   C46   S    
C36   F2    S    
C16   C17   A    
O19   V4    S    
O5    C3    A    
C18   C19   A    
O11   V4    S    
C43   H11   S    
C14   H5    S    
C16   H6    S    
V2    O10   S    
C65   O16   A    
C5    C8    A    
C35   C36   S    
C39   C41   S    
O22   C70   S    
C55   C61   A    
C7    H3    S    
C51   H18   S    
O8    V2    S    
C59   C60   A    
C9    H4    S    
V4    O20   S    
C30   C32   S    
C71   H29   S    
O18   C67   A    
C8    F6    S    
O15   C67   A    
O1    V2    S    
C11   C15   A    
C20   O21   S    
C38   C66   S    
C50   O26   S    
O7    V1    S    
C1    O6    A    
C24   C32   S    
C37   C45   T    
C39   H13   S    
C29   C31   S    
O17   V4    S    
C26   C34   T    
O14   C66   A    
O1    C2    A    
O9    C4    A    
C49   H17   S    
C27   O23   S    
C47   C50   A    
C23   C30   S    
C56   C57   A    
C28   C31   S    
C60   C62   A    
C73   H35   S    
C27   C29   S    
C19   C22   A    
C49   C50   A    
C12   C13   A    
C5    C67   S    
O4    C2    A    
C3    C26   S    
C15   H1    S    
C13   C14   A    
C60   C61   A    
O13   C68   A    
C5    C9    A    
C41   C42   S    
C42   C44   S    
C7    C11   A    
C48   C63   A    
O5    V1    S    
C17   C18   A    
C53   C57   A    
C58   C59   A    
C41   H12   S    
C23   C27   S    
C35   C42   S    
C31   C32   S    
C52   C54   A    
C51   C52   A    
C6    C22   A    
O11   C66   A    
C70   H25   S    
C29   C30   S    
O6    V2    S    
O12   C65   A    
O9    V2    S    
C71   H27   S    
C23   O22   S    
C74   H37   S    
C24   H7    S    
C72   H30   S    
O2    V1    S    
C56   H19   S    
O21   C69   S    
C47   C65   S    
C70   H26   S    
O14   V3    S    
O13   V3    S    
C27   C28   S    
C40   C43   S    
C35   C39   S    
O18   V4    S    
C10   C11   A    
C12   C16   A    
C55   C56   A    
C72   H31   S    
C61   C64   A    
C17   F5    S    
O16   V4    S    
C69   H22   S    
C70   H24   S    
C28   C33   S    
O3    C4    A    
C73   H33   S    
O12   V3    S    
C20   C21   A    
O24   C72   S    
O7    V2    S    
C48   C64   A    
O4    V1    S    
O3    V1    S    
V1    O10   S    
O26   C74   S    
C18   C20   A    
C25   C33   T    
C63   H15   S    
C22   F3    S    
C30   C34   S    
C58   H20   S    
C1    C37   S    
C35   H10   S    
O15   V3    S    
C10   C12   A    
C24   C28   S    
C57   O25   S    
C39   C40   S    
C6    C21   A    
C69   H23   S    
C54   C55   A    
C38   C46   T    
C43   C44   S    
C49   C53   A    
O19   C68   A    
C71   H28   S    
C74   H36   S    
O25   C73   S    
C59   H16   S    
C64   H14   S    
C9    C10   A    
O8    C3    A    
O23   C71   S    
C44   O24   S    
C25   C68   S    
