data_mof_unit_65550.cif
_audit_creation_date              2012-12-10T20:24:58-0500
_audit_creation_method            fapswitch 2.2
_symmetry_space_group_name_H-M    P1
_symmetry_Int_Tables_number       1
_space_group_crystal_system       triclinic
_cell_length_a                    25.667278
_cell_length_b                    25.667307
_cell_length_c                    43.071131
_cell_angle_alpha                 90.0
_cell_angle_beta                  90.000012
_cell_angle_gamma                 89.995966
_cell_volume                      28375.687621

loop_
_atom_site_label
_atom_site_type_symbol
_atom_type_description
_atom_site_fract_x
_atom_site_fract_y
_atom_site_fract_z
_atom_type_partial_charge
C1    C     C_1   0.171724 0.328218 0.249968 -0.059038
C2    C     C_1   0.828277 0.671783 0.750032 -0.059133
C3    C     C_1   0.671704 0.171804 0.250055 -0.059902
C4    C     C_1   0.328297 0.828195 0.749945 -0.059951
C5    C     C_1   0.828276 0.671782 0.249968 -0.059048
C6    C     C_1   0.171723 0.328217 0.750032 -0.059117
C7    C     C_1   0.328296 0.828196 0.250055 -0.059903
C8    C     C_1   0.671703 0.171805 0.749944 -0.059954
C9    C     C_1   0.171791 0.671726 0.749966 -0.060399
C10   C     C_1   0.828209 0.328273 0.250034 -0.060355
C11   C     C_1   0.671805 0.828289 0.750052 -0.059629
C12   C     C_1   0.328198 0.171714 0.249949 -0.059539
C13   C     C_1   0.828208 0.328274 0.749966 -0.060401
C14   C     C_1   0.171791 0.671727 0.250034 -0.060356
C15   C     C_1   0.328196 0.171712 0.750051 -0.059615
C16   C     C_1   0.671803 0.828287 0.249949 -0.059548
C17   C     C_R   0.211346 0.288566 0.249957 0.154456
C18   C     C_R   0.788657 0.711437 0.750045 0.154448
C19   C     C_R   0.711326 0.211457 0.250060 0.154895
C20   C     C_R   0.288675 0.788542 0.749938 0.154924
C21   C     C_R   0.788654 0.711435 0.249957 0.154447
C22   C     C_R   0.211344 0.288564 0.750044 0.154453
C23   C     C_R   0.288674 0.788543 0.250060 0.154897
C24   C     C_R   0.711324 0.211459 0.749937 0.154925
C25   C     C_R   0.211450 0.711345 0.749951 0.155025
C26   C     C_R   0.788551 0.288654 0.250048 0.154997
C27   C     C_R   0.711456 0.788663 0.750056 0.154563
C28   C     C_R   0.288548 0.211342 0.249946 0.154577
C29   C     C_R   0.788550 0.288655 0.749950 0.155026
C30   C     C_R   0.211449 0.711346 0.250048 0.154999
C31   C     C_R   0.288545 0.211339 0.750055 0.154570
C32   C     C_R   0.711453 0.788659 0.249946 0.154566
C33   C     C_R   0.460612 0.027227 0.114967 -0.052267
C34   C     C_R   0.539382 0.972767 0.885034 -0.052310
C35   C     C_R   0.972782 0.539393 0.114967 -0.052161
C36   C     C_R   0.027218 0.460607 0.885033 -0.052174
C37   C     C_R   0.539386 0.972773 0.114967 -0.052281
C38   C     C_R   0.460617 0.027233 0.885033 -0.052287
C39   C     C_R   0.027218 0.460607 0.114967 -0.052149
C40   C     C_R   0.972782 0.539392 0.885033 -0.052193
C41   C     C_R   0.960612 0.527225 0.614966 -0.052070
C42   C     C_R   0.039392 0.472780 0.385033 -0.052026
C43   C     C_R   0.472774 0.960616 0.614966 -0.052303
C44   C     C_R   0.527224 0.039385 0.385033 -0.052268
C45   C     C_R   0.039388 0.472775 0.614967 -0.052047
C46   C     C_R   0.960609 0.527220 0.385033 -0.052041
C47   C     C_R   0.527226 0.039383 0.614966 -0.052315
C48   C     C_R   0.472776 0.960615 0.385033 -0.052269
C49   C     C_1   0.361417 0.138521 0.249965 -0.119135
C50   C     C_1   0.638584 0.861480 0.750036 -0.119215
C51   C     C_1   0.861429 0.361463 0.250017 -0.121059
C52   C     C_1   0.138571 0.638537 0.749982 -0.121112
C53   C     C_1   0.638583 0.861479 0.249965 -0.119141
C54   C     C_1   0.361416 0.138521 0.750035 -0.119206
C55   C     C_1   0.138571 0.638537 0.250017 -0.121060
C56   C     C_1   0.861429 0.361463 0.749982 -0.121113
C57   C     C_1   0.361483 0.861416 0.749963 -0.119341
C58   C     C_1   0.638517 0.138583 0.250037 -0.119281
C59   C     C_1   0.861468 0.638565 0.750017 -0.117397
C60   C     C_1   0.138532 0.361436 0.249983 -0.117308
C61   C     C_1   0.638516 0.138584 0.749963 -0.119344
C62   C     C_1   0.361483 0.861417 0.250037 -0.119283
C63   C     C_1   0.138532 0.361436 0.750017 -0.117384
C64   C     C_1   0.861468 0.638564 0.249983 -0.117316
C65   C     C_R   0.499999 1.000000 0.065958 0.024319
C66   C     C_R   0.499999 1.000000 0.934042 0.024320
C67   C     C_R   0.000000 0.499999 0.065958 0.024286
C68   C     C_R   0.000000 0.499999 0.934042 0.024283
C69   C     C_R   0.000001 0.500000 0.565958 0.024401
C70   C     C_R   0.000001 0.500000 0.434042 0.024401
C71   C     C_R   0.500000 0.999999 0.565958 0.024426
C72   C     C_R   0.500000 1.000000 0.434042 0.024427
C73   C     C_R   0.461736 0.027405 0.082430 -0.178013
C74   C     C_R   0.538257 0.972588 0.917571 -0.177983
C75   C     C_R   0.972604 0.538269 0.082429 -0.177994
C76   C     C_R   0.027396 0.461730 0.917570 -0.177969
C77   C     C_R   0.538262 0.972595 0.082429 -0.178009
C78   C     C_R   0.461741 0.027411 0.917571 -0.177995
C79   C     C_R   0.027396 0.461730 0.082430 -0.177996
C80   C     C_R   0.972604 0.538269 0.917571 -0.177970
C81   C     C_R   0.961736 0.527403 0.582429 -0.177877
C82   C     C_R   0.038268 0.472602 0.417570 -0.177909
C83   C     C_R   0.472596 0.961740 0.582429 -0.177942
C84   C     C_R   0.527402 0.038261 0.417571 -0.177965
C85   C     C_R   0.038265 0.472597 0.582429 -0.177890
C86   C     C_R   0.961733 0.527398 0.417571 -0.177903
C87   C     C_R   0.527404 0.038259 0.582429 -0.177949
C88   C     C_R   0.472598 0.961739 0.417571 -0.177956
C89   C     C_R   0.500000 0.000000 0.131552 -0.171094
C90   C     C_R   0.500000 1.000000 0.868448 -0.171106
C91   C     C_R   1.000000 0.500000 0.131552 -0.171059
C92   C     C_R   0.000000 0.500000 0.868448 -0.171070
C93   C     C_R   0.000000 0.500000 0.631552 -0.171047
C94   C     C_R   0.000000 0.500000 0.368448 -0.171036
C95   C     C_R   0.500000 1.000000 0.631551 -0.171089
C96   C     C_R   0.500000 1.000000 0.368448 -0.171074
C97   C     C_R   0.000001 0.500000 0.468433 0.313760
C98   C     C_R   0.000001 0.500000 0.531567 0.313761
C99   C     C_R   0.500000 0.999999 0.468433 0.313674
C100  C     C_R   0.500000 0.999999 0.531567 0.313671
C101  C     C_R   0.499999 1.000000 0.968433 0.313426
C102  C     C_R   0.499999 1.000000 0.031567 0.313426
C103  C     C_R   1.000000 0.499999 0.968433 0.313447
C104  C     C_R   0.000000 0.499999 0.031567 0.313448
C105  C     C_R   0.500000 1.000000 0.334237 0.921466
C106  C     C_R   0.500000 1.000000 0.665763 0.921488
C107  C     C_R   0.000000 0.500000 0.334237 0.921718
C108  C     C_R   1.000000 0.500000 0.665763 0.921734
C109  C     C_R   0.000000 0.500000 0.834237 0.921733
C110  C     C_R   0.000000 0.500000 0.165763 0.921702
C111  C     C_R   0.500000 0.000000 0.834237 0.921554
C112  C     C_R   0.500000 0.000000 0.165763 0.921542
C113  C     C_R   0.599036 0.099058 0.250011 0.849598
C114  C     C_R   0.400964 0.900942 0.749989 0.849676
C115  C     C_R   0.900956 0.599047 0.249998 0.861885
C116  C     C_R   0.099044 0.400953 0.750002 0.861945
C117  C     C_R   0.400964 0.900942 0.250011 0.849598
C118  C     C_R   0.599036 0.099058 0.749989 0.849697
C119  C     C_R   0.099044 0.400953 0.249998 0.861856
C120  C     C_R   0.900956 0.599047 0.750002 0.861984
C121  C     C_R   0.599058 0.900964 0.750011 0.849482
C122  C     C_R   0.400942 0.099036 0.249989 0.849347
C123  C     C_R   0.900950 0.400953 0.749998 0.837254
C124  C     C_R   0.099049 0.599047 0.250002 0.837145
C125  C     C_R   0.400942 0.099036 0.750011 0.849439
C126  C     C_R   0.599058 0.900964 0.249989 0.849377
C127  C     C_R   0.099049 0.599047 0.749998 0.837229
C128  C     C_R   0.900950 0.400953 0.250002 0.837146
C129  C     C_R   0.226969 0.265499 0.277932 -0.166053
C130  C     C_R   0.775579 0.737049 0.722394 -0.166223
C131  C     C_R   0.741265 0.220205 0.276758 -0.166187
C132  C     C_R   0.257399 0.781132 0.723644 -0.166303
C133  C     C_R   0.773625 0.735095 0.277871 -0.166083
C134  C     C_R   0.225269 0.263800 0.722267 -0.166186
C135  C     C_R   0.258757 0.779773 0.276764 -0.166180
C136  C     C_R   0.743162 0.218307 0.723830 -0.166351
C137  C     C_R   0.218860 0.742609 0.723651 -0.167339
C138  C     C_R   0.779803 0.258728 0.276751 -0.167298
C139  C     C_R   0.737055 0.775586 0.722400 -0.167677
C140  C     C_R   0.265494 0.226962 0.277926 -0.167667
C141  C     C_R   0.781701 0.256830 0.723837 -0.167324
C142  C     C_R   0.220219 0.741250 0.276758 -0.167309
C143  C     C_R   0.263794 0.225262 0.722273 -0.167684
C144  C     C_R   0.735100 0.773632 0.277865 -0.167659
C145  C     C_R   0.724539 0.763056 0.777708 -0.165731
C146  C     C_R   0.272922 0.234405 0.221970 -0.165536
C147  C     C_R   0.242736 0.718749 0.776241 -0.167154
C148  C     C_R   0.758603 0.279912 0.223354 -0.167110
C149  C     C_R   0.274615 0.236098 0.777834 -0.165685
C150  C     C_R   0.726487 0.765004 0.222030 -0.165571
C151  C     C_R   0.756702 0.281813 0.776054 -0.167173
C152  C     C_R   0.241374 0.720111 0.223347 -0.167103
C153  C     C_R   0.720067 0.241389 0.223360 -0.167787
C154  C     C_R   0.281271 0.757272 0.776235 -0.167807
C155  C     C_R   0.234394 0.272943 0.221975 -0.166399
C156  C     C_R   0.763066 0.724518 0.777703 -0.166541
C157  C     C_R   0.279910 0.758633 0.223354 -0.167797
C158  C     C_R   0.718166 0.243291 0.776048 -0.167784
C159  C     C_R   0.765014 0.726466 0.222035 -0.166421
C160  C     C_R   0.236088 0.274636 0.777829 -0.166502
H1    H     H_    0.431632 0.048092 0.069826 0.193940
H2    H     H_    0.568357 0.951896 0.930174 0.193945
H3    H     H_    0.951923 0.568377 0.069826 0.193953
H4    H     H_    0.048077 0.431622 0.930174 0.193957
H5    H     H_    0.568366 0.951907 0.069826 0.193943
H6    H     H_    0.431640 0.048104 0.930174 0.193941
H7    H     H_    0.048077 0.431622 0.069826 0.193951
H8    H     H_    0.951922 0.568376 0.930174 0.193959
H9    H     H_    0.931632 0.548090 0.569826 0.193821
H10   H     H_    0.068375 0.451919 0.430174 0.193813
H11   H     H_    0.451909 0.931639 0.569826 0.193833
H12   H     H_    0.548088 0.068362 0.430174 0.193826
H13   H     H_    0.068369 0.451910 0.569826 0.193815
H14   H     H_    0.931626 0.548081 0.430174 0.193817
H15   H     H_    0.548091 0.068360 0.569826 0.193834
H16   H     H_    0.451912 0.931636 0.430174 0.193828
N1    N     N_R   0.536654 0.973090 0.015451 -0.161839
N2    N     N_R   0.463344 0.026910 0.984549 -0.161843
N3    N     N_R   0.026886 0.463327 0.015451 -0.161837
N4    N     N_R   0.973114 0.536672 0.984549 -0.161835
N5    N     N_R   0.463344 0.026910 0.015451 -0.161844
N6    N     N_R   0.536654 0.973090 0.984549 -0.161838
N7    N     N_R   0.973114 0.536672 0.015451 -0.161836
N8    N     N_R   0.026886 0.463327 0.984549 -0.161835
N9    N     N_R   0.036670 0.473110 0.515451 -0.161935
N10   N     N_R   0.963331 0.526890 0.484549 -0.161931
N11   N     N_R   0.526901 0.036657 0.515451 -0.161935
N12   N     N_R   0.473099 0.963341 0.484549 -0.161934
N13   N     N_R   0.963331 0.526890 0.515451 -0.161929
N14   N     N_R   0.036670 0.473110 0.484549 -0.161936
N15   N     N_R   0.473099 0.963341 0.515451 -0.161932
N16   N     N_R   0.526901 0.036657 0.484549 -0.161937
O1    O     O_3   0.500000 0.000000 0.250000 -0.502575
O2    O     O_3   0.500000 0.000000 0.750000 -0.502509
O3    O     O_3   1.000000 0.500000 0.250000 -0.502621
O4    O     O_3   1.000000 0.500000 0.750000 -0.502556
O5    O     O_R   0.457240 0.000000 0.319330 -0.621120
O6    O     O_R   0.542760 0.000000 0.680670 -0.621144
O7    O     O_R   1.000000 0.457240 0.319330 -0.621076
O8    O     O_R   0.000000 0.542760 0.680670 -0.621109
O9    O     O_R   0.542760 0.000000 0.319330 -0.621123
O10   O     O_R   0.457240 0.000000 0.680670 -0.621137
O11   O     O_R   1.000000 0.542760 0.319330 -0.621089
O12   O     O_R   0.000000 0.457240 0.680670 -0.621089
O13   O     O_R   0.957240 0.500000 0.819330 -0.621130
O14   O     O_R   0.042760 0.500000 0.180670 -0.621104
O15   O     O_R   0.500000 0.957240 0.819330 -0.621150
O16   O     O_R   0.500000 0.042760 0.180670 -0.621118
O17   O     O_R   0.042760 0.500000 0.819330 -0.621121
O18   O     O_R   0.957240 0.500000 0.180670 -0.621114
O19   O     O_R   0.500000 0.042760 0.819330 -0.621130
O20   O     O_R   0.500000 0.957240 0.180670 -0.621130
O21   O     O_R   0.602780 0.060140 0.268190 -0.623761
O22   O     O_R   0.397220 0.939860 0.731810 -0.623810
O23   O     O_R   0.939860 0.602780 0.268190 -0.626265
O24   O     O_R   0.060140 0.397220 0.731810 -0.626327
O25   O     O_R   0.397220 0.939860 0.268190 -0.623752
O26   O     O_R   0.602780 0.060140 0.731810 -0.623840
O27   O     O_R   0.060140 0.397220 0.268190 -0.626247
O28   O     O_R   0.939860 0.602780 0.731810 -0.626342
O29   O     O_R   0.602780 0.939860 0.731810 -0.637722
O30   O     O_R   0.397220 0.060140 0.268190 -0.637625
O31   O     O_R   0.939860 0.397220 0.731810 -0.635150
O32   O     O_R   0.060140 0.602780 0.268190 -0.635097
O33   O     O_R   0.397220 0.060140 0.731810 -0.637690
O34   O     O_R   0.602780 0.939860 0.268190 -0.637641
O35   O     O_R   0.060140 0.602780 0.731810 -0.635153
O36   O     O_R   0.939860 0.397220 0.268190 -0.635088
O37   O     O_R   0.102780 0.560140 0.768190 -0.635212
O38   O     O_R   0.897220 0.439860 0.231810 -0.635171
O39   O     O_R   0.439860 0.102780 0.768190 -0.623677
O40   O     O_R   0.560140 0.897220 0.231810 -0.623613
O41   O     O_R   0.897220 0.439860 0.768190 -0.635238
O42   O     O_R   0.102780 0.560140 0.231810 -0.635161
O43   O     O_R   0.560140 0.897220 0.768190 -0.623693
O44   O     O_R   0.439860 0.102780 0.231810 -0.623594
O45   O     O_R   0.102780 0.439860 0.231810 -0.626201
O46   O     O_R   0.897220 0.560140 0.768190 -0.626310
O47   O     O_R   0.439860 0.897220 0.231810 -0.637782
O48   O     O_R   0.560140 0.102780 0.768190 -0.637833
O49   O     O_R   0.897220 0.560140 0.231810 -0.626220
O50   O     O_R   0.102780 0.439860 0.768190 -0.626274
O51   O     O_R   0.560140 0.102780 0.231810 -0.637774
O52   O     O_R   0.439860 0.897220 0.768190 -0.637836
Zn1   Zn    Zn3+2 0.500000 0.061050 0.224040 1.039527
Zn2   Zn    Zn3+2 0.500000 0.938950 0.775960 1.039442
Zn3   Zn    Zn3+2 0.938950 0.500000 0.224040 1.039571
Zn4   Zn    Zn3+2 0.061050 0.500000 0.775960 1.039535
Zn5   Zn    Zn3+2 0.500000 0.938950 0.224040 1.039508
Zn6   Zn    Zn3+2 0.500000 0.061050 0.775960 1.039461
Zn7   Zn    Zn3+2 0.061050 0.500000 0.224040 1.039591
Zn8   Zn    Zn3+2 0.938950 0.500000 0.775960 1.039498
Zn9   Zn    Zn3+2 0.000000 0.561050 0.724040 1.039558
Zn10  Zn    Zn3+2 1.000000 0.438950 0.275960 1.039642
Zn11  Zn    Zn3+2 0.438950 0.000000 0.724040 1.039460
Zn12  Zn    Zn3+2 0.561050 0.000000 0.275960 1.039506
Zn13  Zn    Zn3+2 0.000000 0.438950 0.724040 1.039578
Zn14  Zn    Zn3+2 0.000000 0.561050 0.275960 1.039622
Zn15  Zn    Zn3+2 0.561050 0.000000 0.724040 1.039425
Zn16  Zn    Zn3+2 0.438950 0.000000 0.275960 1.039519
C161  C     C_2   0.416520 0.054509 0.130520 0.920190
O53   O     O_2   0.399548 0.038966 0.155382 -0.646490
O54   O     O_R   0.393131 0.097325 0.116043 -0.794191
H17   H     H_    0.363310 0.112346 0.128625 0.350337
C162  C     C_2   0.583470 0.945477 0.869481 0.920237
O55   O     O_2   0.600448 0.961020 0.844621 -0.646315
O56   O     O_R   0.606847 0.902653 0.883956 -0.794229
H18   H     H_    0.636666 0.887628 0.871375 0.350473
C163  C     C_2   0.945508 0.583490 0.130520 0.920092
O57   O     O_2   0.961050 0.600456 0.155383 -0.646752
O58   O     O_R   0.902699 0.606891 0.116041 -0.794212
H19   H     H_    0.887684 0.636714 0.128624 0.350287
C164  C     C_2   0.054492 0.416509 0.869480 0.920114
O59   O     O_2   0.038950 0.399545 0.844616 -0.646658
O60   O     O_R   0.097300 0.393108 0.883959 -0.794241
H20   H     H_    0.112315 0.363285 0.871376 0.350343
C165  C     C_2   0.583479 0.945491 0.130519 0.920199
O61   O     O_2   0.600451 0.961034 0.155381 -0.646458
O62   O     O_R   0.606866 0.902673 0.116043 -0.794197
H21   H     H_    0.636687 0.887653 0.128625 0.350367
C166  C     C_2   0.416529 0.054522 0.869481 0.920213
O63   O     O_2   0.399552 0.038980 0.844620 -0.646374
O64   O     O_R   0.393151 0.097346 0.883956 -0.794228
H22   H     H_    0.363332 0.112371 0.871374 0.350419
C167  C     C_2   0.054492 0.416509 0.130520 0.920087
O65   O     O_2   0.038949 0.399544 0.155384 -0.646782
O66   O     O_R   0.097300 0.393108 0.116042 -0.794205
H23   H     H_    0.112315 0.363285 0.128624 0.350257
C168  C     C_2   0.945507 0.583490 0.869480 0.920108
O67   O     O_2   0.961049 0.600455 0.844617 -0.646629
O68   O     O_R   0.902698 0.606889 0.883959 -0.794246
H24   H     H_    0.887683 0.636713 0.871377 0.350392
C169  C     C_2   0.916520 0.554507 0.630519 0.920212
O69   O     O_2   0.899548 0.538965 0.655381 -0.646567
O70   O     O_R   0.893130 0.597322 0.616042 -0.794698
H25   H     H_    0.863309 0.612343 0.628624 0.350122
C170  C     C_2   0.083488 0.445504 0.369480 0.920167
O71   O     O_2   0.100455 0.461046 0.344617 -0.646740
O72   O     O_R   0.106886 0.402693 0.383958 -0.794660
H26   H     H_    0.136709 0.387677 0.371376 0.349986
C171  C     C_2   0.445493 0.916527 0.630519 0.920294
O73   O     O_2   0.461037 0.899551 0.655380 -0.646179
O74   O     O_R   0.402674 0.893147 0.616043 -0.794571
H27   H     H_    0.387654 0.863327 0.628624 0.350637
C172  C     C_2   0.554503 0.083475 0.369481 0.920251
O75   O     O_2   0.538958 0.100450 0.344620 -0.646306
O76   O     O_R   0.597321 0.106857 0.383957 -0.794575
H28   H     H_    0.612339 0.136677 0.371376 0.350522
C173  C     C_2   0.083481 0.445494 0.630520 0.920189
O77   O     O_2   0.100452 0.461036 0.655382 -0.646626
O78   O     O_R   0.106872 0.402678 0.616043 -0.794697
H29   H     H_    0.136693 0.387658 0.628625 0.350068
C174  C     C_2   0.916513 0.554496 0.369480 0.920176
O79   O     O_2   0.899545 0.538954 0.344617 -0.646709
O80   O     O_R   0.893116 0.597307 0.383958 -0.794666
H30   H     H_    0.863293 0.612324 0.371376 0.350016
C175  C     C_2   0.554507 0.083472 0.630519 0.920280
O81   O     O_2   0.538963 0.100449 0.655380 -0.646176
O82   O     O_R   0.597327 0.106851 0.616043 -0.794565
H31   H     H_    0.612347 0.136671 0.628624 0.350683
C176  C     C_2   0.445497 0.916525 0.369481 0.920266
O83   O     O_2   0.461042 0.899550 0.344619 -0.646291
O84   O     O_R   0.402680 0.893142 0.383957 -0.794571
H32   H     H_    0.387661 0.863321 0.371375 0.350522
H33   H     H_    0.277290 0.209380 0.299689 0.150332
H34   H     H_    0.727238 0.795147 0.700890 0.150404
H35   H     H_    0.802739 0.265168 0.297517 0.150693
H36   H     H_    0.194884 0.737210 0.703199 0.150685
H37   H     H_    0.723765 0.791675 0.299581 0.150356
H38   H     H_    0.274270 0.206361 0.700664 0.150379
H39   H     H_    0.197301 0.734792 0.297529 0.150689
H40   H     H_    0.806114 0.261792 0.703530 0.150697
H41   H     H_    0.262800 0.805097 0.703188 0.151071
H42   H     H_    0.734824 0.197280 0.297529 0.151037
H43   H     H_    0.795129 0.727232 0.700880 0.150655
H44   H     H_    0.209398 0.277294 0.299698 0.150511
H45   H     H_    0.738199 0.193905 0.703518 0.151086
H46   H     H_    0.265216 0.802680 0.297540 0.151039
H47   H     H_    0.206379 0.274275 0.700654 0.150602
H48   H     H_    0.791657 0.723761 0.299590 0.150551
H49   H     H_    0.772882 0.704953 0.799212 0.151054
H50   H     H_    0.222598 0.290529 0.200214 0.150906
H51   H     H_    0.305242 0.762676 0.796688 0.150159
H52   H     H_    0.697137 0.234944 0.202592 0.150161
H53   H     H_    0.225612 0.293542 0.799437 0.151004
H54   H     H_    0.776349 0.708418 0.200321 0.150947
H55   H     H_    0.693759 0.238324 0.796357 0.150176
H56   H     H_    0.302822 0.765096 0.202581 0.150156
H57   H     H_    0.765045 0.302832 0.202582 0.150239
H58   H     H_    0.237334 0.694789 0.796699 0.150244
H59   H     H_    0.290497 0.222613 0.200205 0.150980
H60   H     H_    0.704984 0.772869 0.799221 0.151129
H61   H     H_    0.234915 0.697208 0.202570 0.150241
H62   H     H_    0.761667 0.306211 0.796368 0.150249
H63   H     H_    0.708450 0.776334 0.200312 0.151021
H64   H     H_    0.293511 0.225626 0.799446 0.151075

loop_
_geom_bond_atom_site_label_1
_geom_bond_atom_site_label_2
_ccdc_geom_bond_type
C122  O44   A    
O27   Zn10  S    
O47   Zn5   S    
O68   H24   S    
C116  O24   A    
C12   C49   T    
N9    N14   A    
O35   Zn9   S    
C171  O73   D    
N12   N15   A    
O26   Zn15  S    
O24   Zn13  S    
O23   Zn14  S    
C92   C109  S    
N1    N6    A    
C127  O37   A    
C135  H46   S    
O2    Zn11  S    
C156  H49   S    
C73   H1    S    
C134  C143  A    
C115  O49   A    
O37   Zn4   S    
C135  C142  A    
C113  O51   A    
C83   H11   S    
C58   C113  S    
C117  O25   A    
C81   H9    S    
C124  O42   A    
C69   C98   S    
C105  O5    A    
C139  H34   S    
C64   C115  S    
O4    Zn4   S    
C21   C159  A    
C126  O34   A    
C9    C52   T    
C20   C132  A    
C109  O17   A    
C10   C51   T    
C39   C91   A    
C52   C127  S    
C54   C125  S    
C116  O50   A    
C65   C77   A    
C150  C159  A    
O84   H32   S    
C151  C158  A    
O54   H17   S    
C67   C79   A    
C1    C60   T    
C2    C59   T    
C38   C78   A    
C44   C84   A    
C132  C137  A    
O3    Zn3   S    
O4    Zn9   S    
C5    C64   T    
C86   H14   S    
C6    C63   T    
C7    C62   T    
C136  C141  A    
O12   Zn13  S    
O74   H27   S    
C11   C27   S    
C27   C145  A    
C115  O23   A    
C40   C168  S    
C25   C147  A    
C26   C148  A    
C72   C84   A    
C33   C73   A    
C163  O58   S    
C19   C153  A    
C18   C130  A    
C148  C153  A    
C68   C80   A    
C17   C155  A    
C18   C156  A    
O31   Zn13  S    
C133  H48   S    
C152  C157  A    
C48   C96   A    
O46   Zn8   S    
C61   C118  S    
O49   Zn3   S    
C153  H52   S    
C42   C170  S    
C37   C89   A    
C38   C90   A    
C159  H54   S    
C46   C174  S    
C145  H60   S    
C31   C143  A    
O4    Zn13  S    
C70   C82   A    
O50   Zn4   S    
C32   C144  A    
C4    C20   S    
C104  N7    A    
C5    C21   S    
C117  O47   A    
C167  O66   S    
C176  O83   D    
O2    Zn2   S    
O3    Zn10  S    
C131  C138  A    
C134  H47   S    
C79   H7    S    
C80   H8    S    
O58   H19   S    
O41   Zn8   S    
C41   C169  S    
C114  O52   A    
C59   C120  S    
C43   C83   A    
C114  O22   A    
C25   C137  A    
C68   C103  S    
C45   C93   A    
C39   C167  S    
C51   C128  S    
C98   N9    A    
C161  O53   D    
C174  O80   S    
C77   H5    S    
C66   C74   A    
O1    Zn16  S    
C60   C119  S    
C75   H3    S    
O2    Zn15  S    
C62   C117  S    
C101  N2    A    
C38   C166  S    
C105  O9    A    
C124  O32   A    
C172  O76   S    
C47   C175  S    
O2    Zn6   S    
C137  H36   S    
O33   Zn11  S    
C13   C56   T    
C24   C136  A    
C14   C55   T    
C165  O61   D    
O28   Zn9   S    
C170  O72   S    
C66   C101  S    
C90   C111  S    
C71   C83   A    
C173  O78   S    
C94   C107  S    
C15   C54   T    
C74   H2    S    
C130  H43   S    
C27   C139  A    
C154  H51   S    
C47   C87   A    
C109  O13   A    
C107  O11   A    
C169  O69   D    
C44   C96   A    
C95   C106  S    
C33   C89   A    
C29   C151  A    
C30   C152  A    
C46   C94   A    
C128  O36   A    
C29   C141  A    
O4    Zn8   S    
C168  O67   D    
C32   C150  A    
C3    C19   S    
C146  H59   S    
C162  O56   S    
O17   Zn4   S    
N11   N16   A    
C131  H42   S    
C122  O30   A    
C67   C75   A    
C111  O15   A    
C69   C85   A    
N3    N8    A    
C118  O48   A    
C133  C144  A    
C121  O29   A    
C84   H12   S    
O42   Zn7   S    
O56   H18   S    
C15   C31   S    
C16   C32   S    
O9    Zn12  S    
C87   H15   S    
C28   C146  A    
C88   H16   S    
O13   Zn8   S    
C107  O7    A    
C22   C160  A    
C7    C23   S    
C23   C157  A    
C8    C24   S    
O52   Zn2   S    
C149  C160  A    
C100  N15   A    
O64   H22   S    
O40   Zn5   S    
O38   Zn3   S    
C37   C165  S    
C72   C99   S    
C96   C105  S    
O48   Zn6   S    
C147  H58   S    
C34   C162  S    
O60   H20   S    
C9    C25   S    
C132  H41   S    
C50   C121  S    
C89   C112  S    
C12   C28   S    
C91   C110  S    
C13   C29   S    
C35   C163  S    
C98   N13   A    
C93   C108  S    
C31   C149  A    
C104  N3    A    
C6    C22   S    
C33   C161  S    
C151  H62   S    
C21   C133  A    
C175  O82   S    
C99   N12   A    
C145  C156  A    
C157  H56   S    
C41   C93   A    
C146  C155  A    
C28   C140  A    
C118  O26   A    
C43   C95   A    
C148  H57   S    
C48   C88   A    
O43   Zn2   S    
C70   C97   S    
C106  O6    A    
C36   C92   A    
O80   H30   S    
C163  O57   D    
C127  O35   A    
C110  O18   A    
O5    Zn16  S    
C125  O33   A    
C130  C139  A    
O6    Zn15  S    
C171  O74   S    
C97   N10   A    
C66   C78   A    
C78   H6    S    
C103  N8    A    
C100  N11   A    
O51   Zn1   S    
O70   H25   S    
C119  O45   A    
C125  O39   A    
C37   C77   A    
O76   H28   S    
C39   C79   A    
C126  O40   A    
O72   H26   S    
C56   C123  S    
C167  O65   D    
O66   H23   S    
C120  O28   A    
C41   C81   A    
O14   Zn7   S    
C34   C74   A    
C71   C87   A    
C63   C116  S    
C166  O64   S    
C152  H61   S    
C36   C164  S    
O32   Zn14  S    
C149  H64   S    
C55   C124  S    
C42   C94   A    
C102  N5    A    
C1    C17   S    
O44   Zn1   S    
C26   C138  A    
C48   C176  S    
C71   C100  S    
C160  H53   S    
C30   C142  A    
C141  H40   S    
C23   C135  A    
N10   N13   A    
O62   H21   S    
C45   C173  S    
C11   C50   T    
C174  O79   D    
C99   N16   A    
C123  O31   A    
O19   Zn6   S    
C111  O19   A    
N2    N5    A    
C69   C81   A    
O82   H31   S    
C3    C58   T    
C169  O70   S    
C172  O75   D    
O1    Zn1   S    
O21   Zn12  S    
C150  H63   S    
O30   Zn16  S    
C158  H55   S    
C44   C172  S    
O78   H29   S    
C82   H10   S    
C2    C18   S    
C170  O71   D    
C42   C82   A    
C113  O21   A    
C142  H39   S    
C173  O77   D    
C43   C171  S    
C35   C75   A    
O25   Zn16  S    
C20   C154  A    
C22   C134  A    
C112  O20   A    
C103  N4    A    
C24   C158  A    
C143  H38   S    
C65   C73   A    
C129  H44   S    
C147  C154  A    
O16   Zn1   S    
C36   C76   A    
C164  O60   S    
C16   C53   T    
O10   Zn11  S    
C176  O84   S    
O3    Zn7   S    
C4    C57   T    
C85   H13   S    
C140  H33   S    
C40   C80   A    
O1    Zn5   S    
C162  O55   D    
C65   C102  S    
O11   Zn14  S    
O8    Zn9   S    
C10   C26   S    
O34   Zn12  S    
C123  O41   A    
C119  O27   A    
O18   Zn3   S    
C14   C30   S    
C72   C88   A    
C67   C104  S    
C19   C131  A    
C17   C129  A    
O1    Zn12  S    
C112  O16   A    
C161  O54   S    
C121  O43   A    
C166  O63   D    
C108  O8    A    
C45   C85   A    
C34   C90   A    
C106  O10   A    
C138  H35   S    
C164  O59   D    
C110  O14   A    
C68   C76   A    
C40   C92   A    
O36   Zn10  S    
C97   N14   A    
C165  O62   S    
C76   H4    S    
O3    Zn14  S    
C144  H37   S    
C70   C86   A    
O15   Zn2   S    
C128  O38   A    
O22   Zn11  S    
C155  H50   S    
N4    N7    A    
O7    Zn10  S    
C57   C114  S    
C8    C61   T    
C108  O12   A    
C129  C140  A    
C49   C122  S    
C168  O68   S    
C175  O81   D    
C53   C126  S    
C120  O46   A    
C102  N1    A    
C47   C95   A    
O45   Zn7   S    
O20   Zn5   S    
O29   Zn15  S    
O39   Zn6   S    
C101  N6    A    
C136  H45   S    
C46   C86   A    
C35   C91   A    
