data_mof_unit_67547.cif
_audit_creation_date              2013-03-05T15:41:21-0500
_audit_creation_method            fapswitch 2.2
_symmetry_space_group_name_H-M    P1
_symmetry_Int_Tables_number       1
_space_group_crystal_system       triclinic
_cell_length_a                    10.752622
_cell_length_b                    8.873128
_cell_length_c                    7.553246
_cell_angle_alpha                 102.943908
_cell_angle_beta                  95.115346
_cell_angle_gamma                 94.810839
_cell_volume                      695.527571272

loop_
_atom_site_label
_atom_site_type_symbol
_atom_site_description
_atom_site_fract_x
_atom_site_fract_y
_atom_site_fract_z
_atom_type_partial_charge
O1    O     O_R   0.509190 0.286130 0.619780 -0.551866
O2    O     O_R   0.490810 0.713870 0.380220 -0.550868
O3    O     O_R   0.485310 0.256770 0.308360 -0.624773
O4    O     O_R   0.514690 0.743230 0.691640 -0.631090
C1    C     C_R   0.495188 0.200548 0.453850 0.795248
C2    C     C_R   0.507545 0.799626 0.546098 0.784543
O5    O     O_R   0.328790 0.514640 0.655680 -0.534567
O6    O     O_R   0.671210 0.485360 0.344320 -0.533154
O7    O     O_R   0.304910 0.485280 0.344260 -0.562991
O8    O     O_R   0.695090 0.514720 0.655740 -0.566702
C3    C     C_R   0.260022 0.498667 0.500835 0.889629
C4    C     C_R   0.739819 0.501593 0.499397 0.941121
Cu1   Cu    Cu3+1 0.514140 0.517380 0.684380 1.084454
Cu2   Cu    Cu3+1 0.485860 0.482620 0.315620 1.089989
N1    N     N_2   0.464560 0.456420 0.038510 0.148126
N2    N     N_2   0.535440 0.543580 0.961490 0.144094
C5    C     C_3   0.049710 0.508919 0.671926 0.192168
C6    C     C_3   0.949884 0.500766 0.333225 0.227051
C7    C     C_3   0.952048 0.379768 0.555306 0.324139
C8    C     C_3   0.048097 0.629592 0.450216 0.363523
C9    C     C_3   0.875825 0.504291 0.498775 -0.356911
C10   C     C_3   0.124287 0.502598 0.503851 -0.420256
C11   C     C_3   0.973533 0.633000 0.615630 0.163607
C12   C     C_3   0.024273 0.374808 0.387207 0.153232
C13   C     C_2   0.494211 0.033253 0.427489 0.197291
C14   C     C_2   0.510998 0.967134 0.572236 0.179745
O9    O     O_3   0.893452 0.254435 0.613615 -0.571989
C15   C     C_3   0.978580 0.144453 0.627710 -0.045745
H1    H     H_    0.079479 0.189357 0.637873 0.133442
H2    H     H_    0.957056 0.044084 0.508063 0.225765
H3    H     H_    0.966328 0.104503 0.754389 0.244910
O10   O     O_3   0.096209 0.759566 0.388721 -0.490675
C16   C     C_3   0.179093 0.859747 0.529587 -0.236155
H4    H     H_    0.218877 0.958490 0.477835 0.184092
H5    H     H_    0.258474 0.800942 0.575278 0.127433
H6    H     H_    0.130590 0.909909 0.648572 0.174292
N3    N     N_R   0.107106 0.516859 0.856208 0.224202
O11   O     O_R   0.085005 0.402884 0.934804 -0.313911
O12   O     O_R   0.183681 0.637278 0.941686 -0.314712
N4    N     N_R   0.894433 0.500726 0.150644 0.218607
O13   O     O_R   0.820663 0.381607 0.054534 -0.313319
O14   O     O_R   0.916463 0.621971 0.084399 -0.249361
N5    N     N_R   0.936054 0.772237 0.730810 0.115452
O15   O     O_R   0.996765 0.834756 0.890603 -0.275192
O16   O     O_R   0.846384 0.840973 0.666364 -0.473125
N6    N     N_R   0.048085 0.231181 0.264316 0.163645
O17   O     O_R   0.957351 0.151069 0.147008 -0.288425
O18   O     O_R   0.144769 0.162717 0.306342 -0.462674
O19   O     O_3   0.360397 0.387396 0.928468 -0.454240
C17   C     C_3   0.324865 0.245891 0.971863 0.020488
H7    H     H_    0.272116 0.264385 0.091686 0.208259
H8    H     H_    0.405941 0.180899 0.992831 0.172686
H9    H     H_    0.261400 0.172111 0.855373 0.113599
O20   O     O_3   0.639146 0.613576 0.071981 -0.460162
C18   C     C_3   0.675494 0.754000 0.026488 0.072123
H10   H     H_    0.594864 0.818883 0.003616 0.161226
H11   H     H_    0.728760 0.734431 0.907058 0.200369
H12   H     H_    0.738686 0.828628 0.142954 0.176225
O21   O     O_3   0.493080 0.947775 0.249946 -0.627349
C19   C     C_3   0.368513 0.914696 0.165197 -0.175460
H13   H     H_    0.317386 0.019126 0.181099 0.170320
H14   H     H_    0.316372 0.824710 0.219043 0.237951
H15   H     H_    0.370745 0.868296 0.016556 0.209535
O22   O     O_3   0.514346 0.053165 0.749909 -0.647817
C20   C     C_3   0.640169 0.089141 0.828552 -0.119064
H16   H     H_    0.687145 0.983365 0.830143 0.171583
H17   H     H_    0.640991 0.153228 0.972694 0.216066
H18   H     H_    0.694107 0.164401 0.756472 0.232321

loop_
_geom_bond_atom_site_label_1
_geom_bond_atom_site_label_2
_geom_bond_distance
_ccdc_geom_bond_type
C1    C13   1.451856 S    
C17   H8    1.103754 S    
O7    Cu2   1.978263 S    
N3    O11   1.298259 A    
C6    C9    1.537183 S    
C7    O9    1.406803 S    
C3    C10   1.464923 S    
C5    C10   1.554038 S    
C5    C11   1.537149 S    
C8    C11   1.539655 S    
O6    C4    1.299813 A    
N5    O15   1.299784 A    
C20   H18   1.110376 S    
C12   N6    1.455495 S    
O22   C20   1.408716 S    
C18   H10   1.102054 S    
N4    O14   1.297463 A    
C17   H7    1.099255 S    
Cu1   N2    2.043301 S    
O21   C19   1.409590 S    
N3    O12   1.298102 A    
C18   H11   1.100263 S    
C5    N3    1.455636 S    
Cu1   Cu2   2.719202 S    
O10   C16   1.410971 S    
C19   H14   1.108307 S    
O5    C3    1.299505 A    
N5    O16   1.298664 A    
O7    C3    1.301617 A    
C2    C14   1.451710 S    
O3    Cu2   1.991925 S    
O8    C4    1.299412 A    
C19   H15   1.109040 S    
O1    C1    1.300351 A    
C10   C12   1.548361 S    
C15   H2    1.109502 S    
N4    O13   1.298580 A    
C7    C9    1.541340 S    
C8    C10   1.550875 S    
C16   H4    1.106270 S    
C6    C8    1.543155 S    
N1    O19   1.345844 S    
C9    C11   1.539129 S    
Cu2   N1    2.043301 S    
O2    Cu2   1.994937 S    
C6    C12   1.533336 S    
C18   H12   1.109512 S    
C17   H9    1.108330 S    
O1    Cu1   1.994935 S    
C5    C7    1.540426 S    
N1    N2    1.303525 D    
N6    O18   1.297715 A    
O3    C1    1.304392 A    
O5    Cu1   1.982950 S    
C16   H6    1.105049 S    
C11   N5    1.452640 S    
O4    C2    1.304854 A    
C20   H16   1.104395 S    
C8    O10   1.412867 S    
N2    O20   1.345882 S    
O9    C15   1.407311 S    
O19   C17   1.398634 S    
C6    N4    1.452749 S    
C14   O22   1.383053 S    
O20   C18   1.399078 S    
C15   H1    1.113851 S    
O6    Cu2   1.982952 S    
C13   O21   1.383342 S    
C16   H5    1.105785 S    
C13   C14   1.357222 D    
N6    O17   1.299844 A    
C7    C12   1.540685 S    
C4    C9    1.461046 S    
C15   H3    1.106859 S    
O2    C2    1.300350 A    
O4    Cu1   1.991926 S    
C19   H13   1.105728 S    
C20   H17   1.108546 S    
O8    Cu1   1.978262 S    
