data_mof_unit_59275.cif
_audit_creation_date              2013-03-05T16:47:26-0500
_audit_creation_method            fapswitch 2.2
_symmetry_space_group_name_H-M    P1
_symmetry_Int_Tables_number       1
_space_group_crystal_system       triclinic
_cell_length_a                    10.971334
_cell_length_b                    8.931069
_cell_length_c                    8.287688
_cell_angle_alpha                 90.13194
_cell_angle_beta                  89.8003
_cell_angle_gamma                 90.323236
_cell_volume                      812.055277667

loop_
_atom_site_label
_atom_site_type_symbol
_atom_site_description
_atom_site_fract_x
_atom_site_fract_y
_atom_site_fract_z
_atom_type_partial_charge
O1    O     O_R   0.500000 0.285340 0.636850 -0.592934
O2    O     O_R   0.500000 0.285340 0.363150 -0.585529
C1    C     C_R   0.500004 0.218728 0.499847 1.065661
O3    O     O_R   0.314790 0.499970 0.636880 -0.589620
O4    O     O_R   0.314790 0.499970 0.363120 -0.663946
O5    O     O_R   0.685210 0.499970 0.636880 -0.618615
O6    O     O_R   0.685210 0.499970 0.363120 -0.547687
N1    N     N_1   0.500000 0.500030 0.073640 0.008063
N2    N     N_1   0.500000 0.500030 0.926360 0.007779
C2    C     C_R   0.258005 0.494779 0.500652 0.873430
C3    C     C_R   0.742015 0.500409 0.499391 1.028429
Zn1   Zn    Zn3+2 0.500000 0.499990 0.682780 1.112266
Zn2   Zn    Zn3+2 0.500000 0.499990 0.317220 1.116669
O7    O     O_R   0.500000 0.714650 0.636900 -0.600865
O8    O     O_R   0.500000 0.714650 0.363100 -0.596892
C4    C     C_R   0.499588 0.781214 0.500113 0.918319
C5    C     C_1   0.499813 0.065307 0.499762 -0.012559
C6    C     C_3   0.072038 0.389438 0.653236 0.101475
C7    C     C_3   0.071838 0.414203 0.334547 0.040600
C8    C     C_3   0.925150 0.412544 0.663207 -0.009111
C9    C     C_3   0.924991 0.400902 0.343336 0.046181
C10   C     C_1   0.499644 0.934586 0.500135 -0.075005
C11   C     C_3   0.076712 0.668074 0.516019 -0.321407
C12   C     C_3   0.928745 0.672294 0.494764 -0.273691
C13   C     C_3   0.121362 0.492281 0.502549 -0.226568
C14   C     C_3   0.878231 0.497827 0.498878 -0.219337
C15   C     C_2   0.123084 0.416179 0.822623 0.512874
H1    H     H_    0.103614 0.332233 0.913261 0.117722
O9    O     O_2   0.182328 0.525004 0.862878 -0.564750
C16   C     C_2   0.118667 0.505986 0.190422 0.320742
H2    H     H_    0.202966 0.471807 0.133662 0.185050
O10   O     O_2   0.068802 0.615875 0.136241 -0.524218
C17   C     C_2   0.885889 0.508146 0.807945 0.440951
H3    H     H_    0.798957 0.484409 0.864595 0.169472
O11   O     O_2   0.945379 0.610221 0.864239 -0.453712
C18   C     C_2   0.877891 0.438918 0.174434 0.543292
H4    H     H_    0.901036 0.360908 0.079906 0.105523
O12   O     O_2   0.817679 0.547540 0.138922 -0.521119
N3    N     N_R   0.115930 0.232510 0.627207 0.242210
O13   O     O_R   0.053003 0.116347 0.671367 -0.246926
O14   O     O_R   0.233182 0.210597 0.627025 -0.376627
N4    N     N_R   0.124036 0.264010 0.295092 0.248788
O15   O     O_R   0.237011 0.232699 0.325940 -0.329675
O16   O     O_R   0.077147 0.190042 0.174223 -0.326360
N5    N     N_R   0.861781 0.267837 0.701901 0.225686
O17   O     O_R   0.762574 0.224429 0.630284 -0.359169
O18   O     O_R   0.882977 0.205071 0.840891 -0.351570
N6    N     N_R   0.876488 0.244415 0.359632 0.231712
O19   O     O_R   0.939446 0.133307 0.414129 -0.252051
O20   O     O_R   0.766433 0.212501 0.310368 -0.358246
C19   C     C_2   0.132124 0.742622 0.668176 0.676747
H5    H     H_    0.230222 0.740661 0.683411 0.073826
O21   O     O_2   0.077216 0.819318 0.765573 -0.432135
C20   C     C_2   0.141923 0.772659 0.395512 0.323596
H6    H     H_    0.218996 0.736878 0.324255 0.135408
O22   O     O_2   0.116896 0.905749 0.388892 -0.443668
C21   C     C_2   0.870059 0.783750 0.614301 0.647739
H7    H     H_    0.906286 0.896706 0.620328 0.196935
O23   O     O_2   0.774944 0.760426 0.686624 -0.535120
C22   C     C_2   0.886303 0.753041 0.340757 0.572218
H8    H     H_    0.946972 0.793984 0.248823 0.225064
O24   O     O_2   0.778639 0.783039 0.319921 -0.505318

loop_
_geom_bond_atom_site_label_1
_geom_bond_atom_site_label_2
_geom_bond_distance
_ccdc_geom_bond_type
O1    C1    1.280638 A    
C18   H4    1.077833 S    
C16   O10   1.214055 D    
C9    C14   1.633864 S    
C20   O22   1.222839 D    
N1    Zn2   2.018716 S    
C5    C10   1.167481 T    
C15   O9    1.212978 D    
O4    Zn2   2.065998 S    
C8    N5    1.498896 S    
C7    N4    1.496513 S    
C12   C22   1.542134 S    
C11   C12   1.634191 S    
C9    N6    1.498887 S    
C15   H1    1.082432 S    
N6    O20   1.305711 A    
O2    C1    1.280817 A    
O4    C2    1.297866 A    
N3    O14   1.302302 A    
C9    C18   1.533291 S    
N5    O17   1.298437 A    
O6    C3    1.291811 A    
O1    Zn1   1.953620 S    
O5    C3    1.296861 A    
C21   H7    1.083304 S    
C6    C13   1.640444 S    
N4    O16   1.304306 A    
C8    C17   1.532741 S    
C2    C13   1.499228 S    
C18   O12   1.214105 D    
N6    O19   1.295286 A    
C17   O11   1.211692 D    
C12   C14   1.651242 S    
C1    C5    1.370201 S    
C6    C8    1.627663 S    
Zn2   O8    1.953628 S    
O5    Zn1   2.065999 S    
C16   H2    1.081366 S    
C7    C13   1.648222 S    
N2    Zn1   2.018714 S    
O7    C4    1.281311 A    
C21   O23   1.218777 D    
O3    Zn1   2.068604 S    
N4    O15   1.298590 A    
C19   O21   1.217529 D    
O3    C2    1.292013 A    
O8    C4    1.280522 A    
O6    Zn2   2.068605 S    
C11   C13   1.650713 S    
C17   H3    1.081712 S    
C11   C20   1.540636 S    
C22   O24   1.225592 D    
C12   C21   1.544387 S    
N5    O18   1.304423 A    
N3    O13   1.295692 A    
O2    Zn2   1.955340 S    
C6    N3    1.499411 S    
C20   H6    1.079167 S    
C22   H8    1.073442 S    
C4    C10   1.369772 S    
C3    C14   1.494765 S    
C7    C9    1.616209 S    
C7    C16   1.535622 S    
C11   C19   1.549192 S    
C6    C15   1.530962 S    
C19   H5    1.084327 S    
Zn1   O7    1.955346 S    
N1    N2    1.220610 T    
C8    C14   1.647422 S    
