data_mof_unit_23154.cif
_audit_creation_date              2012-12-11T17:23:13-0500
_audit_creation_method            fapswitch 2.2
_symmetry_space_group_name_H-M    P1
_symmetry_Int_Tables_number       1
_space_group_crystal_system       triclinic
_cell_length_a                    22.41338
_cell_length_b                    7.096334
_cell_length_c                    19.4037
_cell_angle_alpha                 90.001978
_cell_angle_beta                  99.561377
_cell_angle_gamma                 90.001847
_cell_volume                      3043.34044217

loop_
_atom_site_label
_atom_site_type_symbol
_atom_type_description
_atom_site_fract_x
_atom_site_fract_y
_atom_site_fract_z
_atom_type_partial_charge
O1    O     O_R   0.443980 0.494320 0.557430 -0.536116
O2    O     O_R   0.556020 0.994320 0.442570 -0.536117
O3    O     O_R   0.441210 0.822520 0.414610 -0.537587
O4    O     O_R   0.558790 0.322520 0.585390 -0.537592
C1    C     C_R   0.426700 0.655380 0.388780 0.691540
C2    C     C_R   0.573300 0.155392 0.611220 0.691539
O5    O     O_R   0.436920 0.823940 0.555180 -0.534999
O6    O     O_R   0.563080 0.323940 0.444820 -0.535000
O7    O     O_R   0.551700 0.995760 0.584140 -0.534088
O8    O     O_R   0.448300 0.495760 0.415860 -0.534088
C3    C     C_R   0.421638 0.655363 0.574879 0.719522
C4    C     C_R   0.578362 0.155363 0.425121 0.719526
O9    O     O_3   0.537660 0.661290 0.509340 -0.370870
O10   O     O_3   0.462340 0.161290 0.490660 -0.370866
V1    V     V_3+5 0.493010 0.935560 0.498270 1.426660
V2    V     V_3+5 0.506990 0.435560 0.501730 1.426660
C5    C     C_R   0.753429 0.941702 0.208911 -0.137342
C6    C     C_R   0.246571 0.441710 0.791090 -0.137346
H1    H     H_    0.756971 0.816655 0.177760 0.158440
H2    H     H_    0.243030 0.316668 0.822241 0.158440
C7    C     C_R   0.793002 0.092580 0.204127 0.081964
C8    C     C_R   0.206999 0.592580 0.795873 0.081965
C9    C     C_R   0.788656 0.254388 0.244420 -0.135848
C10   C     C_R   0.211344 0.754381 0.755580 -0.135845
H3    H     H_    0.818760 0.372482 0.241456 0.119354
H4    H     H_    0.181240 0.872469 0.758544 0.119354
C11   C     C_R   0.745495 0.265400 0.289034 -0.090049
C12   C     C_R   0.254505 0.765393 0.710966 -0.090051
H5    H     H_    0.743198 0.392054 0.319674 0.133728
H6    H     H_    0.256802 0.892042 0.680326 0.133727
C13   C     C_R   0.705610 0.115256 0.294186 0.044576
C14   C     C_R   0.294390 0.615257 0.705814 0.044577
C15   C     C_R   0.709526 0.950858 0.253522 -0.005809
C16   C     C_R   0.290474 0.450866 0.746478 -0.005810
C17   C     C_1   0.838171 0.080854 0.158158 -0.044227
C18   C     C_1   0.161830 0.580854 0.841842 -0.044227
C19   C     C_1   0.661132 0.133182 0.341071 -0.065046
C20   C     C_1   0.338868 0.633182 0.658929 -0.065046
C21   C     C_1   0.623714 0.145343 0.379693 -0.183130
C22   C     C_1   0.376286 0.645343 0.620306 -0.183129
C23   C     C_1   0.876073 0.071531 0.120059 -0.182637
C24   C     C_1   0.123927 0.571531 0.879941 -0.182637
C25   C     C_R   0.632838 0.172426 0.804193 -0.150427
C26   C     C_R   0.367192 0.671731 0.195791 -0.150415
H7    H     H_    0.545621 0.196065 0.739930 0.114151
H8    H     H_    0.454410 0.695343 0.260055 0.114157
H9    H     H_    0.715007 0.165593 0.919288 0.133561
H10   H     H_    0.285034 0.664583 0.080687 0.133557
H11   H     H_    0.614326 0.192609 0.851839 0.124257
H12   H     H_    0.385717 0.691580 0.148137 0.124259
C27   C     C_R   0.615681 0.148023 0.678088 -0.040074
C28   C     C_R   0.384321 0.647952 0.321912 -0.040058
C29   C     C_R   0.910223 0.045260 0.760463 -0.162054
C30   C     C_R   0.089757 0.545734 0.239546 -0.162068
C31   C     C_R   0.873645 0.045809 0.695182 -0.120491
C32   C     C_R   0.126327 0.546476 0.304832 -0.120483
C33   C     C_R   0.811298 0.070497 0.689011 -0.156961
C34   C     C_R   0.188681 0.570987 0.310999 -0.156954
C35   C     C_R   0.783543 0.095874 0.748728 0.078265
C36   C     C_R   0.216453 0.595977 0.251274 0.078258
C37   C     C_R   0.821617 0.096450 0.815871 0.067434
C38   C     C_R   0.178388 0.596327 0.184124 0.067428
C39   C     C_R   0.719396 0.120447 0.744037 0.074369
C40   C     C_R   0.280606 0.620386 0.255962 0.074371
C41   C     C_R   0.695251 0.146193 0.806656 0.132474
C42   C     C_R   0.304769 0.645713 0.193332 0.132467
C43   C     C_R   0.733385 0.146209 0.871503 -0.192038
C44   C     C_R   0.266643 0.645514 0.128480 -0.192026
C45   C     C_R   0.795437 0.121522 0.876154 -0.189806
C46   C     C_R   0.204584 0.621008 0.123832 -0.189775
C47   C     C_R   0.678102 0.121008 0.679668 -0.214466
C48   C     C_R   0.321891 0.621169 0.320338 -0.214449
C49   C     C_R   0.593547 0.174120 0.740526 -0.161209
C50   C     C_R   0.406475 0.673609 0.259463 -0.161234
C51   C     C_R   0.885226 0.070655 0.821164 -0.079949
C52   C     C_R   0.114770 0.570727 0.178836 -0.079929
H13   H     H_    0.692818 0.102516 0.629986 0.092276
H14   H     H_    0.307161 0.602993 0.370028 0.092256
H15   H     H_    0.958518 0.024571 0.763704 0.104153
H16   H     H_    0.041453 0.525221 0.236308 0.104143
H17   H     H_    0.786139 0.068863 0.636672 0.107003
H18   H     H_    0.213833 0.569530 0.363343 0.107002
H19   H     H_    0.893825 0.026247 0.648716 0.117794
H20   H     H_    0.106134 0.527223 0.351305 0.117790
H21   H     H_    0.822863 0.122493 0.927657 0.111614
H22   H     H_    0.177165 0.621804 0.072325 0.111571
O11   O     O_R   0.051730 0.724670 0.084120 -0.533945
O12   O     O_R   0.948270 0.224670 0.915880 -0.533953
O13   O     O_R   0.063080 0.393540 0.944820 -0.535811
O14   O     O_R   0.936920 0.893540 0.055180 -0.535809
C53   C     C_R   0.078228 0.562117 0.924949 0.713839
C54   C     C_R   0.921772 0.062117 0.075051 0.713845
O15   O     O_R   0.058800 0.395030 0.085390 -0.535916
O16   O     O_R   0.941200 0.895030 0.914610 -0.535913
O17   O     O_R   0.943980 0.223310 0.057440 -0.533883
O18   O     O_R   0.056020 0.723310 0.942560 -0.533874
C55   C     C_R   0.072984 0.563530 0.111228 0.679818
C56   C     C_R   0.927015 0.063518 0.888772 0.679811
O19   O     O_3   0.962360 0.556290 0.990650 -0.369020
O20   O     O_3   0.037640 0.056290 0.009350 -0.369012
V3    V     V_3+5 0.006980 0.281990 0.001730 1.433075
V4    V     V_3+5 0.993020 0.781990 0.998270 1.433098
C57   C     C_2   0.668251 0.788565 0.257079 0.345004
H23   H     H_    0.635322 0.791181 0.292193 0.059265
O21   O     O_2   0.670368 0.649352 0.220559 -0.530358
C58   C     C_2   0.331749 0.288582 0.742921 0.345008
H24   H     H_    0.364678 0.291196 0.707807 0.059265
O22   O     O_2   0.329633 0.149376 0.779443 -0.530354

loop_
_geom_bond_atom_site_label_1
_geom_bond_atom_site_label_2
_ccdc_geom_bond_type
C25   C49   A    
C42   C44   A    
C39   C41   A    
O18   V4    S    
C11   H5    S    
C18   C24   T    
O1    C3    A    
H8    C50   S    
C40   C48   A    
O2    C4    A    
C2    O7    A    
O12   V3    S    
C51   C56   S    
C45   H21   S    
C37   C51   A    
O5    C3    A    
C5    C15   A    
C8    C10   A    
C36   C38   A    
C29   H15   S    
C10   H4    S    
C28   C50   A    
C34   H18   S    
C33   C35   A    
C58   H24   S    
O16   C56   A    
C37   C45   A    
C38   C46   A    
H7    C49   S    
C24   C53   S    
O14   V4    S    
C48   H14   S    
C53   O18   A    
C26   C42   A    
C41   C43   A    
C13   C15   A    
C1    C28   S    
C14   C20   S    
C2    C27   S    
O13   C53   A    
C25   C41   A    
O5    V1    S    
O6    V2    S    
C15   C57   S    
C38   C52   A    
C29   C51   A    
C27   C47   A    
H9    C43   S    
C32   H20   S    
C30   H16   S    
C29   C31   A    
C30   C32   A    
C35   C37   A    
C11   C13   A    
C16   C58   S    
C10   C12   A    
C12   C14   A    
O4    C2    A    
O15   V3    S    
C25   H11   S    
C52   C55   S    
C54   O17   A    
C5    C7    A    
C13   C19   S    
C43   C45   A    
C14   C16   A    
O4    V2    S    
C28   C48   A    
O11   V4    S    
O14   C54   A    
O6    C4    A    
C23   C54   S    
O20   V4    S    
C57   O21   D    
O1    V2    S    
H10   C44   S    
C26   C50   A    
O2    V1    S    
C6    C16   A    
C30   C52   A    
O19   V3    S    
C39   C47   A    
C9    C11   A    
C31   C33   A    
C33   H17   S    
C31   H19   S    
C46   H22   S    
O15   C55   A    
C47   H13   S    
O3    V1    S    
C26   H12   S    
O13   V3    S    
C6    C8    A    
C27   C49   A    
O3    C1    A    
C7    C17   S    
C8    C18   S    
C35   C39   A    
C36   C40   A    
C4    C21   S    
C7    C9    A    
O7    V1    S    
C1    O8    A    
C19   C21   T    
O8    V2    S    
C20   C22   T    
C58   O22   D    
C12   H6    S    
O20   V3    S    
C5    H1    S    
C32   C34   A    
C6    H2    S    
C9    H3    S    
C3    C22   S    
C17   C23   T    
O19   V4    S    
O16   V4    S    
C44   C46   A    
O9    V2    S    
C57   H23   S    
O10   V1    S    
C34   C36   A    
O12   C56   A    
O17   V3    S    
C40   C42   A    
O11   C55   A    
