data_mof_unit_36060.cif
_audit_creation_date              2012-12-10T18:57:13-0500
_audit_creation_method            fapswitch 2.2
_symmetry_space_group_name_H-M    P1
_symmetry_Int_Tables_number       1
_space_group_crystal_system       triclinic
_cell_length_a                    8.743817
_cell_length_b                    10.832322
_cell_length_c                    9.559237
_cell_angle_alpha                 90.414839
_cell_angle_beta                  97.114174
_cell_angle_gamma                 90.164232
_cell_volume                      898.410703422

loop_
_atom_site_label
_atom_site_type_symbol
_atom_type_description
_atom_site_fract_x
_atom_site_fract_y
_atom_site_fract_z
_atom_type_partial_charge
C1    C     C_R   0.496407 0.262438 0.499090 0.787805
C2    C     C_R   0.632017 0.524952 0.941469 0.319046
C3    C     C_3   0.725030 0.640400 0.945945 -0.502909
C4    C     C_R   0.204269 0.496305 0.464910 0.858745
C5    C     C_3   0.722428 0.643286 0.104299 -0.510954
C6    C     C_R   0.497362 0.737762 0.499938 0.798607
C7    C     C_R   0.795094 0.490991 0.535157 0.877646
C8    C     C_2   0.038914 0.500639 0.449121 -0.458129
C9    C     C_2   0.957328 0.462006 0.550871 -0.154590
C10   C     C_R   0.470506 0.065063 0.620460 0.113768
C11   C     C_R   0.479946 0.129487 0.496076 -0.094585
C12   C     C_R   0.468642 0.934744 0.368738 -0.216471
C13   C     C_R   0.467716 0.063503 0.368007 -0.212547
C14   C     C_2   0.020011 0.375658 0.664602 0.337511
C15   C     C_R   0.481839 0.871036 0.497541 -0.095593
C16   C     C_R   0.471489 0.937963 0.621379 0.133120
C17   C     C_3   0.570314 0.934850 0.760447 -0.492123
C18   C     C_3   0.568471 0.074804 0.759411 -0.431743
C19   C     C_R   0.631622 0.526181 0.088720 0.265545
C20   C     C_R   0.374499 0.462025 0.059748 -0.076753
C21   C     C_R   0.374496 0.462431 0.911345 -0.086808
Cu1   Cu    Cu3+1 0.499990 0.499980 0.640670 0.960501
Cu2   Cu    Cu3+1 0.500010 0.500020 0.359330 0.941434
H1    H     H_    0.272121 0.433669 0.845037 0.161973
H2    H     H_    0.271890 0.432362 0.102573 0.159909
H3    H     H_    0.984225 0.548987 0.357424 0.163845
H4    H     H_    0.123131 0.322521 0.654507 0.083053
H5    H     H_    0.465535 0.110631 0.268239 0.168909
H6    H     H_    0.686486 0.895848 0.752588 0.198673
H7    H     H_    0.841771 0.624160 0.914941 0.217095
H8    H     H_    0.660628 0.717079 0.890795 0.206324
H9    H     H_    0.838394 0.630691 0.163683 0.196496
H10   H     H_    0.655595 0.721886 0.140726 0.211417
H11   H     H_    0.466781 0.885921 0.269259 0.164233
H12   H     H_    0.508050 0.895511 0.844500 0.198737
H13   H     H_    0.504911 0.115591 0.842226 0.199011
H14   H     H_    0.683335 0.116683 0.751351 0.219667
N1    N     N_R   0.500980 0.500930 0.148050 -0.195197
N2    N     N_R   0.500990 0.500890 0.852140 -0.200036
O1    O     O_R   0.500000 0.319640 0.618810 -0.580794
O2    O     O_R   0.500020 0.319680 0.381230 -0.587949
O3    O     O_R   0.274830 0.499980 0.591380 -0.593225
O4    O     O_R   0.274850 0.500020 0.353800 -0.585803
O5    O     O_R   0.499980 0.680320 0.618770 -0.580726
O6    O     O_R   0.500000 0.680360 0.381190 -0.585711
O7    O     O_R   0.725150 0.499980 0.646200 -0.543315
O8    O     O_R   0.725170 0.500020 0.408620 -0.595103
O9    O     O_2   0.954660 0.359952 0.768839 -0.562006

loop_
_geom_bond_atom_site_label_1
_geom_bond_atom_site_label_2
_ccdc_geom_bond_type
C3    H7    S    
C14   O9    D    
C9    C14   S    
C13   H5    S    
C5    C19   S    
C6    O6    A    
C14   H4    S    
Cu2   N1    S    
C17   H6    S    
Cu2   O2    S    
C12   C15   A    
C4    C8    S    
C5    H9    S    
Cu1   O1    S    
C2    C3    S    
C2    C19   A    
Cu2   O4    S    
C10   C16   A    
C20   C21   A    
C3    H8    S    
C11   C13   A    
Cu1   O3    S    
C4    O3    A    
C10   C18   S    
Cu2   O6    S    
Cu1   N2    S    
C1    O2    A    
Cu1   O7    S    
C18   H14   S    
C17   C18   S    
C8    H3    S    
Cu2   O8    S    
C10   C11   A    
C12   H11   S    
C15   C16   A    
C7    O7    A    
C4    O4    A    
C19   N1    A    
C20   N1    A    
C12   C13   A    
C20   H2    S    
C21   H1    S    
C7    C9    S    
Cu1   Cu2   S    
C16   C17   S    
C6    O5    A    
C1    C11   S    
C17   H12   S    
C1    O1    A    
C6    C15   S    
C18   H13   S    
C2    N2    A    
Cu1   O5    S    
C7    O8    A    
C5    H10   S    
C8    C9    D    
C3    C5    S    
C21   N2    A    
