data_mof_unit_23277.cif
_audit_creation_date              2012-12-11T20:34:20-0500
_audit_creation_method            fapswitch 2.2
_symmetry_space_group_name_H-M    P1
_symmetry_Int_Tables_number       1
_space_group_crystal_system       triclinic
_cell_length_a                    24.591055
_cell_length_b                    28.510653
_cell_length_c                    8.841081
_cell_angle_alpha                 90.236694
_cell_angle_beta                  96.96118
_cell_angle_gamma                 89.919502
_cell_volume                      6152.7964398

loop_
_atom_site_label
_atom_site_type_symbol
_atom_type_description
_atom_site_fract_x
_atom_site_fract_y
_atom_site_fract_z
_atom_type_partial_charge
Ba1   Ba    Ba6+2 0.999910 0.466800 0.844920 1.654686
Ba2   Ba    Ba6+2 0.999910 0.533200 0.344920 1.642875
Ba3   Ba    Ba6+2 0.499910 0.966800 0.844920 1.659211
Ba4   Ba    Ba6+2 0.499910 0.033200 0.344920 1.646492
C1    C     C_3   0.018122 0.237320 0.647836 0.338926
C2    C     C_2   0.848179 0.673862 0.850383 -0.179275
C3    C     C_3   0.392301 0.233034 0.494938 -0.137567
C4    C     C_3   0.967217 0.152204 0.285598 -0.252557
C5    C     C_3   0.038128 0.858482 0.655924 -0.258281
C6    C     C_3   0.432966 0.660427 0.236005 -0.257913
C7    C     C_3   0.502523 0.362092 0.496066 -0.183489
C8    C     C_3   0.123120 0.436089 0.165127 -0.144991
C9    C     C_3   0.098399 0.548847 0.768701 -0.103999
C10   C     C_3   0.608440 0.944597 0.220544 -0.097909
C11   C     C_3   0.653556 0.097115 0.607628 -0.190545
C12   C     C_2   0.365614 0.814409 0.334756 -0.169421
C13   C     C_2   0.353947 0.179811 0.848599 -0.154446
C14   C     C_2   0.819828 0.325012 0.200874 -0.049265
C15   C     C_2   0.821817 0.675335 0.699701 -0.042637
C16   C     C_2   0.328501 0.821330 0.201618 -0.030088
C17   C     C_2   0.318870 0.173823 0.710218 -0.019525
C18   C     C_2   0.835161 0.359601 0.097580 0.071148
C19   C     C_2   0.840888 0.643193 0.594291 0.057922
C20   C     C_2   0.337147 0.860554 0.107179 0.031385
C21   C     C_3   0.978170 0.778264 0.101066 0.335612
C22   C     C_2   0.330981 0.136479 0.611024 0.042544
C23   C     C_1   0.872531 0.395220 0.149333 -0.006088
C24   C     C_1   0.874441 0.605225 0.648050 -0.001234
C25   C     C_1   0.376839 0.894508 0.154554 -0.020330
C26   C     C_1   0.373004 0.104207 0.656177 0.010558
C27   C     C_R   0.202301 0.722076 0.073908 0.453144
C28   C     C_R   0.195607 0.274752 0.565602 0.443107
C29   C     C_R   0.696039 0.224325 0.056924 0.446777
C30   C     C_R   0.698588 0.775770 0.558930 0.438955
C31   C     C_R   0.774222 0.290092 0.154525 0.459963
C32   C     C_3   0.524122 0.726962 0.606982 0.342524
C33   C     C_R   0.777424 0.710610 0.652183 0.474624
C34   C     C_R   0.282590 0.786639 0.160245 0.462976
C35   C     C_R   0.273109 0.208705 0.664866 0.460313
C36   C     C_R   0.150134 0.644434 0.114336 -0.131682
C37   C     C_R   0.149553 0.356115 0.594207 -0.133438
C38   C     C_R   0.648619 0.143857 0.089121 -0.135040
C39   C     C_R   0.650162 0.855646 0.595682 -0.126375
C40   C     C_R   0.106086 0.613980 0.069461 0.155112
C41   C     C_R   0.109930 0.390047 0.544041 0.108429
C42   C     C_R   0.610141 0.109140 0.037344 0.077906
C43   C     C_3   0.511000 0.271321 0.126031 0.327203
C44   C     C_R   0.608941 0.888563 0.549543 0.095967
C45   C     C_R   0.085603 0.660336 0.835892 -0.054134
C46   C     C_R   0.081596 0.339010 0.320713 -0.033564
C47   C     C_R   0.581333 0.159970 0.812454 -0.041334
C48   C     C_R   0.581248 0.838028 0.324335 -0.038776
C49   C     C_3   0.980873 0.272009 0.095543 0.793433
C50   C     C_3   0.035382 0.743150 0.614900 0.473903
C51   C     C_3   0.475584 0.778408 0.076784 0.686988
C52   C     C_3   0.482869 0.237798 0.653796 0.525375
C53   C     C_R   0.128811 0.691098 0.884890 -0.140004
C54   C     C_3   0.902387 0.348369 0.374091 0.007914
C55   C     C_R   0.121416 0.305512 0.373826 -0.151873
C56   C     C_R   0.621673 0.193108 0.865804 -0.156834
C57   C     C_R   0.622984 0.805853 0.372401 -0.151354
C58   C     C_R   0.158529 0.687045 0.023083 -0.065006
C59   C     C_R   0.153882 0.311232 0.508276 -0.075985
C60   C     C_R   0.653911 0.187872 0.000671 -0.050387
C61   C     C_R   0.655491 0.811409 0.506579 -0.070606
C62   C     C_R   0.068191 0.627253 0.951900 -0.189641
C63   C     C_R   0.074010 0.380784 0.419247 -0.238305
C64   C     C_R   0.576019 0.116959 0.907175 -0.225313
C65   C     C_3   0.899619 0.649278 0.878980 -0.050483
C66   C     C_R   0.570922 0.877222 0.431105 -0.219243
C67   C     C_3   0.999840 0.222850 0.158053 0.222850
C68   C     C_3   0.081750 0.781443 0.612132 0.188292
C69   C     C_3   0.479822 0.725402 0.118996 0.198248
C70   C     C_3   0.506938 0.288680 0.641269 0.182894
C71   C     C_3   0.202477 0.488535 0.203776 0.606297
C72   C     C_3   0.185634 0.522580 0.695984 0.553285
C73   C     C_3   0.693349 0.987005 0.240719 0.595205
C74   C     C_3   0.692380 0.020657 0.710741 0.613121
C75   C     C_3   0.266935 0.483165 0.188241 0.422239
C76   C     C_3   0.412788 0.843778 0.370563 -0.012239
C77   C     C_3   0.234729 0.550152 0.632581 0.416507
C78   C     C_3   0.731389 0.942175 0.203797 0.360462
C79   C     C_3   0.756667 0.022182 0.778570 0.361401
C80   C     C_3   0.800965 0.496109 0.118234 0.539712
C81   C     C_3   0.797426 0.507770 0.612443 0.525472
C82   C     C_3   0.308603 0.004668 0.130865 0.529023
C83   C     C_3   0.320092 0.985647 0.625698 0.499224
C84   C     C_3   0.742652 0.476323 0.063902 0.047076
C85   C     C_3   0.742118 0.532287 0.556597 0.076532
C86   C     C_3   0.248748 0.985631 0.131773 0.086226
C87   C     C_3   0.404120 0.153511 0.879443 -0.034906
C88   C     C_3   0.258448 0.989028 0.650876 0.129381
C89   C     C_3   0.995290 0.285349 0.587743 0.452118
C90   C     C_3   0.955189 0.730314 0.044221 0.402077
C91   C     C_3   0.505671 0.777812 0.563746 0.389676
C92   C     C_3   0.484880 0.224706 0.064192 0.381840
C93   C     C_2   0.898946 0.392430 0.296601 -0.231872
C94   C     C_2   0.898412 0.606037 0.797952 -0.242187
C95   C     C_2   0.408441 0.888642 0.295047 -0.219699
C96   C     C_2   0.403606 0.109736 0.797981 -0.230306
C97   C     C_3   0.348284 0.435722 0.296941 -0.230767
C98   C     C_2   0.851969 0.322182 0.345116 -0.161596
C99   C     C_3   0.299091 0.617176 0.711156 -0.226853
C100  C     C_3   0.765804 0.899666 0.453035 -0.267061
C101  C     C_3   0.824558 0.072888 0.937940 -0.215549
C102  C     C_3   0.781057 0.577436 0.026123 -0.160462
C103  C     C_3   0.773231 0.427898 0.509784 -0.208673
C104  C     C_3   0.295527 0.082251 0.996709 -0.119440
C105  C     C_3   0.302997 0.911735 0.473130 -0.216599
C106  C     C_3   0.885074 0.243557 0.009448 -0.237680
C107  C     C_3   0.936114 0.732969 0.597310 -0.186842
C108  C     C_3   0.383218 0.762645 0.917648 -0.176001
H1    H     H_    0.028717 0.311782 0.603619 -0.019604
H2    H     H_    0.729030 0.521644 0.436997 0.109800
H3    H     H_    0.253852 0.921270 0.728974 0.184169
H4    H     H_    0.706945 0.412769 0.005610 0.196892
H5    H     H_    0.745417 0.413320 0.176631 0.175233
H6    H     H_    0.713893 0.598257 0.499306 0.190951
H7    H     H_    0.749403 0.594522 0.673896 0.177437
H8    H     H_    0.199749 0.964673 0.288863 0.166449
H9    H     H_    0.227820 0.018151 0.322172 0.194189
H10   H     H_    0.256500 0.060127 0.620475 0.161442
H11   H     H_    0.202106 0.039132 0.689159 0.161507
H12   H     H_    0.060878 0.181427 0.570603 0.170289
H13   H     H_    0.246531 0.949422 0.086510 0.077692
H14   H     H_    0.080458 0.233625 0.512231 0.157055
H15   H     H_    0.999758 0.840771 0.008543 0.184330
H16   H     H_    0.009544 0.793725 0.901036 0.155117
H17   H     H_    0.559579 0.670616 0.509679 0.187188
H18   H     H_    0.581007 0.722707 0.454101 0.160038
H19   H     H_    0.558695 0.323968 0.052902 0.191781
H20   H     H_    0.573894 0.270431 0.993033 0.159390
H21   H     H_    0.075130 0.212332 0.818940 0.184601
H22   H     H_    0.089016 0.266190 0.760553 0.164043
H23   H     H_    0.059772 0.759494 0.115348 0.157368
H24   H     H_    0.231541 0.981318 0.546245 0.082582
H25   H     H_    0.029881 0.746745 0.269901 0.225279
H26   H     H_    0.601138 0.744894 0.711461 0.157638
H27   H     H_    0.552278 0.745690 0.826870 0.262513
H28   H     H_    0.577585 0.237607 0.242563 0.175385
H29   H     H_    0.526782 0.250161 0.346205 0.270035
H30   H     H_    0.843720 0.339663 0.884100 0.207462
H31   H     H_    0.805095 0.388604 0.893147 0.209303
H32   H     H_    0.864161 0.663851 0.396923 0.216801
H33   H     H_    0.814142 0.621630 0.378795 0.222333
H34   H     H_    0.330318 0.866064 0.877370 0.229924
H35   H     H_    0.982260 0.282157 0.463630 -0.100866
H36   H     H_    0.283174 0.895997 0.962638 0.178630
H37   H     H_    0.328151 0.138447 0.382059 0.222598
H38   H     H_    0.283133 0.100916 0.445329 0.160648
H39   H     H_    0.987644 0.174102 0.713251 0.157931
H40   H     H_    0.944351 0.203755 0.587477 0.167348
H41   H     H_    0.957009 0.832126 0.238384 0.172558
H42   H     H_    0.903406 0.806999 0.132761 0.184500
H43   H     H_    0.488863 0.665486 0.669270 0.176443
H44   H     H_    0.447250 0.698779 0.548461 0.163840
H45   H     H_    0.484968 0.335932 0.192132 0.184154
H46   H     H_    0.916533 0.737837 0.970255 -0.018508
H47   H     H_    0.440857 0.309517 0.060841 0.156552
H48   H     H_    0.923809 0.301920 0.933250 0.217556
H49   H     H_    0.849380 0.254311 0.927813 0.119597
H50   H     H_    0.875672 0.250006 0.126860 0.116342
H51   H     H_    0.891195 0.205511 0.991836 0.132136
H52   H     H_    0.976481 0.774464 0.457797 0.230516
H53   H     H_    0.938202 0.698784 0.537961 0.123892
H54   H     H_    0.937487 0.726910 0.720940 0.069728
H55   H     H_    0.896755 0.750517 0.556400 0.120144
H56   H     H_    0.425387 0.826372 0.948416 0.212790
H57   H     H_    0.487146 0.777412 0.442948 -0.087326
H58   H     H_    0.352250 0.783061 0.843450 0.132356
H59   H     H_    0.364683 0.752517 0.020074 0.104090
H60   H     H_    0.392355 0.731437 0.850757 0.128955
H61   H     H_    0.407999 0.265106 0.711553 0.156430
H62   H     H_    0.409089 0.253753 0.405618 0.151963
H63   H     H_    0.394051 0.195656 0.461607 0.157130
H64   H     H_    0.349025 0.243537 0.497245 0.085390
H65   H     H_    0.945695 0.221539 0.324757 0.198158
H66   H     H_    0.938101 0.142442 0.366886 0.106839
H67   H     H_    0.009657 0.146397 0.340557 0.128443
H68   H     H_    0.455006 0.233635 0.964338 -0.048902
H69   H     H_    0.959118 0.128897 0.184583 0.107269
H70   H     H_    0.044335 0.827704 0.441373 0.217687
H71   H     H_    0.034756 0.894035 0.604928 0.109954
H72   H     H_    0.064563 0.860973 0.766814 0.116358
H73   H     H_    0.996514 0.846719 0.674542 0.137470
H74   H     H_    0.422134 0.731240 0.273407 0.189585
H75   H     H_    0.397083 0.653580 0.297858 0.119735
H76   H     H_    0.470882 0.652215 0.312559 0.121505
H77   H     H_    0.429745 0.636699 0.135629 0.116081
H78   H     H_    0.438022 0.319449 0.521359 0.181854
H79   H     H_    0.037628 0.228594 0.238338 0.052083
H80   H     H_    0.475167 0.382362 0.410826 0.071964
H81   H     H_    0.543148 0.358890 0.454119 0.151460
H82   H     H_    0.506681 0.381945 0.605349 0.091045
H83   H     H_    0.040154 0.166143 0.078445 0.160626
H84   H     H_    0.978452 0.176860 0.979231 0.191315
H85   H     H_    0.142400 0.734272 0.566702 0.189358
H86   H     H_    0.111717 0.761962 0.411767 0.208741
H87   H     H_    0.516562 0.669503 0.023613 0.167575
H88   H     H_    0.453466 0.680471 0.938536 0.188643
H89   H     H_    0.586911 0.290569 0.744915 0.166441
H90   H     H_    0.100556 0.786923 0.731832 0.068193
H91   H     H_    0.579226 0.259156 0.580171 0.207674
H92   H     H_    0.199137 0.447391 0.394622 0.143880
H93   H     H_    0.159670 0.496258 0.387162 0.192647
H94   H     H_    0.202428 0.552713 0.911419 0.178908
H95   H     H_    0.175258 0.497590 0.903319 0.214155
H96   H     H_    0.734735 0.003413 0.442648 0.198313
H97   H     H_    0.714123 0.052311 0.330450 0.184948
H98   H     H_    0.671170 0.062096 0.883425 0.127741
H99   H     H_    0.617154 0.033360 0.788841 0.147742
H100  H     H_    0.193542 0.426030 0.068385 0.176205
H101  H     H_    0.516527 0.722588 0.204830 0.069855
H102  H     H_    0.134419 0.403734 0.226750 0.050922
H103  H     H_    0.094273 0.432142 0.064589 0.229582
H104  H     H_    0.102902 0.460106 0.238631 0.052033
H105  H     H_    0.116802 0.543155 0.551193 0.255597
H106  H     H_    0.119132 0.571008 0.851583 -0.022846
H107  H     H_    0.093785 0.515502 0.823830 0.127759
H108  H     H_    0.056842 0.558739 0.724669 0.127746
H109  H     H_    0.662980 0.951354 0.409179 0.174126
H110  H     H_    0.621486 0.908307 0.227097 0.020796
H111  H     H_    0.606837 0.952371 0.098069 0.179155
H112  H     H_    0.985216 0.713651 0.975626 -0.109835
H113  H     H_    0.498921 0.307414 0.746809 0.058757
H114  H     H_    0.567398 0.951593 0.254289 0.113074
H115  H     H_    0.720940 0.068182 0.559710 0.149436
H116  H     H_    0.669746 0.117375 0.710355 0.039548
H117  H     H_    0.610817 0.086605 0.609267 0.163073
H118  H     H_    0.657959 0.119659 0.508072 0.166630
H119  H     H_    0.842315 0.296111 0.426992 0.099485
H120  H     H_    0.833096 0.694967 0.939032 0.101555
H121  H     H_    0.360699 0.784432 0.407236 0.090668
H122  H     H_    0.346547 0.208449 0.924844 0.089918
H123  H     H_    0.180656 0.634783 0.207684 0.096817
H124  H     H_    0.178165 0.363277 0.694578 0.102545
H125  H     H_    0.676029 0.137753 0.192506 0.070135
H126  H     H_    0.679809 0.863541 0.693189 0.088368
H127  H     H_    0.140208 0.717110 0.807414 0.070032
H128  H     H_    0.541952 0.800961 0.575806 -0.021514
H129  H     H_    0.127008 0.275432 0.302147 0.098935
H130  H     H_    0.628247 0.222411 0.794107 0.084833
H131  H     H_    0.629788 0.776958 0.297074 0.103047
H132  H     H_    0.909766 0.424466 0.360285 0.055311
H133  H     H_    0.909010 0.573601 0.858851 0.067208
H134  H     H_    0.424906 0.919475 0.356846 0.044842
H135  H     H_    0.420650 0.078847 0.857827 0.056891
H136  H     H_    0.033600 0.604807 0.916529 0.031921
H137  H     H_    0.043399 0.406549 0.378555 0.061213
H138  H     H_    0.546541 0.090478 0.864644 0.059030
H139  H     H_    0.517628 0.201469 0.029403 -0.058639
H140  H     H_    0.536406 0.900099 0.399958 0.042225
H141  H     H_    0.970457 0.294385 0.191468 -0.407627
H142  H     H_    0.035603 0.732963 0.735874 -0.078844
H143  H     H_    0.468417 0.797745 0.181602 -0.269235
H144  H     H_    0.498604 0.225006 0.768175 -0.117905
H145  H     H_    0.276897 0.556151 0.192631 0.200517
H146  H     H_    0.301788 0.528200 0.357783 0.200492
H147  H     H_    0.272684 0.487653 0.579920 0.217505
H148  H     H_    0.296997 0.510863 0.748975 0.190718
H149  H     H_    0.793277 0.989502 0.160840 0.186601
H150  H     H_    0.817377 0.478048 0.225367 -0.008214
H151  H     H_    0.809103 0.961140 0.316335 0.174985
H152  H     H_    0.758642 0.952573 0.830592 0.202941
H153  H     H_    0.739467 0.991383 0.960756 0.237543
H154  H     H_    0.267823 0.412897 0.264174 0.172807
H155  H     H_    0.359289 0.407722 0.382178 0.107111
H156  H     H_    0.371255 0.467782 0.337084 0.129631
H157  H     H_    0.360935 0.424078 0.186407 0.099070
H158  H     H_    0.216953 0.613478 0.742378 0.193384
H159  H     H_    0.308274 0.641796 0.808541 0.110855
H160  H     H_    0.293591 0.638127 0.604850 0.108171
H161  H     H_    0.814462 0.523962 0.722730 -0.012794
H162  H     H_    0.334721 0.593311 0.710358 0.129846
H163  H     H_    0.716961 0.871067 0.268351 0.209094
H164  H     H_    0.752400 0.871286 0.524917 0.119423
H165  H     H_    0.767052 0.932505 0.520155 0.139668
H166  H     H_    0.807329 0.889981 0.426113 0.131894
H167  H     H_    0.757579 0.096377 0.795928 0.176600
H168  H     H_    0.854923 0.076690 0.855531 0.092610
H169  H     H_    0.836338 0.042927 0.014380 0.132346
H170  H     H_    0.825695 0.105174 0.008962 0.108284
H171  H     H_    0.274447 0.438465 0.003673 0.157467
H172  H     H_    0.333205 0.992420 0.236615 0.029066
H173  H     H_    0.316729 0.484226 0.014951 0.185150
H174  H     H_    0.190166 0.593491 0.477784 0.219562
H175  H     H_    0.252549 0.583770 0.438528 0.167777
H176  H     H_    0.675871 0.905293 0.049325 0.204613
H177  H     H_    0.741023 0.897445 0.025289 0.190771
H178  H     H_    0.804874 0.047532 0.616985 0.158834
H179  H     H_    0.830523 0.000109 0.707745 0.189311
H180  H     H_    0.780103 0.553640 0.249154 0.181926
H181  H     H_    0.779746 0.614024 0.068806 0.120321
H182  H     H_    0.739600 0.568786 0.969456 0.064700
H183  H     H_    0.344056 0.997304 0.733335 0.069281
H184  H     H_    0.810592 0.575735 0.941293 0.112782
H185  H     H_    0.813763 0.443835 0.722003 0.235225
H186  H     H_    0.762769 0.392548 0.549820 0.119778
H187  H     H_    0.808818 0.424349 0.444656 0.113058
H188  H     H_    0.737290 0.441206 0.434516 0.100916
H189  H     H_    0.291658 0.069555 0.225669 0.185737
H190  H     H_    0.305416 0.119539 0.018064 0.100760
H191  H     H_    0.251125 0.082477 0.959197 0.113409
H192  H     H_    0.318601 0.069098 0.905571 0.106445
H193  H     H_    0.376713 0.935318 0.585021 0.222106
H194  H     H_    0.730177 0.487983 0.944754 0.128402
H195  H     H_    0.311308 0.924439 0.360665 0.083130
H196  H     H_    0.258575 0.912999 0.480641 0.099610
H197  H     H_    0.313219 0.874223 0.483084 0.131525
H198  H     H_    0.665688 0.474086 0.133503 0.180683
H199  H     H_    0.691737 0.527666 0.133697 0.165413
H200  H     H_    0.664650 0.539356 0.619961 0.174197
H201  H     H_    0.687031 0.484357 0.623386 0.183537
H202  H     H_    0.168216 0.999222 0.053242 0.168444
H203  H     H_    0.211324 0.012129 0.931145 0.216736
H204  H     H_    0.202379 0.954699 0.762616 0.154923
N1    N     N_R   0.241166 0.713724 0.193980 -0.250714
N2    N     N_R   0.743278 0.704777 0.520545 -0.215813
N3    N     N_R   0.243009 0.795057 0.042428 -0.213338
N4    N     N_R   0.234305 0.200119 0.544620 -0.215516
N5    N     N_R   0.203970 0.763671 0.000231 -0.249917
N6    N     N_R   0.196640 0.232190 0.496147 -0.252565
N7    N     N_R   0.699343 0.265512 0.981496 -0.253114
N8    N     N_R   0.704872 0.736483 0.475085 -0.250431
N9    N     N_3   0.296687 0.526180 0.239448 -0.495747
N10   N     N_3   0.282870 0.519235 0.636091 -0.494698
N11   N     N_3   0.789790 0.956186 0.205873 -0.472424
N12   N     N_R   0.233603 0.283181 0.688102 -0.245969
N13   N     N_3   0.767432 0.984654 0.885911 -0.483633
N14   N     N_2   0.289584 0.443732 0.282537 -0.436845
N15   N     N_2   0.249444 0.591433 0.729501 -0.435633
N16   N     N_2   0.728056 0.903539 0.314087 -0.455580
N17   N     N_2   0.769872 0.066934 0.857905 -0.433378
N18   N     N_3   0.276780 0.474263 0.029758 -0.482286
N19   N     N_3   0.219188 0.566956 0.476741 -0.471074
N20   N     N_3   0.712809 0.922788 0.052040 -0.495932
N21   N     N_3   0.793619 0.015384 0.660498 -0.525499
N22   N     N_2   0.797785 0.546006 0.152206 -0.385769
N23   N     N_R   0.732147 0.217213 0.184369 -0.247261
N24   N     N_2   0.786534 0.458603 0.640094 -0.435054
N25   N     N_2   0.309185 0.055779 0.135836 -0.375999
N26   N     N_2   0.335434 0.937707 0.593889 -0.400724
N27   N     N_3   0.702048 0.492911 0.160906 -0.544268
N28   N     N_3   0.699409 0.518730 0.650774 -0.522827
N29   N     N_3   0.206553 0.014169 0.044740 -0.510738
N30   N     N_3   0.244995 0.955048 0.764141 -0.489045
N31   N     N_3   0.743603 0.425199 0.064418 -0.517009
N32   N     N_3   0.748420 0.583077 0.560984 -0.528897
N33   N     N_3   0.235852 0.983973 0.287045 -0.530101
N34   N     N_R   0.732235 0.781424 0.691869 -0.247624
N35   N     N_3   0.244807 0.036222 0.698276 -0.523708
N36   N     N_3   0.046115 0.214078 0.530567 -0.552753
N37   N     N_3   0.982423 0.808789 0.969599 -0.518871
N38   N     N_3   0.546317 0.704466 0.478151 -0.542226
N39   N     N_3   0.541192 0.292395 0.010618 -0.548107
N40   N     N_3   0.057037 0.244453 0.785398 -0.402945
N41   N     N_3   0.032467 0.772426 0.187545 -0.511235
N42   N     N_3   0.566555 0.727002 0.738802 -0.474802
N43   N     N_3   0.549089 0.263366 0.263890 -0.464125
N44   N     N_3   0.813885 0.355677 0.939894 -0.468257
N45   N     N_R   0.770288 0.249238 0.231895 -0.259362
N46   N     N_3   0.828187 0.652235 0.435238 -0.467248
N47   N     N_3   0.304660 0.864767 0.962417 -0.487084
N48   N     N_3   0.301046 0.133768 0.461792 -0.487322
N49   N     N_3   0.972776 0.207697 0.684616 -0.427726
N50   N     N_3   0.940816 0.799849 0.198366 -0.477248
N51   N     N_3   0.476740 0.700053 0.644112 -0.447375
N52   N     N_3   0.467459 0.303461 0.160499 -0.459157
N53   N     N_2   0.933261 0.269517 0.980256 -0.378373
N54   N     N_2   0.981336 0.762362 0.567566 -0.433847
N55   N     N_2   0.432082 0.790730 0.956094 -0.368412
N56   N     N_R   0.770739 0.749605 0.737452 -0.253950
N57   N     N_2   0.423359 0.239860 0.644281 -0.455649
N58   N     N_2   0.958860 0.200798 0.240915 -0.443895
N59   N     N_2   0.061734 0.826774 0.553336 -0.408494
N60   N     N_2   0.432585 0.709101 0.189174 -0.442414
N61   N     N_2   0.479413 0.316002 0.515494 -0.390314
N62   N     N_3   0.013791 0.192785 0.033528 -0.471795
N63   N     N_3   0.126336 0.766372 0.526590 -0.465290
N64   N     N_3   0.489516 0.696625 0.986796 -0.465391
N65   N     N_3   0.566312 0.288827 0.634826 -0.487477
N66   N     N_3   0.197057 0.482857 0.364368 -0.474396
N67   N     N_R   0.280470 0.745222 0.235840 -0.258909
N68   N     N_3   0.201894 0.519924 0.858699 -0.472537
N69   N     N_3   0.729077 0.018035 0.335896 -0.529486
N70   N     N_3   0.658483 0.030553 0.831384 -0.449777
N71   N     N_2   0.172244 0.452518 0.114629 -0.473695
N72   N     N_2   0.135515 0.548785 0.658031 -0.457391
N73   N     N_2   0.648869 0.970703 0.317259 -0.426129
N74   N     N_2   0.684793 0.055866 0.590517 -0.444325
N75   N     N_R   0.271478 0.251048 0.736238 -0.258652
N76   N     N_R   0.737350 0.297456 0.029086 -0.211911
O1    O     O_2   0.893910 0.433590 0.874460 -0.453529
O2    O     O_3   0.043765 0.704462 0.518806 -0.589380
O3    O     O_3   0.525653 0.791027 0.025964 -0.597013
O4    O     O_3   0.497134 0.206375 0.541156 -0.575584
O5    O     O_3   0.061740 0.523180 0.062830 -0.522529
O6    O     O_3   0.061740 0.476820 0.562830 -0.516575
O7    O     O_3   0.561740 0.023180 0.062830 -0.485702
O8    O     O_3   0.561740 0.976820 0.562830 -0.485181
O9    O     O_3   0.938210 0.476710 0.126870 -0.462512
O10   O     O_3   0.938210 0.523290 0.626870 -0.477495
O11   O     O_3   0.438210 0.976710 0.126870 -0.475874
O12   O     O_2   0.893910 0.566410 0.374460 -0.419227
O13   O     O_3   0.438210 0.023290 0.626870 -0.495781
O14   O     O_3   0.981570 0.392580 0.636990 -0.457056
O15   O     O_3   0.981570 0.607420 0.136990 -0.445738
O16   O     O_3   0.481570 0.892580 0.636990 -0.465018
O17   O     O_3   0.481570 0.107420 0.136990 -0.444891
O18   O     O_2   0.880450 0.368714 0.672299 -0.498098
O19   O     O_2   0.879717 0.628022 0.171880 -0.477970
O20   O     O_2   0.388820 0.853100 0.677090 -0.502440
O21   O     O_2   0.385071 0.136887 0.188017 -0.483802
O22   O     O_3   0.835571 0.490307 0.002553 -0.638206
O23   O     O_2   0.393910 0.933590 0.874460 -0.463136
O24   O     O_3   0.834749 0.510358 0.502226 -0.638790
O25   O     O_3   0.332794 0.988496 0.002906 -0.638318
O26   O     O_3   0.331303 0.013827 0.502945 -0.673156
O27   O     O_3   0.950450 0.299895 0.662575 -0.578762
O28   O     O_3   0.944329 0.700698 0.165224 -0.586211
O29   O     O_3   0.468051 0.794531 0.659666 -0.555624
O30   O     O_3   0.456855 0.202090 0.172705 -0.576672
O31   O     O_2   0.105800 0.433150 0.815270 -0.499253
O32   O     O_2   0.105800 0.566850 0.315270 -0.488280
O33   O     O_2   0.605800 0.933150 0.815270 -0.466616
O34   O     O_2   0.393910 0.066410 0.374460 -0.422897
O35   O     O_2   0.605800 0.066850 0.315270 -0.475170
O36   O     O_3   0.018000 0.392500 0.052760 -0.489965
O37   O     O_3   0.018000 0.607500 0.552760 -0.465843
O38   O     O_3   0.518000 0.892500 0.052760 -0.476732
O39   O     O_3   0.518000 0.107500 0.552760 -0.451692
O40   O     O_2   0.105672 0.344568 0.026052 -0.478177
O41   O     O_2   0.116040 0.640672 0.551818 -0.489790
O42   O     O_2   0.606386 0.845772 0.030647 -0.486779
O43   O     O_2   0.587859 0.171117 0.500815 -0.513592
O44   O     O_3   0.177936 0.475390 0.642850 -0.655628
O45   O     O_3   0.182417 0.533799 0.152830 -0.655385
O46   O     O_3   0.678999 0.974824 0.649285 -0.655900
O47   O     O_3   0.670360 0.014576 0.115767 -0.635686
O48   O     O_3   0.023841 0.290952 0.022711 -0.563558
P1    P     P_3+3 0.888690 0.449140 0.046940 0.995650
P2    P     P_3+3 0.063390 0.653351 0.622540 0.921520
P3    P     P_3+3 0.554867 0.841571 0.114648 0.933186
P4    P     P_3+3 0.544584 0.162972 0.611018 0.916002
P5    P     P_3+3 0.926406 0.645358 0.085972 0.983339
P6    P     P_3+3 0.927803 0.353720 0.583477 0.961977
P7    P     P_3+3 0.430692 0.149383 0.090623 0.979482
P8    P     P_3+3 0.437154 0.846234 0.582842 0.946189
P9    P     P_3+3 0.888690 0.550860 0.546940 0.997302
P10   P     P_3+3 0.388690 0.949140 0.046940 0.963723
P11   P     P_3+3 0.388690 0.050860 0.546940 0.957025
P12   P     P_3+3 0.111080 0.448680 0.642780 0.924679
P13   P     P_3+3 0.111080 0.551320 0.142780 0.935310
P14   P     P_3+3 0.611080 0.948680 0.642780 0.999455
P15   P     P_3+3 0.611080 0.051320 0.142780 0.989709
P16   P     P_3+3 0.054445 0.340922 0.112140 0.947554

loop_
_geom_bond_atom_site_label_1
_geom_bond_atom_site_label_2
_ccdc_geom_bond_type
C17   C22   A    
H3    N30   S    
O31   P12   D    
C84   N31   S    
C8    H102  S    
H171  N18   S    
C62   H136  S    
C105  H196  S    
H153  N13   S    
C46   C55   A    
H163  N16   S    
O2    P2    S    
C70   H113  S    
C103  H188  S    
H151  N11   S    
H198  N27   S    
C72   N68   S    
H84   N62   S    
C90   O28   S    
O18   P6    D    
O11   P10   S    
H25   N41   S    
C7    H80   S    
Ba2   O15   S    
O35   P15   D    
C15   C33   S    
C9    N72   S    
Ba3   O8    S    
H115  N74   S    
C72   O44   S    
C101  H169  S    
C47   P4    S    
C10   N73   S    
C87   C96   A    
Ba1   O36   S    
H52   N54   S    
C65   C94   A    
C27   C58   S    
C21   N41   S    
C42   P15   S    
C106  H49   S    
C107  N54   S    
C80   N22   S    
Ba1   O5    S    
C25   C95   A    
C1    N49   S    
C81   N24   S    
C7    H81   S    
C83   O26   S    
C94   H133  S    
C82   C86   S    
N34   N56   A    
C13   C17   A    
C12   C76   A    
C15   C19   A    
H47   N52   S    
C74   N74   S    
C27   N1    A    
C12   C16   A    
C70   N61   S    
C33   N2    A    
C82   N25   S    
C4    N58   S    
C28   N12   A    
C11   N74   S    
C35   N75   A    
H70   N59   S    
C102  H182  S    
C95   H134  S    
C35   N4    A    
C63   H137  S    
C18   C23   A    
C11   H118  S    
C99   N15   S    
C70   N65   S    
C107  H55   S    
C37   C59   S    
Ba2   O12   S    
C49   C67   S    
C38   C60   S    
C32   N42   S    
C23   C93   A    
C80   C84   S    
C99   H162  S    
C44   C66   D    
C103  H186  S    
H175  N19   S    
O7    P15   S    
C55   C59   D    
H201  N28   S    
C79   N13   S    
C56   C60   D    
C40   P13   S    
C69   N60   S    
C88   N30   S    
Ba1   O10   S    
C7    N61   S    
C73   N73   S    
C73   C78   S    
C85   N28   S    
H74   N60   S    
H152  N13   S    
C71   N71   S    
O25   P10   S    
Ba4   O17   S    
C96   H135  S    
C83   H183  S    
Ba3   P10   S    
C43   N43   S    
C57   C61   D    
O15   P5    S    
Ba1   P12   S    
O8    P14   S    
C65   P5    S    
C5    H72   S    
C46   P16   S    
C92   H139  S    
Ba4   O11   S    
C71   C75   S    
C88   N35   S    
N4    N6    A    
O33   P14   D    
C4    H69   S    
C57   H131  S    
O23   P10   D    
N3    N5    A    
C84   H194  S    
C2    H120  S    
C13   C87   A    
C24   P9    S    
C106  H50   S    
C13   H122  S    
C2    C15   A    
C106  N53   S    
C21   N50   S    
C12   H121  S    
C83   N26   S    
C68   N63   S    
C38   C42   A    
O34   P11   D    
C5    N59   S    
H37   N48   S    
H176  N20   S    
C71   O45   S    
C26   C96   A    
C1    N36   S    
C45   C53   A    
C29   N7    A    
C28   N6    A    
C34   N3    A    
C14   C98   A    
H20   N39   S    
C3    N57   S    
O39   P4    S    
H173  N18   S    
H180  N22   S    
C31   N76   A    
C6    H76   S    
C107  H53   S    
C84   N27   S    
C9    H106  S    
C14   C31   S    
C100  H164  S    
H97   N69   S    
H94   N68   S    
H31   N44   S    
H4    N31   S    
C90   H112  S    
C50   H142  S    
C51   N55   S    
C36   H123  S    
O3    P3    S    
C97   N14   S    
H14   N36   S    
O37   P2    S    
C6    H77   S    
O32   P13   D    
C10   H111  S    
C33   N56   A    
Ba2   O5    S    
O43   P4    D    
C97   H157  S    
O47   P15   S    
O41   P2    D    
N23   N45   A    
C45   C62   S    
O10   P9    S    
C99   H159  S    
Ba4   P11   S    
H189  N25   S    
C42   C64   D    
C8    N71   S    
O14   P6    S    
H100  N71   S    
C99   H160  S    
H95   N68   S    
C3    H64   S    
Ba4   O7    S    
C34   N67   A    
C19   C24   A    
H167  N17   S    
C78   N16   S    
C53   H127  S    
C54   C98   A    
O20   P8    D    
C97   H156  S    
C22   C26   A    
C52   H144  S    
C76   C95   A    
Ba1   O31   S    
H61   N57   S    
Ba3   Ba4   S    
C102  H181  S    
C66   H140  S    
C18   N44   S    
H28   N43   S    
C68   H90   S    
C64   H138  S    
C82   H172  S    
C14   C18   A    
H22   N40   S    
C100  H165  S    
C48   P3    S    
C105  H195  S    
C56   H130  S    
N2    N8    A    
C75   N14   S    
Ba2   P9    S    
O16   P8    S    
C103  H187  S    
C93   H132  S    
H154  N14   S    
C32   C91   S    
C81   H161  S    
H10   N35   S    
C9    H108  S    
Ba3   O13   S    
C51   C69   S    
C36   C40   A    
Ba3   O7    S    
C90   H46   S    
C30   N8    A    
C101  H168  S    
Ba3   O33   S    
C86   N29   S    
C47   C56   A    
C67   H79   S    
C19   N46   S    
O28   P5    S    
C25   P10   S    
H17   N38   S    
O30   P7    S    
C101  N17   S    
H98   N70   S    
C104  N25   S    
C69   N64   S    
C80   H150  S    
C32   N51   S    
Ba1   O14   S    
C20   N47   S    
C73   N69   S    
H33   N46   S    
C85   N32   S    
C29   N23   A    
C49   H141  S    
H89   N65   S    
C10   H114  S    
H27   N42   S    
C92   O30   S    
H200  N28   S    
C3    H62   S    
H99   N70   S    
H23   N41   S    
H9    N33   S    
C20   C25   A    
C50   N54   S    
C103  N24   S    
O19   P5    D    
C67   N58   S    
H11   N35   S    
C74   C79   S    
C108  H58   S    
H93   N66   S    
C30   N34   A    
O48   P16   S    
O46   P14   S    
O26   P11   S    
C41   C63   D    
C43   C92   S    
C7    H82   S    
C75   N9    S    
H178  N21   S    
Ba1   P1    S    
H92   N66   S    
H45   N52   S    
O44   P12   S    
C71   N66   S    
C21   C90   S    
C77   N15   S    
C83   C88   S    
C11   H117  S    
C69   H101  S    
C50   O2    S    
O5    P13   S    
C68   N59   S    
C73   O47   S    
H179  N21   S    
H7    N32   S    
H56   N55   S    
C52   C70   S    
C6    N60   S    
C81   C85   S    
N12   N75   A    
H96   N69   S    
C88   H24   S    
H185  N24   S    
H86   N63   S    
C108  N55   S    
O9    P1    S    
O4    P4    S    
C72   C77   S    
O21   P7    D    
C5    H71   S    
Ba4   O35   S    
H48   N53   S    
C67   N62   S    
C39   C61   S    
H36   N47   S    
C101  H170  S    
N1    N67   A    
C89   H1    S    
H174  N19   S    
C98   H119  S    
H39   N49   S    
C89   O27   S    
O22   P1    S    
H87   N64   S    
C51   O3    S    
C23   P1    S    
C24   C94   A    
C85   H2    S    
Ba1   O6    S    
H193  N26   S    
Ba4   P15   S    
C45   P2    S    
H91   N65   S    
C102  H184  S    
C54   P6    S    
C106  H51   S    
H177  N20   S    
C81   O24   S    
H204  N30   S    
C11   H116  S    
C41   P12   S    
C78   N20   S    
N7    N76   A    
C37   C41   A    
C79   N21   S    
Ba3   O23   S    
C76   P8    S    
C4    H67   S    
C108  H60   S    
C86   H13   S    
O27   P6    S    
H109  N73   S    
C91   H128  S    
H199  N27   S    
H202  N29   S    
H145  N9    S    
O17   P7    S    
C108  H59   S    
C104  H191  S    
O12   P9    D    
C22   N48   S    
C80   O22   S    
C8    H103  S    
C87   P7    S    
H40   N49   S    
H12   N36   S    
O24   P9    S    
C74   O46   S    
C31   N45   A    
H19   N39   S    
C75   N18   S    
Ba3   O38   S    
C40   C62   D    
C26   P11   S    
C1    N40   S    
O45   P13   S    
C43   N52   S    
H148  N10   S    
C36   C58   S    
C53   C58   D    
C82   O25   S    
H38   N48   S    
C21   N37   S    
H5    N31   S    
C5    H73   S    
Ba2   O6    S    
Ba2   O32   S    
O29   P8    S    
Ba1   O1    S    
H18   N38   S    
C86   N33   S    
Ba1   Ba2   S    
H203  N29   S    
C27   N5    A    
O6    P12   S    
H78   N61   S    
C16   C20   A    
C49   N53   S    
C3    H63   S    
Ba4   O8    S    
O36   P16   S    
H146  N9    S    
C39   C44   A    
C2    C65   A    
C97   H155  S    
C72   N72   S    
C54   C93   A    
O40   P16   D    
C100  N16   S    
C30   C61   S    
C38   H125  S    
O1    P1    D    
H85   N63   S    
H43   N51   S    
C102  N22   S    
H147  N10   S    
C100  H166  S    
H34   N47   S    
C32   N38   S    
H44   N51   S    
C51   H143  S    
C92   H68   S    
C39   H126  S    
O38   P3    S    
H29   N43   S    
Ba2   P13   S    
C16   C34   S    
C52   N57   S    
H42   N50   S    
C17   C35   S    
H32   N46   S    
C77   N19   S    
C6    H75   S    
C78   N11   S    
C79   N17   S    
C107  H54   S    
C9    H107  S    
Ba2   O9    S    
C91   H57   S    
Ba3   O16   S    
Ba4   O34   S    
O42   P3    D    
Ba2   O37   S    
C104  H192  S    
H26   N42   S    
Ba3   P14   S    
C43   N39   S    
C74   N70   S    
C105  N26   S    
C46   C63   S    
C77   N10   S    
H15   N37   S    
C10   H110  S    
C28   C59   S    
Ba4   O39   S    
C48   C57   A    
C1    C89   S    
H8    N33   S    
C37   H124  S    
H88   N64   S    
H30   N44   S    
H65   N58   S    
H21   N40   S    
C55   H129  S    
H158  N15   S    
H149  N11   S    
O13   P11   S    
H105  N72   S    
H41   N50   S    
C29   C60   S    
C52   O4    S    
C91   O29   S    
C89   H35   S    
C47   C64   S    
H6    N32   S    
C48   C66   S    
H83   N62   S    
C4    H66   S    
C50   C68   S    
C49   O48   S    
C105  H197  S    
C8    H104  S    
C44   P14   S    
H16   N37   S    
C104  H190  S    
