data_mof_unit_38194.cif
_audit_creation_date              2012-12-10T20:31:55-0500
_audit_creation_method            fapswitch 2.2
_symmetry_space_group_name_H-M    P1
_symmetry_Int_Tables_number       1
_space_group_crystal_system       triclinic
_cell_length_a                    9.941946
_cell_length_b                    10.68617
_cell_length_c                    15.465629
_cell_angle_alpha                 91.171853
_cell_angle_beta                  67.625604
_cell_angle_gamma                 90.984624
_cell_volume                      1518.99470777

loop_
_atom_site_label
_atom_site_type_symbol
_atom_type_description
_atom_site_fract_x
_atom_site_fract_y
_atom_site_fract_z
_atom_type_partial_charge
C1    C     C_R   0.504784 0.739322 0.494569 0.882866
C2    C     C_R   0.395200 0.436599 0.919382 0.099247
C3    C     C_R   0.252110 0.473571 0.974791 0.162274
C4    C     C_R   0.491974 0.405984 0.962851 0.057702
C5    C     C_R   0.457338 0.443227 0.056902 0.066045
C6    C     C_R   0.313455 0.480929 0.111108 -0.233451
C7    C     C_R   0.210908 0.491107 0.070902 -0.238805
C8    C     C_R   0.619792 0.336934 0.916349 -0.222542
C9    C     C_R   0.720011 0.318557 0.957851 -0.212409
C10   C     C_R   0.696803 0.371745 0.045478 0.166750
C11   C     C_R   0.566430 0.437308 0.094346 0.092824
C12   C     C_R   0.407390 0.492615 0.676504 0.856276
C13   C     C_R   0.800107 0.358223 0.086268 -0.227810
C14   C     C_R   0.773052 0.407173 0.175801 -0.209419
C15   C     C_R   0.548916 0.495664 0.179334 -0.256773
C16   C     C_R   0.459903 0.934999 0.428610 0.089895
C17   C     C_R   0.519781 0.870988 0.483057 -0.079504
C18   C     C_R   0.596029 0.937608 0.529317 -0.234200
C19   C     C_R   0.590510 0.066654 0.533588 -0.248240
C20   C     C_R   0.501849 0.128114 0.496781 -0.115392
C21   C     C_R   0.437082 0.060745 0.444850 0.089870
C22   C     C_3   0.284740 0.051727 0.446674 -0.194890
C23   C     C_R   0.498512 0.260338 0.500802 0.871031
C24   C     C_3   0.321406 0.916623 0.413345 -0.532470
C25   C     C_R   0.924723 0.609055 0.510818 0.225279
C26   C     C_R   0.938908 0.394378 0.479042 -0.161122
C27   C     C_R   0.082651 0.394657 0.478384 -0.136716
C28   C     C_R   0.066455 0.609199 0.511114 0.205706
C29   C     C_3   0.023068 0.696772 0.593417 -0.493328
C30   C     C_3   0.871534 0.698019 0.591619 -0.501788
C31   C     C_R   0.591281 0.497728 0.323937 0.860701
C32   C     C_R   0.345025 0.472542 0.779267 -0.123198
C33   C     C_R   0.645056 0.473828 0.223186 -0.057566
C34   C     C_R   0.151436 0.490627 0.933403 -0.267151
C35   C     C_R   0.194312 0.482079 0.836132 0.006495
C36   C     C_R   0.440759 0.441433 0.822048 -0.300333
H1    H     H_    0.100706 0.517515 0.114522 0.150857
H2    H     H_    0.898887 0.306044 0.050423 0.143297
H3    H     H_    0.649346 0.890421 0.568347 0.154775
H4    H     H_    0.645574 0.118168 0.571492 0.157290
H5    H     H_    0.268387 0.111808 0.393717 0.143304
H6    H     H_    0.249358 0.844246 0.457140 0.221107
H7    H     H_    0.342582 0.902927 0.337816 0.187691
H8    H     H_    0.893234 0.308050 0.464021 0.155619
H9    H     H_    0.143569 0.308852 0.462870 0.147403
H10   H     H_    0.032065 0.653708 0.655029 0.236534
H11   H     H_    0.457231 0.555570 0.214745 0.149277
H12   H     H_    0.075294 0.789837 0.579254 0.215347
H13   H     H_    0.785179 0.657639 0.654030 0.211720
H14   H     H_    0.845040 0.789814 0.570517 0.201058
H15   H     H_    0.848176 0.388156 0.209349 0.156114
H16   H     H_    0.817267 0.265201 0.920354 0.152363
H17   H     H_    0.038493 0.507036 0.977246 0.150799
H18   H     H_    0.552678 0.426001 0.778893 0.155850
H19   H     H_    0.275515 0.497234 0.185671 0.151249
H20   H     H_    0.641480 0.293468 0.848715 0.150627
N1    N     N_R   0.856900 0.500860 0.500610 -0.108343
N2    N     N_R   0.142540 0.500820 0.500610 -0.097333
O1    O     O_R   0.385310 0.683210 0.499990 -0.619459
O2    O     O_R   0.614650 0.683240 0.500000 -0.615431
O3    O     O_R   0.319830 0.499970 0.632240 -0.598784
O4    O     O_R   0.549170 0.500000 0.632250 -0.617515
O5    O     O_R   0.385350 0.316760 0.500000 -0.624475
O6    O     O_R   0.614690 0.316790 0.500010 -0.625269
O7    O     O_R   0.450830 0.500000 0.367750 -0.612547
O8    O     O_R   0.680170 0.500030 0.367760 -0.611550
Zn1   Zn    Zn3+2 0.346870 0.499980 0.499990 0.942929
Zn2   Zn    Zn3+2 0.653130 0.500020 0.500010 0.930795
C37   C     C_R   0.160203 0.053509 0.542767 0.186852
C38   C     C_R   0.181669 0.036499 0.627120 -0.151588
C39   C     C_R   0.063415 0.023558 0.711974 -0.181576
C40   C     C_R   0.922104 0.024286 0.714234 -0.107297
C41   C     C_R   0.898901 0.038755 0.631642 -0.171331
C42   C     C_R   0.016662 0.054055 0.546459 -0.212786
H21   H     H_    0.288431 0.028548 0.628676 0.145766
H22   H     H_    0.081622 0.010623 0.775886 0.133386
H23   H     H_    0.830565 0.012759 0.779857 0.127126
H24   H     H_    0.789280 0.036494 0.634138 0.125775
H25   H     H_    0.996023 0.062767 0.482964 0.133538
C43   C     C_R   0.078274 0.468428 0.798793 0.127446
C44   C     C_R   0.959889 0.550709 0.826931 -0.175414
C45   C     C_R   0.850235 0.534555 0.791849 -0.141334
C46   C     C_R   0.860788 0.438622 0.726747 -0.152886
C47   C     C_R   0.973158 0.352829 0.703040 -0.122655
C48   C     C_R   0.079474 0.365368 0.740636 -0.087222
H26   H     H_    0.953683 0.628193 0.874473 0.131150
H27   H     H_    0.760237 0.598960 0.812411 0.140837
H28   H     H_    0.782957 0.430247 0.693875 0.146750
H29   H     H_    0.979295 0.278041 0.654041 0.161947
H30   H     H_    0.165722 0.297191 0.721854 0.122359

loop_
_geom_bond_atom_site_label_1
_geom_bond_atom_site_label_2
_ccdc_geom_bond_type
C31   O8    A    
O8    Zn2   S    
C16   C21   A    
C24   H6    S    
C41   C42   A    
C19   C20   A    
C15   H11   S    
C6    H19   S    
C4    C8    A    
C8    H20   S    
C14   C33   A    
C44   C45   A    
C26   H8    S    
C25   C28   A    
C26   C27   A    
C29   C30   S    
C32   C36   A    
C28   C29   S    
C5    C11   A    
C3    C7    A    
C1    O1    A    
C39   H22   S    
C22   H5    S    
C16   C17   A    
C45   H27   S    
C35   C43   S    
C18   C19   A    
C34   C35   A    
C40   H23   S    
O1    Zn1   S    
C11   C15   A    
C46   C47   A    
C8    C9    A    
O7    Zn1   S    
C41   H24   S    
C31   C33   S    
C38   C39   A    
C9    C10   A    
C22   C37   S    
C44   H26   S    
C27   H9    S    
C23   O5    A    
C46   H28   S    
C30   H14   S    
C16   C24   S    
C21   C22   S    
C12   C32   S    
C9    H16   S    
C25   N1    A    
O5    Zn1   S    
C29   H12   S    
C32   C35   A    
C47   C48   A    
C10   C11   A    
C1    O2    A    
C40   C41   A    
C3    C34   A    
C10   C13   A    
C2    C4    A    
C18   H3    S    
C43   C48   A    
C12   O4    A    
O3    Zn1   S    
C14   H15   S    
C20   C23   S    
C17   C18   A    
C7    H1    S    
C37   C42   A    
C13   H2    S    
C23   O6    A    
C30   H13   S    
C42   H25   S    
C22   C24   S    
C47   H29   S    
N1    Zn2   S    
O6    Zn2   S    
C2    C36   A    
C25   C30   S    
C31   O7    A    
C43   C44   A    
C27   N2    A    
C48   H30   S    
C6    C7    A    
C28   N2    A    
C1    C17   S    
O4    Zn2   S    
C29   H10   S    
C2    C3    A    
C39   C40   A    
C12   O3    A    
C5    C6    A    
C37   C38   A    
C26   N1    A    
C36   H18   S    
C19   H4    S    
N2    Zn1   S    
C4    C5    A    
C20   C21   A    
O2    Zn2   S    
C34   H17   S    
C45   C46   A    
C38   H21   S    
C24   H7    S    
C13   C14   A    
C15   C33   A    
