data_mof_unit_33359.cif
_audit_creation_date              2012-12-10T18:44:25-0500
_audit_creation_method            fapswitch 2.2
_symmetry_space_group_name_H-M    P1
_symmetry_Int_Tables_number       1
_space_group_crystal_system       triclinic
_cell_length_a                    13.188557
_cell_length_b                    10.74402
_cell_length_c                    10.070768
_cell_angle_alpha                 90.987649
_cell_angle_beta                  96.596593
_cell_angle_gamma                 90.64672
_cell_volume                      1417.22446779

loop_
_atom_site_label
_atom_site_type_symbol
_atom_type_description
_atom_site_fract_x
_atom_site_fract_y
_atom_site_fract_z
_atom_type_partial_charge
C1    C     C_R   0.501088 0.260765 0.499133 0.898645
C2    C     C_R   0.496904 0.739062 0.500577 0.946266
C3    C     C_R   0.494198 0.871865 0.500865 -0.097898
C4    C     C_R   0.501424 0.127667 0.497850 -0.103062
C5    C     C_R   0.549150 0.593127 0.079774 0.109682
C6    C     C_R   0.450339 0.406478 0.920462 0.115137
C7    C     C_R   0.541739 0.596639 0.936655 0.008995
C8    C     C_R   0.455666 0.404372 0.064176 0.009851
C9    C     C_R   0.299002 0.508615 0.474699 0.907635
C10   C     C_R   0.701045 0.499860 0.524136 0.964712
C11   C     C_R   0.812682 0.509107 0.532166 -0.202081
C12   C     C_R   0.186763 0.522090 0.460328 -0.193350
C13   C     C_R   0.025526 0.494638 0.318494 -0.095740
C14   C     C_R   0.969287 0.548326 0.668644 -0.067881
C15   C     C_R   0.131123 0.516548 0.331490 -0.104993
C16   C     C_R   0.866127 0.572071 0.641447 -0.170324
C17   C     C_R   0.133293 0.539923 0.574117 -0.104284
C18   C     C_R   0.867920 0.464283 0.427770 -0.117140
C19   C     C_R   0.026276 0.525058 0.560181 0.025338
C20   C     C_R   0.973242 0.492969 0.434055 0.004664
C21   C     C_R   0.563674 0.059333 0.420056 0.000614
C22   C     C_R   0.432673 0.940216 0.580310 -0.040434
C23   C     C_R   0.558361 0.931470 0.421197 -0.220563
C24   C     C_R   0.436842 0.068286 0.576685 -0.254678
H1    H     H_    0.609311 0.877916 0.366893 0.167456
H2    H     H_    0.387521 0.122550 0.632313 0.165224
N1    N     N_R   0.499970 0.499970 0.857200 -0.145495
N2    N     N_R   0.500030 0.500030 0.142800 -0.143530
O1    O     O_R   0.499990 0.316750 0.614620 -0.660935
O2    O     O_R   0.500010 0.683250 0.385380 -0.653003
O3    O     O_R   0.499990 0.316780 0.385290 -0.596460
O4    O     O_R   0.500010 0.683220 0.614710 -0.586441
O5    O     O_R   0.346360 0.499970 0.595710 -0.611706
O6    O     O_R   0.653640 0.500030 0.404290 -0.603512
O7    O     O_R   0.346360 0.499990 0.366380 -0.571581
O8    O     O_R   0.653640 0.500010 0.633620 -0.582132
Zn1   Zn    Zn3+2 0.500000 0.499980 0.653120 1.022091
Zn2   Zn    Zn3+2 0.500000 0.500020 0.346880 1.024083
C25   C     C_2   0.823357 0.376236 0.321498 1.028781
O9    O     O_2   0.861330 0.273313 0.314088 -0.565666
O10   O     O_R   0.748317 0.413923 0.221292 -0.791628
H3    H     H_    0.728146 0.346136 0.151745 0.338287
C26   C     C_2   0.182321 0.599887 0.700249 1.024873
O11   O     O_2   0.239190 0.541719 0.780154 -0.619667
O12   O     O_R   0.149592 0.717875 0.736104 -0.752266
H4    H     H_    0.175003 0.741723 0.832026 0.351007
C27   C     C_2   0.827758 0.691361 0.690766 1.051894
O13   O     O_2   0.859168 0.732633 0.801984 -0.541684
O14   O     O_R   0.760406 0.761443 0.605138 -0.826322
H5    H     H_    0.743529 0.844380 0.646276 0.355845
C28   C     C_2   0.180296 0.548095 0.210192 1.046063
O15   O     O_2   0.175256 0.475186 0.115291 -0.613379
O16   O     O_R   0.232217 0.661876 0.205471 -0.765833
H6    H     H_    0.263107 0.672425 0.118593 0.349297
C29   C     C_2   0.969383 0.493476 0.182662 0.947395
O17   O     O_2   0.938265 0.590939 0.134272 -0.593873
O18   O     O_R   0.954289 0.381740 0.109755 -0.751513
H7    H     H_    0.907857 0.391660 0.023246 0.353031
C30   C     C_2   0.006672 0.510385 0.805070 0.944521
O19   O     O_2   0.014655 0.585930 0.897619 -0.520218
O20   O     O_R   0.035351 0.387174 0.825659 -0.815124
H8    H     H_    0.064775 0.371282 0.920846 0.392566
C31   C     C_2   0.643188 0.117397 0.350887 0.971237
O21   O     O_2   0.692366 0.204228 0.405378 -0.639245
O22   O     O_R   0.665063 0.069884 0.227354 -0.774988
H9    H     H_    0.722881 0.116349 0.191146 0.366123
C32   C     C_2   0.361070 0.883128 0.663823 0.964237
O23   O     O_2   0.315001 0.787903 0.625663 -0.619352
O24   O     O_R   0.344571 0.940683 0.784975 -0.782363
H10   H     H_    0.295421 0.892865 0.835568 0.360552
C33   C     C_3   0.613154 0.692737 0.162115 -0.415448
C34   C     C_3   0.721141 0.717363 0.122533 -0.333206
C35   C     C_3   0.793681 0.771304 0.239640 -0.687203
H11   H     H_    0.761933 0.856870 0.280533 0.262302
H12   H     H_    0.807137 0.702286 0.320206 0.261945
H13   H     H_    0.867869 0.797095 0.205070 0.295609
H14   H     H_    0.752466 0.629681 0.085519 0.289906
H15   H     H_    0.718809 0.787273 0.042757 0.263940
H16   H     H_    0.570100 0.780988 0.159730 0.241158
H17   H     H_    0.627198 0.662112 0.264173 0.286120
C36   C     C_3   0.389084 0.304432 0.837733 -0.384228
C37   C     C_3   0.283540 0.268691 0.880071 -0.347156
C38   C     C_3   0.208638 0.220167 0.762655 -0.734551
H18   H     H_    0.191879 0.293679 0.687460 0.273390
H19   H     H_    0.239243 0.137972 0.714135 0.260735
H20   H     H_    0.136443 0.189884 0.799664 0.292591
H21   H     H_    0.291590 0.192359 0.953068 0.256926
H22   H     H_    0.249645 0.349961 0.926702 0.302165
H23   H     H_    0.371621 0.337319 0.736647 0.282517
H24   H     H_    0.436703 0.219956 0.836635 0.225468
C39   C     C_2   0.575693 0.708662 0.873892 0.928227
O25   O     O_2   0.646650 0.702562 0.807319 -0.611941
O26   O     O_R   0.531740 0.823265 0.898315 -0.781032
H25   H     H_    0.564550 0.894374 0.853089 0.353813
C40   C     C_2   0.420056 0.293558 0.129681 0.938927
O27   O     O_2   0.464166 0.194920 0.119788 -0.612098
O28   O     O_R   0.333819 0.299659 0.197922 -0.763997
H26   H     H_    0.316151 0.216780 0.236710 0.339363

loop_
_geom_bond_atom_site_label_1
_geom_bond_atom_site_label_2
_ccdc_geom_bond_type
C29   O17   D    
C31   O22   S    
C11   C18   A    
O26   H25   S    
C35   H11   S    
C3    C23   A    
C40   O27   D    
C18   C25   S    
C33   H16   S    
O28   H26   S    
C25   O10   S    
O16   H6    S    
C14   C30   S    
O8    Zn1   S    
C24   H2    S    
C4    C24   A    
C37   H21   S    
C1    O3    A    
C7    N1    A    
O2    Zn2   S    
C2    O4    A    
O10   H3    S    
C34   H15   S    
C38   H18   S    
C12   C17   A    
C15   C28   S    
C18   C20   A    
C36   H23   S    
C30   O19   D    
C6    C36   S    
C9    O5    A    
C35   H12   S    
O24   H10   S    
C8    C40   S    
C16   C27   S    
C33   H17   S    
C36   C37   S    
C30   O20   S    
C28   O15   D    
C27   O13   D    
O7    Zn2   S    
C27   O14   S    
C25   O9    D    
C5    C7    A    
C6    C8    A    
O12   H4    S    
O5    Zn1   S    
C32   O23   D    
C32   O24   S    
C26   O11   D    
C17   C26   S    
C34   H14   S    
C39   O26   S    
C5    N2    A    
C11   C16   A    
C6    N1    A    
C12   C15   A    
N2    Zn2   S    
C7    C39   S    
C1    O1    A    
C10   O6    A    
O4    Zn1   S    
C26   O12   S    
C36   H24   S    
C38   H19   S    
C37   C38   S    
C29   O18   S    
C13   C15   A    
C8    N2    A    
C35   H13   S    
C14   C16   A    
O22   H9    S    
C39   O25   D    
C13   C20   A    
O6    Zn2   S    
C14   C19   A    
C34   C35   S    
C40   O28   S    
O3    Zn2   S    
C2    O2    A    
C1    C4    S    
C19   C20   A    
C21   C23   A    
C2    C3    S    
C33   C34   S    
C5    C33   S    
C4    C21   A    
O18   H7    S    
N1    Zn1   S    
C37   H22   S    
C17   C19   A    
C22   C24   A    
C23   H1    S    
O20   H8    S    
C9    C12   S    
C22   C32   S    
C21   C31   S    
C10   C11   S    
C31   O21   D    
C38   H20   S    
O14   H5    S    
O1    Zn1   S    
C9    O7    A    
C3    C22   A    
C10   O8    A    
C28   O16   S    
C13   C29   S    
