data_mof_unit_25607.cif
_audit_creation_date              2012-12-10T16:41:50-0500
_audit_creation_method            fapswitch 2.2
_symmetry_space_group_name_H-M    P1
_symmetry_Int_Tables_number       1
_space_group_crystal_system       triclinic
_cell_length_a                    10.878263
_cell_length_b                    8.74588
_cell_length_c                    7.533979
_cell_angle_alpha                 102.793008
_cell_angle_beta                  95.195065
_cell_angle_gamma                 93.92792
_cell_volume                      693.218466271

loop_
_atom_site_label
_atom_site_type_symbol
_atom_type_description
_atom_site_fract_x
_atom_site_fract_y
_atom_site_fract_z
_atom_type_partial_charge
C1    C     C_R   0.496130 0.200683 0.454641 0.906780
C2    C     C_2   0.533868 0.965658 0.563215 0.211019
C3    C     C_R   0.265726 0.502417 0.500863 0.862050
C4    C     C_R   0.508507 0.799451 0.545365 0.750406
C5    C     C_R   0.734233 0.498391 0.499296 0.867028
C6    C     C_2   0.922953 0.491082 0.350514 -0.145547
C7    C     C_2   0.865904 0.489013 0.499971 -0.227451
C8    C     C_2   0.056630 0.482765 0.350365 -0.138074
C9    C     C_2   0.134195 0.512364 0.505123 -0.259770
C10   C     C_2   0.477866 0.034355 0.436218 -0.342985
Cu1   Cu    Cu3+1 0.513740 0.517380 0.684380 1.118057
Cu2   Cu    Cu3+1 0.486260 0.482620 0.315620 1.105229
H1    H     H_    0.870475 0.496066 0.222471 0.185764
H2    H     H_    0.914634 0.476767 0.627125 0.170653
H3    H     H_    0.091460 0.453665 0.217700 0.217437
H4    H     H_    0.103136 0.548849 0.639187 0.182455
H5    H     H_    0.610383 0.604189 0.045264 0.178700
N1    N     N_2   0.465540 0.456420 0.038510 0.114647
N2    N     N_2   0.534460 0.543580 0.961490 -0.178780
O1    O     O_R   0.508930 0.286130 0.619780 -0.490353
O2    O     O_R   0.485720 0.256780 0.308360 -0.537053
O3    O     O_R   0.333540 0.514670 0.655670 -0.514520
O4    O     O_R   0.310330 0.485320 0.344250 -0.539497
O5    O     O_R   0.514280 0.743220 0.691640 -0.568770
O6    O     O_R   0.491070 0.713870 0.380220 -0.629912
O7    O     O_R   0.689670 0.514680 0.655750 -0.568696
O8    O     O_R   0.666460 0.485330 0.344330 -0.615587
C11   C     C_1   0.382555 0.952149 0.291938 0.314173
N3    N     N_1   0.306822 0.887060 0.177075 -0.195353
S1    S     S_3+6 0.657741 0.059908 0.732787 0.037039
O9    O     O_2   0.605418 0.151663 0.897788 -0.261957
O10   O     O_2   0.740071 0.170210 0.658408 -0.283359
O11   O     O_3   0.744598 0.924850 0.796251 -0.522449
H6    H     H_    0.715748 0.909324 0.912551 0.360484
S2    S     S_3+6 0.320508 0.360916 0.944256 0.178195
O12   O     O_2   0.228285 0.481323 0.944246 -0.318530
O13   O     O_2   0.317503 0.257771 0.756537 -0.281614
O14   O     O_3   0.274168 0.240478 0.075858 -0.495814
H7    H     H_    0.187082 0.202718 0.027162 0.355953

loop_
_geom_bond_atom_site_label_1
_geom_bond_atom_site_label_2
_ccdc_geom_bond_type
C2    C4    S    
Cu1   Cu2   S    
C1    O2    A    
C6    C7    D    
C3    C9    S    
N1    S2    S    
Cu1   O3    S    
C3    O4    A    
S2    O12   D    
S1    O11   S    
Cu2   O6    S    
C2    S1    S    
O11   H6    S    
C6    H1    S    
S1    O10   D    
Cu2   O4    S    
Cu1   N2    S    
O14   H7    S    
C11   N3    T    
S2    O13   D    
C9    H4    S    
C4    O6    A    
C8    H3    S    
S1    O9    D    
C4    O5    A    
Cu1   O1    S    
Cu2   O8    S    
C10   C11   S    
C5    O7    A    
C2    C10   D    
Cu1   O5    S    
S2    O14   S    
N1    N2    D    
Cu2   N1    S    
C5    C7    S    
C3    O3    A    
C6    C8    S    
Cu1   O7    S    
H5    N2    S    
C5    O8    A    
Cu2   O2    S    
C7    H2    S    
C1    C10   S    
C8    C9    D    
C1    O1    A    
