data_mof_unit_62243.cif
_audit_creation_date              2012-12-10T21:36:28-0500
_audit_creation_method            fapswitch 2.2
_symmetry_space_group_name_H-M    P1
_symmetry_Int_Tables_number       1
_space_group_crystal_system       triclinic
_cell_length_a                    10.516952
_cell_length_b                    16.121027
_cell_length_c                    16.827482
_cell_angle_alpha                 87.071442
_cell_angle_beta                  90.290062
_cell_angle_gamma                 92.812027
_cell_volume                      2845.83350207

loop_
_atom_site_label
_atom_site_type_symbol
_atom_type_description
_atom_site_fract_x
_atom_site_fract_y
_atom_site_fract_z
_atom_type_partial_charge
C1    C     C_R   0.497229 0.488347 0.652973 0.975932
C2    C     C_R   0.502742 0.511651 0.347026 0.975880
C3    C     C_R   0.470100 0.469801 0.903754 0.100417
C4    C     C_R   0.528789 0.530072 0.096196 0.100411
C5    C     C_R   0.508174 0.401580 0.863770 -0.293381
C6    C     C_R   0.491067 0.598353 0.136226 -0.293437
C7    C     C_R   0.516621 0.406385 0.781346 0.620011
C8    C     C_R   0.483025 0.593603 0.218667 0.620000
C9    C     C_R   0.436545 0.762865 0.462665 -0.074242
C10   C     C_R   0.563450 0.237134 0.537338 -0.074300
C11   C     C_R   0.440155 0.850056 0.464712 -0.242391
C12   C     C_R   0.559840 0.149944 0.535291 -0.242398
C13   C     C_R   0.526520 0.891003 0.515976 0.247867
C14   C     C_R   0.473480 0.108997 0.484024 0.247870
C15   C     C_R   0.606448 0.841848 0.563513 -0.348906
C16   C     C_R   0.393556 0.158152 0.436484 -0.348891
C17   C     C_R   0.599763 0.754920 0.559641 0.757414
C18   C     C_R   0.400242 0.245080 0.440356 0.757401
C19   C     C_R   0.742795 0.500207 0.500270 0.956395
C20   C     C_R   0.257205 0.499793 0.499731 0.956313
C21   C     C_3   0.954992 0.452733 0.563393 -0.327422
C22   C     C_3   0.045008 0.547267 0.436609 -0.327440
C23   C     C_3   0.045050 0.530552 0.566614 0.733993
C24   C     C_3   0.954951 0.469448 0.433388 0.733995
C25   C     C_3   0.122480 0.499143 0.499290 -0.195771
C26   C     C_3   0.877520 0.500857 0.500712 -0.195789
C27   C     C_3   0.034309 0.420700 0.494966 -0.253056
C28   C     C_3   0.965692 0.579300 0.505035 -0.253025
C29   C     C_R   0.485246 0.479930 0.738840 -0.273874
C30   C     C_R   0.514452 0.520051 0.261143 -0.273873
C31   C     C_R   0.439307 0.546301 0.778898 -0.309039
C32   C     C_R   0.560032 0.453611 0.221023 -0.308974
C33   C     C_R   0.430447 0.541253 0.860915 0.666191
C34   C     C_R   0.568491 0.458603 0.138990 0.666121
H1    H     H_    0.623888 0.115420 0.573434 0.188112
H2    H     H_    0.376103 0.884579 0.426572 0.188113
N1    N     N_2   0.478635 0.466403 0.987037 -0.058484
N2    N     N_2   0.520095 0.533487 0.012917 -0.058670
N3    N     N_R   0.515540 0.716920 0.509720 -0.151975
N4    N     N_R   0.484460 0.283080 0.490280 -0.151970
N5    N     N_2   0.536874 0.979760 0.521969 -0.141129
N6    N     N_2   0.463126 0.020240 0.478030 -0.141128
O1    O     O_R   0.494440 0.422540 0.612660 -0.583975
O2    O     O_R   0.505560 0.577460 0.387340 -0.583900
O3    O     O_R   0.504420 0.561850 0.618900 -0.584432
O4    O     O_R   0.495580 0.438150 0.381100 -0.584443
O5    O     O_R   0.681060 0.430360 0.496900 -0.620644
O6    O     O_R   0.318940 0.569640 0.503100 -0.620674
O7    O     O_R   0.691040 0.569670 0.503140 -0.590292
O8    O     O_R   0.308960 0.430330 0.496860 -0.590312
Zn1   Zn    Zn3+2 0.493340 0.406980 0.495830 1.049459
Zn2   Zn    Zn3+2 0.506660 0.593020 0.504170 1.049485
F1    F     F_    0.097144 0.561907 0.635165 -0.632277
F2    F     F_    0.902858 0.438093 0.364837 -0.632257
H3    H     H_    0.673983 0.870931 0.603544 0.193321
H4    H     H_    0.326025 0.129070 0.396450 0.193323
F3    F     F_    0.677951 0.708582 0.605970 -0.635025
F4    F     F_    0.322059 0.291419 0.394024 -0.635050
H5    H     H_    0.914299 0.415385 0.615278 0.200846
H6    H     H_    0.085701 0.584614 0.384724 0.200824
H7    H     H_    0.065616 0.356420 0.489778 0.215612
H8    H     H_    0.934384 0.643579 0.510224 0.215616
H9    H     H_    0.588895 0.397603 0.253110 0.237197
H10   H     H_    0.410465 0.602293 0.746771 0.237210
F5    F     F_    0.613627 0.393614 0.101328 -0.614361
F6    F     F_    0.385019 0.606182 0.898529 -0.614248
H11   H     H_    0.536903 0.346179 0.896898 0.229722
H12   H     H_    0.462339 0.653776 0.103134 0.229643
F7    F     F_    0.560189 0.340806 0.743877 -0.639407
F8    F     F_    0.439805 0.659252 0.256191 -0.639426
H13   H     H_    0.629621 0.268231 0.576750 0.197789
H14   H     H_    0.370370 0.731768 0.423255 0.197806

loop_
_geom_bond_atom_site_label_1
_geom_bond_atom_site_label_2
_ccdc_geom_bond_type
C21   C26   S    
C7    C29   A    
N5    N6    D    
C9    H14   S    
C5    H11   S    
C1    O3    A    
C13   N5    S    
C2    O4    A    
C11   H2    S    
C24   C26   S    
C21   H5    S    
C22   H6    S    
C19   O5    A    
C20   C25   S    
C3    C33   A    
C24   F2    S    
C9    N3    A    
C10   N4    A    
C17   N3    A    
C19   C26   S    
C18   N4    A    
C20   O8    A    
C27   H7    S    
C1    O1    A    
C2    O2    A    
C22   C25   S    
C24   C27   S    
C14   N6    S    
C10   H13   S    
O2    Zn2   S    
C6    H12   S    
N3    Zn2   S    
C21   C27   S    
C15   H3    S    
C22   C28   S    
C34   F5    S    
C18   F4    S    
C33   F6    S    
C23   F1    S    
C4    C34   A    
C31   C33   A    
C4    C6    A    
C5    C7    A    
O5    Zn1   S    
O3    Zn2   S    
O4    Zn1   S    
C32   C34   A    
C16   H4    S    
N1    N2    D    
C19   O7    A    
O7    Zn2   S    
C1    C29   S    
O8    Zn1   S    
C23   C28   S    
C12   H1    S    
C9    C11   A    
C20   O6    A    
C10   C12   A    
C12   C14   A    
C13   C15   A    
C14   C16   A    
C15   C17   A    
C8    F8    S    
C31   H10   S    
C32   H9    S    
C4    N2    S    
C3    C5    A    
C7    F7    S    
C6    C8    A    
C25   C27   S    
N4    Zn1   S    
C26   C28   S    
C2    C30   S    
C8    C30   A    
C21   C23   S    
C29   C31   A    
C30   C32   A    
C11   C13   A    
O1    Zn1   S    
C22   C24   S    
C23   C25   S    
O6    Zn2   S    
C3    N1    S    
C16   C18   A    
C17   F3    S    
C28   H8    S    
