data_mof_unit_64258.cif
_audit_creation_date              2013-03-05T15:51:53-0500
_audit_creation_method            fapswitch 2.2
_symmetry_space_group_name_H-M    P1
_symmetry_Int_Tables_number       1
_space_group_crystal_system       triclinic
_cell_length_a                    43.847564
_cell_length_b                    30.117413
_cell_length_c                    30.094481
_cell_angle_alpha                 89.978711
_cell_angle_beta                  133.305403
_cell_angle_gamma                 90.029608
_cell_volume                      28920.5889669

loop_
_atom_site_label
_atom_site_type_symbol
_atom_site_description
_atom_site_fract_x
_atom_site_fract_y
_atom_site_fract_z
_atom_type_partial_charge
O1    O     O_R   0.499980 0.537310 0.933900 -0.618154
O2    O     O_R   0.500020 0.537310 0.066100 -0.618058
O3    O     O_R   0.999980 0.037310 0.933900 -0.617505
O4    O     O_R   0.000020 0.037310 0.066100 -0.615185
O5    O     O_R   0.499970 0.462690 0.933870 -0.614643
O6    O     O_R   0.500030 0.462690 0.066130 -0.614585
O7    O     O_R   0.999970 0.962690 0.933870 -0.615477
O8    O     O_R   0.000030 0.962690 0.066130 -0.616595
C1    C     C_R   0.499937 0.500013 0.913221 0.885802
C2    C     C_R   0.500067 0.499999 0.086781 0.885723
C3    C     C_R   0.999934 0.000013 0.913221 0.886193
C4    C     C_R   0.000032 0.999992 0.086743 0.886390
O9    O     O_R   0.438570 0.537300 0.938570 -0.611604
O10   O     O_R   0.561430 0.537300 0.061430 -0.611474
O11   O     O_R   0.938570 0.037300 0.938570 -0.603691
O12   O     O_R   0.061430 0.037300 0.061430 -0.611017
O13   O     O_R   0.438560 0.462690 0.938540 -0.602902
O14   O     O_R   0.561440 0.462690 0.061460 -0.602839
O15   O     O_R   0.938560 0.962690 0.938540 -0.622217
O16   O     O_R   0.061440 0.962690 0.061460 -0.602378
C5    C     C_R   0.419012 0.499974 0.919014 0.886135
C6    C     C_R   0.580988 0.499989 0.080987 0.886156
C7    C     C_R   0.919014 0.999962 0.919011 0.892185
C8    C     C_R   0.080988 0.999989 0.080991 0.886571
Zn1   Zn    Zn3+2 0.500000 0.549820 0.000000 1.017421
Zn2   Zn    Zn3+2 0.000000 0.049820 0.000000 1.022383
Zn3   Zn    Zn3+2 0.500000 0.450170 0.000000 1.021783
Zn4   Zn    Zn3+2 1.000000 0.950170 0.000000 1.006941
C9    C     C_3   0.274102 0.540524 0.748206 0.086119
C10   C     C_3   0.725933 0.540585 0.251778 0.086252
C11   C     C_3   0.774327 0.039201 0.748917 0.091607
C12   C     C_3   0.225932 0.040340 0.252197 0.087706
C13   C     C_3   0.274862 0.453406 0.753122 0.711596
C14   C     C_3   0.725098 0.453466 0.246901 0.711674
C15   C     C_3   0.774479 0.952024 0.752424 0.723138
C16   C     C_3   0.225099 0.953265 0.246478 0.713382
C17   C     C_3   0.225570 0.455902 0.703013 0.194546
C18   C     C_3   0.774392 0.455952 0.297008 0.194431
C19   C     C_3   0.725460 0.955769 0.701259 0.248643
C20   C     C_3   0.274394 0.955744 0.296605 0.194637
H1    H     H_    0.216404 0.532767 0.651600 0.206708
H2    H     H_    0.783624 0.532837 0.348386 0.206646
H3    H     H_    0.715543 0.034694 0.652495 0.207158
H4    H     H_    0.283627 0.032218 0.348728 0.205315
H5    H     H_    0.217811 0.460877 0.659599 0.158185
H6    H     H_    0.782156 0.460945 0.340420 0.157872
H7    H     H_    0.718203 0.962827 0.658571 0.156092
H8    H     H_    0.282159 0.960392 0.340065 0.156737
C21   C     C_1   0.125345 0.499862 0.625292 -0.106788
C22   C     C_1   0.874655 0.499873 0.374708 -0.107001
C23   C     C_1   0.625344 0.999664 0.625316 -0.108447
C24   C     C_1   0.374655 0.999879 0.374712 -0.107997
C25   C     C_3   0.291386 0.498367 0.790781 -0.164842
C26   C     C_3   0.708612 0.498418 0.209222 -0.165163
C27   C     C_3   0.791456 0.996768 0.790946 -0.185592
C28   C     C_3   0.208611 0.998419 0.209234 -0.164029
C29   C     C_3   0.225439 0.538574 0.695859 0.043467
C30   C     C_3   0.774595 0.538627 0.304125 0.043477
C31   C     C_3   0.725569 0.038551 0.697718 0.042120
C32   C     C_3   0.274594 0.038348 0.304522 0.043034
C33   C     C_3   0.208504 0.499655 0.708725 -0.188644
C34   C     C_3   0.791495 0.499688 0.291276 -0.188724
C35   C     C_3   0.708500 0.998626 0.708911 -0.217090
C36   C     C_3   0.291494 0.999700 0.291294 -0.187673
C37   C     C_3   0.226473 0.508260 0.774651 0.170479
C38   C     C_3   0.773534 0.508270 0.225346 0.170488
C39   C     C_3   0.726525 0.005326 0.775164 0.177682
C40   C     C_3   0.273529 0.008745 0.225448 0.170598
C41   C     C_3   0.275066 0.503252 0.823471 0.128843
C42   C     C_3   0.724936 0.503272 0.176529 0.128714
C43   C     C_3   0.775201 0.001059 0.823746 0.145946
C44   C     C_3   0.224932 0.003748 0.176586 0.128183
C45   C     C_1   0.162796 0.499821 0.662829 0.187843
C46   C     C_1   0.837204 0.499843 0.337172 0.187623
C47   C     C_1   0.662795 0.999287 0.662926 0.170564
C48   C     C_1   0.337203 0.999852 0.337184 0.187117
C49   C     C_1   0.337174 0.499291 0.836872 0.207162
C50   C     C_1   0.662826 0.499347 0.163130 0.207216
C51   C     C_1   0.837187 0.998385 0.836857 0.147619
C52   C     C_1   0.162825 0.999349 0.163149 0.207988
C53   C     C_1   0.374630 0.499807 0.874512 -0.097199
C54   C     C_1   0.625370 0.499852 0.125490 -0.096971
C55   C     C_1   0.874639 0.999619 0.874502 -0.125955
C56   C     C_1   0.125369 0.999853 0.125504 -0.097960
H9    H     H_    0.288194 0.534654 0.850404 0.117580
H10   H     H_    0.711836 0.534669 0.149582 0.117784
H11   H     H_    0.787993 0.032530 0.850543 0.120712
H12   H     H_    0.211830 0.035277 0.149944 0.117865
H13   H     H_    0.220334 0.543761 0.776200 0.183937
H14   H     H_    0.779704 0.543765 0.223782 0.183984
H15   H     H_    0.719911 0.040299 0.777962 0.186908
H16   H     H_    0.279697 0.044313 0.224226 0.184032
H17   H     H_    0.282709 0.570211 0.776863 0.181561
H18   H     H_    0.717351 0.570263 0.223107 0.181743
H19   H     H_    0.784133 0.068795 0.778294 0.187754
H20   H     H_    0.217347 0.070211 0.223814 0.182393
C57   C     C_R   0.528980 0.474171 0.686589 -0.262109
C58   C     C_R   0.470941 0.474243 0.313347 -0.262495
C59   C     C_R   0.029069 0.974285 0.686686 -0.262651
C60   C     C_R   0.970904 0.974303 0.313287 -0.261582
C61   C     C_R   0.499895 0.500138 0.634653 -0.081821
C62   C     C_R   0.500108 0.500130 0.365346 -0.082252
C63   C     C_R   0.999892 0.000134 0.634655 -0.082327
C64   C     C_R   0.000190 0.000036 0.365410 -0.082178
C65   C     C_R   0.470857 0.526417 0.628250 -0.197903
C66   C     C_R   0.529246 0.526307 0.371826 -0.197265
C67   C     C_R   0.970747 0.026281 0.628147 -0.197147
C68   C     C_R   0.029789 0.025631 0.372344 -0.197812
C69   C     C_R   0.471040 0.527644 0.674719 -0.007219
C70   C     C_R   0.529089 0.527506 0.325382 -0.007151
C71   C     C_R   0.970900 0.027481 0.674587 -0.006815
C72   C     C_R   0.030025 0.026368 0.326285 -0.003935
C73   C     C_R   0.499852 0.500565 0.726778 -0.003652
C74   C     C_R   0.500183 0.500516 0.273250 -0.003706
C75   C     C_R   0.999826 0.000539 0.726761 -0.003915
C76   C     C_R   0.000813 0.999743 0.273859 -0.003923
C77   C     C_R   0.528658 0.473487 0.732392 0.151571
C78   C     C_R   0.471273 0.473543 0.267554 0.151626
C79   C     C_R   0.028748 0.973600 0.732490 0.151767
C80   C     C_R   0.971477 0.973291 0.267740 0.151119
C81   C     C_R   0.443377 0.555590 0.670519 0.523618
C82   C     C_R   0.556868 0.555343 0.329680 0.523025
C83   C     C_R   0.943100 0.055277 0.670241 0.523525
C84   C     C_R   0.058880 0.052930 0.331643 0.515986
C85   C     C_R   0.443793 0.555387 0.717404 -0.281032
C86   C     C_R   0.556460 0.555128 0.282799 -0.280983
C87   C     C_R   0.943508 0.055065 0.717127 -0.281728
C88   C     C_R   0.057338 0.054052 0.283656 -0.282849
C89   C     C_R   0.471949 0.528280 0.768643 0.036646
C90   C     C_R   0.528197 0.528123 0.231476 0.036726
C91   C     C_R   0.971799 0.028115 0.768500 0.037338
C92   C     C_R   0.028808 0.027367 0.232071 0.038849
C93   C     C_R   0.499899 0.500459 0.773262 0.056683
C94   C     C_R   0.500143 0.500401 0.226773 0.056639
C95   C     C_R   0.999874 0.000436 0.773245 0.056692
C96   C     C_R   0.000755 0.999643 0.227366 0.056054
C97   C     C_R   0.527822 0.472361 0.824348 0.136013
C98   C     C_R   0.472116 0.472395 0.175605 0.136125
C99   C     C_R   0.027924 0.972479 0.824458 0.136176
C100  C     C_R   0.972396 0.972021 0.175868 0.136329
C101  C     C_R   0.555953 0.445347 0.829162 -0.186274
C102  C     C_R   0.443885 0.445478 0.170713 -0.186440
C103  C     C_R   0.056168 0.945598 0.829387 -0.186474
C104  C     C_R   0.943952 0.945358 0.170767 -0.187394
C105  C     C_R   0.556568 0.446140 0.783545 -0.203913
C106  C     C_R   0.443268 0.446281 0.216327 -0.204193
C107  C     C_R   0.056775 0.946387 0.783761 -0.204398
C108  C     C_R   0.943270 0.946261 0.216314 -0.203505
C109  C     C_R   0.472584 0.528360 0.815459 -0.183258
C110  C     C_R   0.527556 0.528211 0.184654 -0.183147
C111  C     C_R   0.972441 0.028208 0.815324 -0.184334
C112  C     C_R   0.027797 0.027896 0.184889 -0.183286
C113  C     C_R   0.499862 0.500063 0.865377 -0.062169
C114  C     C_R   0.500165 0.500016 0.134646 -0.062117
C115  C     C_R   0.999854 0.000057 0.865374 -0.062798
C116  C     C_R   0.000201 0.999936 0.134672 -0.062154
C117  C     C_R   0.527120 0.471886 0.869815 -0.232362
C118  C     C_R   0.472811 0.471922 0.130131 -0.232534
C119  C     C_R   0.027231 0.972009 0.869934 -0.232559
C120  C     C_R   0.972873 0.971801 0.130172 -0.233420
H21   H     H_    0.551172 0.453832 0.690572 0.148221
H22   H     H_    0.448675 0.453978 0.309305 0.148308
H23   H     H_    0.051339 0.954039 0.690748 0.148072
H24   H     H_    0.948347 0.954399 0.308951 0.148778
H25   H     H_    0.448942 0.546604 0.587638 0.194542
H26   H     H_    0.551222 0.546438 0.412482 0.194924
H27   H     H_    0.948767 0.046389 0.587471 0.194805
H28   H     H_    0.052002 0.045479 0.413224 0.195200
H29   H     H_    0.421934 0.576315 0.713482 0.185643
H30   H     H_    0.578412 0.575959 0.286793 0.185850
H31   H     H_    0.921528 0.075840 0.713093 0.185264
H32   H     H_    0.078616 0.075657 0.286984 0.184023
H33   H     H_    0.451429 0.549729 0.812732 0.164653
H34   H     H_    0.548786 0.549512 0.187437 0.164756
H35   H     H_    0.951192 0.049470 0.812506 0.164503
H36   H     H_    0.049011 0.049216 0.187660 0.164802
H37   H     H_    0.548264 0.450381 0.909230 0.161408
H38   H     H_    0.451586 0.450493 0.090648 0.161277
H39   H     H_    0.048470 0.950612 0.909447 0.161384
H40   H     H_    0.951456 0.950592 0.090493 0.158926
H41   H     H_    0.577559 0.423808 0.868285 0.167773
H42   H     H_    0.422201 0.424010 0.131529 0.167663
H43   H     H_    0.077870 0.924167 0.868605 0.167566
H44   H     H_    0.922041 0.924151 0.131356 0.166870
H45   H     H_    0.578654 0.425201 0.788045 0.157574
H46   H     H_    0.421103 0.425420 0.211765 0.157374
H47   H     H_    0.078950 0.925553 0.788349 0.157083
H48   H     H_    0.920834 0.925727 0.211482 0.157540
O17   O     O_R   0.999990 0.565940 0.462670 -0.618886
O18   O     O_R   0.000010 0.565940 0.537330 -0.618913
O19   O     O_R   0.499990 0.065940 0.462670 -0.618934
O20   O     O_R   0.500010 0.065940 0.537330 -0.619022
C121  C     C_R   0.999997 0.586635 0.499990 0.895980
C122  C     C_R   0.499996 0.086634 0.499988 0.896236
O21   O     O_R   0.061410 0.499850 0.524090 -0.612735
O22   O     O_R   0.938590 0.499850 0.475910 -0.613239
O23   O     O_R   0.561410 0.999850 0.524090 -0.612860
O24   O     O_R   0.438590 0.999850 0.475910 -0.613833
O25   O     O_R   0.061430 0.499870 0.598720 -0.595516
O26   O     O_R   0.938570 0.499870 0.401280 -0.595135
O27   O     O_R   0.561430 0.999870 0.598720 -0.595635
O28   O     O_R   0.438570 0.999870 0.401280 -0.595205
C123  C     C_R   0.080976 0.499867 0.580944 0.883464
C124  C     C_R   0.919024 0.499867 0.419056 0.883285
C125  C     C_R   0.580976 0.999893 0.580946 0.883701
C126  C     C_R   0.419024 0.999868 0.419057 0.883732
Zn5   Zn    Zn3+2 0.999980 0.499850 0.450150 1.037700
Zn6   Zn    Zn3+2 0.000020 0.499850 0.549850 1.035508
Zn7   Zn    Zn3+2 0.499980 0.999850 0.450150 1.035724
Zn8   Zn    Zn3+2 0.500020 0.999850 0.549850 1.033597
O29   O     O_R   0.999980 0.433770 0.462660 -0.608590
O30   O     O_R   0.000020 0.433770 0.537340 -0.610264
O31   O     O_R   0.499980 0.933770 0.462660 -0.609515
O32   O     O_R   0.500020 0.933770 0.537340 -0.610188
C127  C     C_R   0.000003 0.413234 0.500012 0.873267
C128  C     C_R   0.500003 0.913231 0.500010 0.872931
O33   O     O_R   0.465300 0.433880 0.465270 -0.597357
O34   O     O_R   0.534700 0.433880 0.534730 -0.597184
O35   O     O_R   0.965300 0.933880 0.465270 -0.597156
O36   O     O_R   0.034700 0.933880 0.534730 -0.598931
C129  C     C_R   0.499993 0.413161 0.499991 0.992530
C130  C     C_R   0.999993 0.913163 0.499986 0.993548
O37   O     O_R   0.465290 0.499990 0.531320 -0.606058
O38   O     O_R   0.534710 0.499990 0.468680 -0.605844
O39   O     O_R   0.965290 0.999990 0.531320 -0.605968
O40   O     O_R   0.034710 0.999990 0.468680 -0.613070
O41   O     O_R   0.534650 0.499980 0.600740 -0.628621
O42   O     O_R   0.465350 0.499980 0.399260 -0.628879
O43   O     O_R   0.034650 0.999980 0.600740 -0.629271
O44   O     O_R   0.965350 0.999980 0.399260 -0.626328
C131  C     C_R   0.499945 0.499983 0.586871 0.882290
C132  C     C_R   0.500055 0.499986 0.413128 0.882437
C133  C     C_R   0.999945 0.999984 0.586872 0.882960
C134  C     C_R   0.000063 0.000014 0.413129 0.887127
Zn9   Zn    Zn3+2 0.453680 0.499970 0.453630 1.013406
Zn10  Zn    Zn3+2 0.546320 0.499970 0.546370 1.014652
Zn11  Zn    Zn3+2 0.953680 0.999970 0.453630 1.015377
Zn12  Zn    Zn3+2 0.046320 0.999970 0.546370 1.004150
O45   O     O_R   0.465330 0.566050 0.465280 -0.624474
O46   O     O_R   0.534670 0.566050 0.534720 -0.623968
O47   O     O_R   0.965330 0.066050 0.465280 -0.624605
O48   O     O_R   0.034670 0.066050 0.534720 -0.624077
C135  C     C_R   0.500007 0.586982 0.500005 0.877285
C136  C     C_R   0.000005 0.086985 0.500017 0.881655
C137  C     C_R   0.479383 0.342764 0.513807 0.409982
C138  C     C_R   0.520555 0.342809 0.486090 0.410018
C139  C     C_R   0.979440 0.842769 0.513896 0.409763
C140  C     C_R   0.020498 0.842814 0.485986 0.410358
C141  C     C_R   0.499977 0.365418 0.499962 -0.304190
C142  C     C_R   0.999976 0.865421 0.499955 -0.304145
C143  C     C_R   0.521384 0.296408 0.487323 0.002707
C144  C     C_R   0.478536 0.296364 0.512539 0.002758
C145  C     C_R   0.021327 0.796413 0.487218 0.003410
C146  C     C_R   0.978591 0.796369 0.512627 0.002394
C147  C     C_R   0.499958 0.273238 0.499926 -0.082303
C148  C     C_R   0.999956 0.773243 0.499918 -0.082467
C149  C     C_R   0.542825 0.272737 0.475567 -0.137726
C150  C     C_R   0.457089 0.272650 0.524282 -0.137902
C151  C     C_R   0.042714 0.772742 0.475370 -0.139554
C152  C     C_R   0.957199 0.772656 0.524464 -0.137540
C153  C     C_R   0.042386 0.726597 0.474976 -0.210152
C154  C     C_R   0.957528 0.726512 0.524859 -0.209347
C155  C     C_R   0.542494 0.226593 0.475166 -0.209984
C156  C     C_R   0.457418 0.226506 0.524677 -0.209899
C157  C     C_R   0.021041 0.703479 0.486968 0.120812
C158  C     C_R   0.978879 0.703437 0.512878 0.120141
C159  C     C_R   0.521094 0.203475 0.487062 0.120615
C160  C     C_R   0.478824 0.203431 0.512789 0.120596
C161  C     C_R   0.999957 0.726745 0.499918 0.125777
C162  C     C_R   0.499957 0.226740 0.499923 0.125881
C163  C     C_R   0.020523 0.657357 0.486446 -0.227954
C164  C     C_R   0.979419 0.657316 0.513436 -0.227531
C165  C     C_R   0.520572 0.157353 0.486533 -0.228158
C166  C     C_R   0.479363 0.157311 0.513346 -0.227893
C167  C     C_R   0.999980 0.634516 0.499956 -0.068665
C168  C     C_R   0.499976 0.134512 0.499954 -0.068432
H49   H     H_    0.559757 0.289749 0.466349 0.195162
H50   H     H_    0.440157 0.289628 0.533504 0.195088
H51   H     H_    0.059602 0.789753 0.466075 0.193922
H52   H     H_    0.940311 0.789634 0.533762 0.195436
H53   H     H_    0.058849 0.708984 0.465331 0.164237
H54   H     H_    0.941067 0.708866 0.534507 0.164999
H55   H     H_    0.558998 0.208980 0.465591 0.164404
H56   H     H_    0.440914 0.208860 0.534252 0.164317
H57   H     H_    0.036650 0.639180 0.476563 0.168320
H58   H     H_    0.963301 0.639109 0.523334 0.168481
H59   H     H_    0.536738 0.139176 0.476717 0.167932
H60   H     H_    0.463205 0.139101 0.523175 0.168026
C169  C     C_R   0.532827 0.657787 0.553325 -0.216185
C170  C     C_R   0.467213 0.657780 0.446694 -0.216793
C171  C     C_R   0.032935 0.157801 0.553259 -0.215320
C172  C     C_R   0.967051 0.157793 0.446846 -0.208124
C173  C     C_R   0.500018 0.634922 0.500009 -0.069517
C174  C     C_R   0.000004 0.134931 0.500043 -0.068997
C175  C     C_R   0.467231 0.703928 0.446112 0.061001
C176  C     C_R   0.532806 0.703936 0.553912 0.060325
C177  C     C_R   0.967050 0.203940 0.446269 0.061140
C178  C     C_R   0.032908 0.203950 0.553854 0.062494
C179  C     C_R   0.500017 0.727213 0.500013 0.063271
C180  C     C_R   0.999976 0.227225 0.500062 0.064227
C181  C     C_R   0.435035 0.726966 0.392495 -0.248448
C182  C     C_R   0.564999 0.726984 0.607530 -0.246181
C183  C     C_R   0.934702 0.226977 0.392756 -0.241863
C184  C     C_R   0.065242 0.227000 0.607372 -0.247206
C185  C     C_R   0.934687 0.273201 0.391802 0.387664
C186  C     C_R   0.065253 0.273226 0.608318 0.387064
C187  C     C_R   0.435026 0.773192 0.391554 0.386464
C188  C     C_R   0.565000 0.773209 0.608476 0.386143
C189  C     C_R   0.967334 0.296865 0.445391 0.042445
C190  C     C_R   0.032617 0.296878 0.554716 0.043064
C191  C     C_R   0.467520 0.796854 0.445257 0.042435
C192  C     C_R   0.532500 0.796863 0.554778 0.042397
C193  C     C_R   0.999974 0.273671 0.500058 -0.044012
C194  C     C_R   0.500012 0.773659 0.500016 -0.044741
C195  C     C_R   0.968286 0.343110 0.445985 -0.170666
C196  C     C_R   0.031688 0.343124 0.554092 -0.171758
C197  C     C_R   0.468457 0.843101 0.445878 -0.172227
C198  C     C_R   0.531553 0.843110 0.554163 -0.173785
C199  C     C_R   0.999995 0.365630 0.500029 -0.091979
C200  C     C_R   0.500002 0.865622 0.500021 -0.091780
H61   H     H_    0.557928 0.639606 0.594541 0.160685
H62   H     H_    0.442110 0.639595 0.405476 0.160368
H63   H     H_    0.058149 0.139625 0.594393 0.159694
H64   H     H_    0.941843 0.139613 0.405703 0.161495
H65   H     H_    0.409877 0.709004 0.351125 0.189188
H66   H     H_    0.590160 0.709029 0.648898 0.189964
H67   H     H_    0.909431 0.209013 0.351471 0.190091
H68   H     H_    0.090511 0.209047 0.648661 0.188730
H69   H     H_    0.944190 0.362122 0.405150 0.195311
H70   H     H_    0.055791 0.362148 0.594916 0.195411
H71   H     H_    0.444469 0.862112 0.404978 0.195651
H72   H     H_    0.555541 0.862129 0.595061 0.194565
Cl1   Cl    Cl    0.202748 0.591703 0.686295 -0.566046
Cl2   Cl    Cl    0.797332 0.591743 0.313667 -0.564337
Cl3   Cl    Cl    0.704215 0.091508 0.692434 -0.566282
Cl4   Cl    Cl    0.297328 0.091590 0.314574 -0.566067
Cl5   Cl    Cl    0.199432 0.483180 0.793655 -0.536399
Cl6   Cl    Cl    0.800552 0.483159 0.206352 -0.534972
Cl7   Cl    Cl    0.699905 0.977675 0.793365 -0.533004
Cl8   Cl    Cl    0.300545 0.984081 0.206206 -0.536737
O49   O     O_3   0.414341 0.581320 0.619133 -0.593102
C201  C     C_3   0.429431 0.625286 0.632359 -0.281571
H73   H     H_    0.460368 0.627023 0.646213 0.153957
H74   H     H_    0.431546 0.640197 0.668223 0.171141
H75   H     H_    0.407039 0.645564 0.590414 0.209969
O50   O     O_3   0.586008 0.580950 0.381171 -0.593075
C202  C     C_3   0.571300 0.625064 0.367952 -0.277756
H76   H     H_    0.540194 0.627174 0.353544 0.153274
H77   H     H_    0.569684 0.639863 0.332492 0.171352
H78   H     H_    0.593676 0.645199 0.410057 0.211039
O51   O     O_3   0.913932 0.080805 0.618673 -0.593382
C203  C     C_3   0.928341 0.125054 0.631959 -0.280179
H79   H     H_    0.959652 0.127527 0.647050 0.153496
H80   H     H_    0.929390 0.139720 0.666929 0.171733
H81   H     H_    0.906078 0.145071 0.589706 0.209944
O52   O     O_3   0.086522 0.080251 0.381756 -0.602810
C204  C     C_3   0.126734 0.060923 0.420376 -0.265358
H82   H     H_    0.139176 0.060226 0.398273 0.181558
H83   H     H_    0.126663 0.026867 0.434789 0.159054
H84   H     H_    0.148379 0.081487 0.462216 0.206951
Cl9   Cl    Cl    0.297656 0.551837 0.718726 -0.483056
Cl10  Cl    Cl    0.702388 0.551934 0.281252 -0.481877
Cl11  Cl    Cl    0.796764 0.049084 0.717496 -0.487675
Cl12  Cl    Cl    0.202390 0.051171 0.281786 -0.494528
O53   O     O_3   0.458814 0.366225 0.526314 -0.584129
C205  C     C_3   0.487442 0.374803 0.589615 -0.294859
H85   H     H_    0.471116 0.394008 0.599549 0.207857
H86   H     H_    0.514391 0.395141 0.604881 0.142413
H87   H     H_    0.498963 0.343463 0.616435 0.161623
O54   O     O_3   0.541134 0.366312 0.473602 -0.584028
C206  C     C_3   0.512511 0.374918 0.410308 -0.294748
H88   H     H_    0.528840 0.394172 0.400392 0.207981
H89   H     H_    0.485559 0.395219 0.395048 0.142322
H90   H     H_    0.500991 0.343590 0.383468 0.161564
O55   O     O_3   0.958923 0.866231 0.526490 -0.583942
C207  C     C_3   0.987605 0.874815 0.589794 -0.294824
H91   H     H_    0.971315 0.894006 0.599799 0.208095
H92   H     H_    0.014527 0.895168 0.604989 0.142304
H93   H     H_    0.999164 0.843475 0.616624 0.161503
O56   O     O_3   0.041037 0.866319 0.473430 -0.586347
C208  C     C_3   0.012369 0.874944 0.410137 -0.302544
H94   H     H_    0.028683 0.894159 0.400165 0.203960
H95   H     H_    0.985462 0.895291 0.394956 0.144567
H96   H     H_    0.000788 0.843623 0.383272 0.163057
Cl13  Cl    Cl    0.892803 0.299858 0.322512 -0.607464
Cl14  Cl    Cl    0.107126 0.299899 0.677609 -0.612195
Cl15  Cl    Cl    0.393337 0.799849 0.322130 -0.612353
Cl16  Cl    Cl    0.606683 0.799880 0.677901 -0.609634
O57   O     O_3   0.289385 0.417418 0.794412 -0.579366
C209  C     C_3   0.290248 0.375820 0.773429 -0.111416
H97   H     H_    0.320865 0.371357 0.787069 0.191959
H98   H     H_    0.264303 0.371243 0.723308 0.201439
H99   H     H_    0.287371 0.349268 0.795919 0.167678
O58   O     O_3   0.710544 0.417465 0.205627 -0.579352
C210  C     C_3   0.709644 0.375880 0.226627 -0.110966
H100  H     H_    0.679023 0.371434 0.212990 0.192091
H101  H     H_    0.735585 0.371311 0.276750 0.201010
H102  H     H_    0.712497 0.349313 0.204148 0.168011
O59   O     O_3   0.784504 0.914702 0.789791 -0.585819
C211  C     C_3   0.821271 0.891366 0.814759 -0.078180
H103  H     H_    0.847836 0.913465 0.832794 0.158937
H104  H     H_    0.814640 0.868183 0.780315 0.192575
H105  H     H_    0.831168 0.871025 0.853524 0.178313
O60   O     O_3   0.210544 0.917524 0.204856 -0.578862
C212  C     C_3   0.209647 0.875730 0.225454 -0.112620
H106  H     H_    0.179026 0.871119 0.211776 0.191652
H107  H     H_    0.235589 0.870927 0.275531 0.200815
H108  H     H_    0.212499 0.849409 0.202717 0.167891
Cl17  Cl    Cl    0.294959 0.448669 0.716568 -0.581372
Cl18  Cl    Cl    0.704998 0.448764 0.283459 -0.581809
Cl19  Cl    Cl    0.793286 0.945027 0.714268 -0.570178
Cl20  Cl    Cl    0.205002 0.948014 0.282992 -0.592517
O61   O     O_3   0.203926 0.415205 0.689173 -0.626587
C213  C     C_3   0.200098 0.402726 0.730146 -0.049154
H109  H     H_    0.227474 0.411843 0.778007 0.250305
H110  H     H_    0.197594 0.366025 0.729093 0.181918
H111  H     H_    0.170428 0.416012 0.714248 0.202335
O62   O     O_3   0.796000 0.415245 0.310864 -0.627419
C214  C     C_3   0.799817 0.402741 0.269896 -0.049494
H112  H     H_    0.772448 0.411852 0.222031 0.250585
H113  H     H_    0.802289 0.366038 0.270965 0.181734
H114  H     H_    0.829498 0.416013 0.285787 0.202437
O63   O     O_3   0.703789 0.914568 0.684463 -0.595253
C215  C     C_3   0.695951 0.901142 0.720595 0.009542
H115  H     H_    0.722603 0.906990 0.769921 0.247155
H116  H     H_    0.690484 0.864775 0.715029 0.188549
H117  H     H_    0.666619 0.916508 0.703584 0.173191
O64   O     O_3   0.296002 0.915115 0.310066 -0.627587
C216  C     C_3   0.299817 0.903046 0.268978 -0.050712
H118  H     H_    0.272447 0.912351 0.221201 0.250645
H119  H     H_    0.302294 0.866359 0.269696 0.181444
H120  H     H_    0.329496 0.916454 0.284994 0.202405
Cl21  Cl    Cl    0.294623 0.462075 0.881181 -0.479322
Cl22  Cl    Cl    0.705344 0.462078 0.118838 -0.478490
Cl23  Cl    Cl    0.795401 0.959719 0.881543 -0.491934
Cl24  Cl    Cl    0.205339 0.962925 0.118497 -0.479577

loop_
_geom_bond_atom_site_label_1
_geom_bond_atom_site_label_2
_geom_bond_distance
_ccdc_geom_bond_type
C59   C63   1.395266 A    
C104  H44   1.083738 S    
C93   C97   1.413077 A    
C204  H82   1.112774 S    
O24   C126  1.284463 A    
C170  C173  1.397012 A    
O39   Zn11  2.023086 S    
C102  C106  1.391662 A    
C91   C111  1.389979 A    
O42   C132  1.272264 A    
C96   C100  1.412970 A    
C25   C41   1.570847 S    
H2    C30   1.112606 S    
C144  C150  1.405102 A    
C183  C185  1.392432 A    
C190  C196  1.393194 A    
C155  C159  1.397638 A    
C186  C190  1.411017 A    
C66   H26   1.084319 S    
C72   C84   1.409235 A    
C15   C19   1.569584 S    
O21   C123  1.284478 A    
C44   Cl24  1.801693 S    
C182  C188  1.392481 A    
C60   C64   1.395300 A    
C165  C168  1.396919 A    
C16   Cl20  1.826772 S    
C11   C31   1.557673 S    
C109  C113  1.396063 A    
C146  C148  1.414726 A    
C213  H111  1.108186 S    
C112  C116  1.395899 A    
C28   C44   1.570835 S    
O48   C136  1.273387 A    
C111  C115  1.396023 A    
O22   C124  1.284475 A    
C85   H29   1.084078 S    
C207  H93   1.112758 S    
C101  C105  1.391650 A    
C99   C119  1.389664 A    
C73   C93   1.397505 A    
C213  H110  1.109045 S    
O36   Zn12  2.024567 S    
C172  C177  1.389921 A    
C90   C94   1.410859 A    
C58   H22   1.084911 S    
C140  C142  1.403469 A    
O33   C129  1.270941 A    
C67   H27   1.084324 S    
C30   Cl2   1.800439 S    
C214  H114  1.108190 S    
C189  C193  1.418839 A    
C201  H73   1.113903 S    
C175  C179  1.410906 A    
O16   Zn4   1.996242 S    
C58   C62   1.395272 A    
C185  Cl13  1.764236 S    
Zn7   O31   2.025319 S    
O7    Zn4   2.024533 S    
C15   O59   1.429241 S    
C197  C200  1.391536 A    
C37   H13   1.111453 S    
C50   C54   1.195280 T    
C26   C42   1.570843 S    
C16   C20   1.574857 S    
C40   C44   1.557903 S    
C203  H79   1.114146 S    
O9    C5    1.285560 A    
O20   Zn8   2.025614 S    
C89   C93   1.410861 A    
C152  C154  1.389788 A    
C102  H42   1.083740 S    
C137  C144  1.397774 A    
C160  C162  1.411634 A    
C14   C26   1.586396 S    
C204  H84   1.109271 S    
C85   C89   1.398961 A    
C208  H94   1.109315 S    
C165  H59   1.084988 S    
C21   C45   1.195013 T    
C166  H60   1.084992 S    
C129  C141  1.437914 S    
C17   H5    1.111466 S    
C6    C54   1.416156 S    
C19   H7    1.111726 S    
C139  C142  1.403451 A    
C20   H8    1.111466 S    
C159  C165  1.389154 A    
C149  C155  1.389795 A    
O3    Zn2   2.024157 S    
C150  C156  1.389788 A    
C151  C153  1.389809 A    
C201  H75   1.109202 S    
O55   C207  1.411103 S    
C29   C33   1.571068 S    
C108  H48   1.083770 S    
C148  C161  1.400402 A    
C31   C35   1.569721 S    
C32   C36   1.571089 S    
O35   Zn11  2.024829 S    
C92   C112  1.389954 A    
C172  C174  1.397088 A    
C118  H38   1.085126 S    
O19   C122  1.284477 A    
C10   H18   1.113271 S    
O53   C205  1.411096 S    
C69   C81   1.409332 A    
C38   C42   1.557921 S    
C164  C167  1.396941 A    
C40   H16   1.111453 S    
O44   C134  1.272564 A    
C101  H41   1.083742 S    
C57   C77   1.388291 A    
C87   C91   1.398961 A    
O3    C3    1.283707 A    
O58   C210  1.415291 S    
C59   C79   1.388306 A    
C29   Cl1   1.800441 S    
C160  C166  1.389134 A    
C114  C118  1.395850 A    
C42   Cl22  1.801685 S    
O45   C135  1.273269 A    
C89   C109  1.389963 A    
C212  H106  1.110455 S    
C27   C43   1.569841 S    
O56   C208  1.411101 S    
C18   C34   1.582241 S    
O41   C131  1.272242 A    
C149  H49   1.082929 S    
C73   C77   1.413216 A    
C151  H51   1.082928 S    
O51   C203  1.409975 S    
O33   Zn9   2.024829 S    
O54   C206  1.411096 S    
C189  C195  1.393158 A    
C169  H61   1.084949 S    
C216  H118  1.104136 S    
C197  H71   1.083205 S    
C176  C182  1.397655 A    
C10   C26   1.579802 S    
C196  C199  1.391518 A    
C36   C40   1.574824 S    
C84   O52   1.383103 S    
H4    C32   1.112604 S    
C22   C46   1.195012 T    
C159  C162  1.411640 A    
O32   C128  1.282219 A    
C181  C187  1.392449 A    
C87   H31   1.084064 S    
O59   C211  1.413006 S    
C203  H81   1.109316 S    
C20   O64   1.425977 S    
C120  H40   1.085138 S    
C198  C200  1.391544 A    
C186  Cl14  1.764225 S    
O5    Zn3   2.024533 S    
C99   C103  1.400062 A    
C176  C179  1.410914 A    
C192  C194  1.418812 A    
C90   C110  1.389946 A    
C208  H96   1.112761 S    
C70   C74   1.414460 A    
C187  C191  1.411005 A    
C179  C194  1.398828 A    
C92   C96   1.410835 A    
C64   C134  1.439910 S    
C68   H28   1.084318 S    
C1    C113  1.437620 S    
Zn5   O29   2.025319 S    
C83   O51   1.382989 S    
C4    C116  1.437350 S    
C207  H92   1.112363 S    
C58   C78   1.388307 A    
C138  C143  1.397775 A    
C34   C38   1.574831 S    
C115  C119  1.395839 A    
O13   Zn3   1.996508 S    
C13   O57   1.427812 S    
C116  C120  1.395927 A    
O60   C212  1.415290 S    
C212  H108  1.109102 S    
C140  C145  1.397789 A    
C117  H37   1.085127 S    
C76   C80   1.413265 A    
C105  H45   1.083773 S    
O20   C122  1.284464 A    
O22   Zn6   1.996183 S    
O5    C1    1.283728 A    
C86   H30   1.084070 S    
C33   C37   1.574835 S    
C98   C118  1.389689 A    
C83   C87   1.398810 A    
O30   C127  1.282137 A    
O8    C4    1.283488 A    
C206  H90   1.112753 S    
C74   C94   1.397495 A    
O15   Zn4   1.996508 S    
C205  H87   1.112759 S    
C183  H67   1.084204 S    
O19   Zn7   2.025889 S    
C144  C147  1.414715 A    
C59   H23   1.084915 S    
C130  C142  1.437839 S    
C215  H115  1.104778 S    
C75   C79   1.413227 A    
C192  C198  1.393215 A    
C3    C115  1.437509 S    
O4    C4    1.283821 A    
C153  H53   1.083832 S    
O28   Zn7   1.995263 S    
C72   C76   1.414403 A    
C41   H9    1.114777 S    
O64   C216  1.404738 S    
O34   C129  1.270940 A    
C216  H120  1.108187 S    
C43   Cl23  1.801723 S    
C137  C141  1.403475 A    
C12   H20   1.113270 S    
O14   C6    1.284703 A    
C67   C71   1.393491 A    
C16   O60   1.427814 S    
C211  H103  1.107505 S    
C24   C48   1.195021 T    
C158  C161  1.411630 A    
C145  C148  1.414727 A    
C63   C67   1.396128 A    
C23   C125  1.415721 S    
O34   Zn10  2.024567 S    
C57   H21   1.084907 S    
C97   C117  1.389670 A    
O40   C134  1.272323 A    
C84   C88   1.399030 A    
O47   C136  1.273269 A    
O10   C6    1.285571 A    
C154  C158  1.397639 A    
C100  C120  1.389626 A    
O35   C130  1.270923 A    
C2    C114  1.437532 S    
C75   C95   1.397486 A    
C185  C189  1.410991 A    
C196  H70   1.083211 S    
O25   Zn6   1.995258 S    
C12   C28   1.579808 S    
C166  C168  1.396926 A    
O43   C133  1.272273 A    
O24   Zn8   1.996183 S    
C182  H66   1.084193 S    
C139  C146  1.397766 A    
O17   C121  1.284490 A    
C204  H83   1.114311 S    
O27   C125  1.284338 A    
O44   Zn11  2.021790 S    
C188  C192  1.411001 A    
C147  C162  1.400393 A    
O2    C2    1.283683 A    
C30   C34   1.571079 S    
O25   C123  1.284394 A    
C21   C123  1.415733 S    
O61   C213  1.404743 S    
O23   C125  1.284534 A    
C52   C56   1.195270 T    
C38   H14   1.111454 S    
O41   Zn10  2.021793 S    
C7    C55   1.415957 S    
C214  H113  1.109045 S    
C210  H102  1.109103 S    
C201  H74   1.112732 S    
C86   C90   1.398956 A    
C79   C107  1.400594 A    
C206  H88   1.109275 S    
C77   C105  1.400591 A    
C171  C178  1.390028 A    
C157  C161  1.411636 A    
C205  H85   1.109303 S    
O42   Zn9   2.021790 S    
C65   C69   1.393491 A    
O18   C121  1.284483 A    
C37   Cl5   1.797881 S    
C215  H117  1.107974 S    
C214  H112  1.104134 S    
C203  H80   1.112966 S    
C150  H50   1.082931 S    
C195  H69   1.083215 S    
C175  C181  1.397646 A    
C41   Cl21  1.801684 S    
C63   C133  1.439599 S    
C19   O63   1.427763 S    
C178  C180  1.410922 A    
C184  H68   1.084202 S    
C211  H105  1.109010 S    
O37   C131  1.272428 A    
O12   Zn2   1.996195 S    
C111  H35   1.085152 S    
C71   C83   1.409265 A    
C188  Cl16  1.764186 S    
C18   O62   1.425982 S    
O1    C1    1.283715 A    
C98   C102  1.400064 A    
C202  H76   1.114054 S    
C187  Cl15  1.764210 S    
C107  H47   1.083773 S    
C181  H65   1.084196 S    
O46   C135  1.273294 A    
C13   C17   1.574865 S    
C68   C72   1.393411 A    
C103  H43   1.083744 S    
C25   C49   1.461272 S    
C153  C157  1.397647 A    
C16   C28   1.586392 S    
C27   C51   1.459985 S    
C145  C151  1.405103 A    
C143  C147  1.414713 A    
C49   C53   1.195279 T    
C180  C193  1.398818 A    
C39   H15   1.111086 S    
C177  C183  1.397668 A    
C60   H24   1.084921 S    
C43   H11   1.114816 S    
C15   Cl19  1.828227 S    
O26   Zn5   1.995263 S    
C22   C124  1.415733 S    
C12   Cl12  1.796181 S    
C213  H109  1.104133 S    
C156  H56   1.083832 S    
C13   Cl17  1.826764 S    
C135  C173  1.443823 S    
C12   C32   1.557891 S    
C103  C107  1.391651 A    
C64   C68   1.396333 A    
C127  C199  1.433715 S    
O31   C128  1.282186 A    
C128  C200  1.433878 S    
C97   C101  1.400067 A    
Zn9   O45   2.024446 S    
C106  H46   1.083770 S    
C100  C104  1.400084 A    
C119  H39   1.085130 S    
C28   C52   1.461262 S    
O6    C2    1.283718 A    
O4    Zn2   2.023882 S    
C210  H100  1.110456 S    
C172  H64   1.084948 S    
C209  H97   1.110455 S    
C76   C96   1.397423 A    
Zn11  O47   2.024446 S    
C95   C99   1.413089 A    
C195  C199  1.391470 A    
O39   C133  1.272447 A    
C212  H107  1.111061 S    
C157  C163  1.389168 A    
H1    C29   1.112608 S    
C158  C164  1.389137 A    
C70   C82   1.409294 A    
C9    H17   1.113275 S    
C154  H54   1.083834 S    
O17   Zn5   2.025889 S    
C11   H19   1.113367 S    
C191  C197  1.393170 A    
C65   H25   1.084317 S    
O2    Zn1   2.023882 S    
C39   C43   1.558531 S    
O10   Zn1   1.996195 S    
C113  C117  1.395875 A    
C169  C173  1.397023 A    
O21   Zn5   1.996180 S    
C208  H95   1.112367 S    
C34   C46   1.458488 S    
C82   O50   1.382896 S    
C11   C27   1.579179 S    
O43   Zn12  2.021793 S    
C14   O58   1.427816 S    
C202  H78   1.109282 S    
C10   Cl10  1.796159 S    
C138  O54   1.385951 S    
C26   C50   1.461270 S    
C190  C193  1.418812 A    
O13   C5    1.284719 A    
O29   C127  1.282183 A    
O40   Zn12  2.023082 S    
C38   Cl6   1.797883 S    
C13   C25   1.586392 S    
O15   C7    1.284346 A    
C104  C108  1.391713 A    
C136  C174  1.444001 S    
C215  H116  1.109038 S    
C170  H62   1.084951 S    
C209  H99   1.109100 S    
O36   C130  1.270922 A    
O49   C201  1.409880 S    
C37   C41   1.557922 S    
C39   Cl7   1.797666 S    
C35   C47   1.458525 S    
C24   C126  1.415743 S    
C23   C47   1.195072 T    
C163  C167  1.396944 A    
C91   C95   1.410860 A    
O38   C132  1.272444 A    
C152  H52   1.082927 S    
C164  H58   1.084980 S    
C155  H55   1.083832 S    
C32   Cl4   1.800432 S    
C81   C85   1.398564 A    
C11   Cl11  1.796156 S    
C140  O56   1.385970 S    
C51   C55   1.195635 T    
C62   C66   1.396113 A    
C60   C80   1.388419 A    
C146  C152  1.405100 A    
Zn6   O30   2.025594 S    
O11   C7    1.285861 A    
O12   C8    1.285566 A    
O1    Zn1   2.024157 S    
C198  H72   1.083209 S    
C88   C92   1.398816 A    
C44   H12   1.114779 S    
C163  H57   1.084982 S    
C216  H119  1.109042 S    
C61   C65   1.396098 A    
C35   C39   1.574564 S    
C169  C176  1.390004 A    
C18   H6    1.111465 S    
C15   C27   1.590719 S    
C170  C175  1.389954 A    
C62   C132  1.439574 S    
O16   C8    1.284702 A    
C78   C106  1.400599 A    
C171  C174  1.397074 A    
C211  H104  1.110600 S    
O63   C215  1.405793 S    
O11   Zn2   1.995932 S    
C206  H89   1.112359 S    
Zn8   O32   2.025594 S    
Zn10  O46   2.024709 S    
C112  H36   1.085145 S    
C82   C86   1.398664 A    
O26   C124  1.284394 A    
C202  H77   1.112864 S    
O7    C3    1.283678 A    
O6    Zn3   2.024805 S    
C171  H63   1.084942 S    
C156  C160  1.397641 A    
C36   C48   1.458500 S    
C61   C131  1.439488 S    
C178  C184  1.397671 A    
C69   C73   1.414463 A    
C74   C78   1.413216 A    
O37   Zn9   2.023086 S    
O18   Zn6   2.025614 S    
C110  H34   1.085151 S    
C5    C53   1.416159 S    
C88   H32   1.084033 S    
C110  C114  1.396032 A    
C177  C180  1.410878 A    
C42   H10   1.114778 S    
O27   Zn8   1.995258 S    
C207  H91   1.109291 S    
O62   C214  1.404741 S    
C66   C70   1.393480 A    
C17   O61   1.425982 S    
C139  O55   1.385967 S    
C209  H98   1.111062 S    
C33   C45   1.458490 S    
C14   C18   1.574853 S    
O14   Zn3   1.996242 S    
O9    Zn1   1.995932 S    
C9    C29   1.557862 S    
C81   O49   1.382819 S    
C94   C98   1.413095 A    
C17   C33   1.582243 S    
C80   C108  1.400625 A    
H3    C31   1.112804 S    
C121  C167  1.442031 S    
C19   C35   1.583729 S    
Zn12  O48   2.024709 S    
C122  C168  1.441971 S    
C20   C36   1.582247 S    
C8    C56   1.416147 S    
C210  H101  1.111061 S    
C9    Cl9   1.796155 S    
O50   C202  1.409916 S    
O57   C209  1.415295 S    
C9    C25   1.579809 S    
O8    Zn4   2.024805 S    
C10   C30   1.557872 S    
C184  C186  1.392483 A    
O52   C204  1.409953 S    
C143  C149  1.405107 A    
C109  H33   1.085143 S    
C14   Cl18  1.826767 S    
C205  H86   1.112351 S    
O23   Zn7   1.996180 S    
O38   Zn10  2.023082 S    
C137  O53   1.385950 S    
C40   Cl8   1.797889 S    
O28   C126  1.284413 A    
C191  C194  1.418805 A    
C31   Cl3   1.800802 S    
C71   C75   1.414457 A    
C138  C141  1.403474 A    
C57   C61   1.395244 A    
