data_mof_unit_16144.cif
_audit_creation_date              2012-10-26T20:38:49-0400
_audit_creation_method            fapswitch 2.2
_symmetry_space_group_name_H-M    P1
_symmetry_Int_Tables_number       1
_space_group_crystal_system       triclinic
_cell_length_a                    23.539741
_cell_length_b                    12.964514
_cell_length_c                    11.7793
_cell_angle_alpha                 100.438277
_cell_angle_beta                  93.703479
_cell_angle_gamma                 92.876459
_cell_volume                      3520.92613762

loop_
_atom_site_label
_atom_site_type_symbol
_atom_type_description
_atom_site_fract_x
_atom_site_fract_y
_atom_site_fract_z
_atom_type_partial_charge
C1    C     C_R   0.500292 0.299213 0.478170 0.540007
C2    C     C_R   0.704348 0.585325 0.468400 -0.047185
C3    C     C_R   0.231386 0.433130 0.490467 -0.066063
C4    C     C_R   0.763578 0.580846 0.469494 -0.081694
C5    C     C_R   0.211783 0.532848 0.530285 0.203820
C6    C     C_R   0.792209 0.510743 0.527775 0.206523
C7    C     C_R   0.498728 0.814530 0.534743 0.008300
C8    C     C_R   0.501273 0.185511 0.465663 -0.005201
C9    C     C_R   0.494636 0.012522 0.345249 -0.159020
C10   C     C_R   0.506655 0.987484 0.655127 -0.143673
C11   C     C_R   0.498233 0.121218 0.355633 -0.144137
C12   C     C_R   0.499882 0.700816 0.521887 0.561249
C13   C     C_R   0.505363 0.878902 0.644716 -0.121541
C14   C     C_R   0.504085 0.140601 0.565345 -0.128232
C15   C     C_R   0.492385 0.859374 0.435369 -0.136575
C16   C     C_R   0.391036 0.496357 0.500516 0.529979
C17   C     C_R   0.608943 0.502496 0.500670 0.562519
C18   C     C_R   0.502119 0.032261 0.555683 0.042372
C19   C     C_R   0.495823 0.967748 0.444850 0.033943
C20   C     C_R   0.451789 0.389295 0.017684 -0.029142
C21   C     C_R   0.549155 0.611782 0.980055 -0.034125
C22   C     C_R   0.455732 0.401041 0.139877 0.384143
C23   C     C_R   0.252058 0.619132 0.555380 -0.068937
C24   C     C_R   0.546390 0.596620 0.857455 0.379449
C25   C     C_R   0.518794 0.551603 0.158310 -0.003491
C26   C     C_R   0.479174 0.452187 0.841588 -0.000630
C27   C     C_R   0.517041 0.542487 0.035142 -0.062525
C28   C     C_R   0.482442 0.460626 0.964261 -0.062683
C29   C     C_R   0.884039 0.613504 0.558766 0.388009
C30   C     C_R   0.123194 0.462130 0.590385 0.387230
C31   C     C_R   0.883504 0.427138 0.535199 0.401290
C32   C     C_R   0.122315 0.624806 0.524430 0.406295
C33   C     C_R   0.943191 0.433585 0.551675 0.022681
C34   C     C_R   0.759099 0.438620 0.576264 -0.061717
C35   C     C_R   0.063210 0.626463 0.536206 0.020605
C36   C     C_R   0.973258 0.529823 0.550861 -0.041969
C37   C     C_R   0.033286 0.534810 0.553928 -0.041879
C38   C     C_R   0.943341 0.620664 0.546594 0.024437
C39   C     C_R   0.063413 0.448111 0.574516 0.026471
C40   C     C_R   0.973194 0.345129 0.564532 -0.133248
C41   C     C_R   0.033250 0.715372 0.525175 -0.133449
C42   C     C_R   0.032874 0.351633 0.578822 -0.022340
C43   C     C_R   0.973962 0.714699 0.532908 -0.023451
C44   C     C_R   0.416151 0.300119 0.947083 0.045635
C45   C     C_R   0.309502 0.605170 0.536971 -0.154481
C46   C     C_R   0.359077 0.312804 0.913118 -0.063950
C47   C     C_R   0.324638 0.226918 0.852426 -0.090994
C48   C     C_R   0.347052 0.128332 0.825183 -0.086406
C49   C     C_R   0.404019 0.115610 0.857796 -0.102992
C50   C     C_R   0.438625 0.201254 0.918509 -0.077033
C51   C     C_R   0.586655 0.700170 0.046310 0.032039
C52   C     C_R   0.567876 0.802587 0.061906 -0.085310
C53   C     C_R   0.606046 0.888712 0.106662 -0.111305
C54   C     C_R   0.663112 0.873043 0.135676 -0.087638
C55   C     C_R   0.682000 0.771213 0.120565 -0.089983
C56   C     C_R   0.699664 0.432527 0.559823 -0.152606
C57   C     C_R   0.643943 0.684905 0.075779 -0.075219
C58   C     C_R   0.061321 0.253077 0.584840 0.080340
C59   C     C_R   0.053154 0.200195 0.677098 -0.081397
C60   C     C_R   0.079532 0.106644 0.682041 -0.116042
C61   C     C_R   0.113904 0.065017 0.594743 -0.107271
C62   C     C_R   0.121893 0.116782 0.502198 -0.106765
C63   C     C_R   0.095496 0.210194 0.496757 -0.056866
C64   C     C_R   0.945589 0.810549 0.514590 0.080318
C65   C     C_R   0.959454 0.906586 0.590515 -0.072654
C66   C     C_R   0.933327 0.997356 0.572295 -0.099089
C67   C     C_R   0.329117 0.503983 0.505765 0.017247
C68   C     C_R   0.893618 0.993102 0.477824 -0.095302
C69   C     C_R   0.880027 0.898080 0.401204 -0.103065
C70   C     C_R   0.906100 0.807146 0.418981 -0.049786
C71   C     C_R   0.304890 0.305794 0.500154 0.009234
C72   C     C_R   0.347268 0.257033 0.436187 -0.071035
C73   C     C_R   0.355540 0.150303 0.431560 -0.094832
C74   C     C_R   0.323030 0.091626 0.494927 -0.099663
C75   C     C_R   0.281775 0.139548 0.562293 -0.119361
C76   C     C_R   0.272991 0.245783 0.565686 -0.102580
C77   C     C_R   0.680661 0.686930 0.459396 0.022047
C78   C     C_R   0.671605 0.504668 0.504341 0.018210
C79   C     C_R   0.641509 0.696350 0.368457 -0.079964
C80   C     C_R   0.618017 0.792613 0.364687 -0.102838
C81   C     C_R   0.635332 0.880968 0.448910 -0.099949
C82   C     C_R   0.675064 0.872462 0.539288 -0.097390
C83   C     C_R   0.697507 0.775679 0.544982 -0.054125
C84   C     C_R   0.289604 0.415481 0.494074 -0.032234
Cl1   Cl    Cl    0.591763 0.677770 0.792136 -0.588716
Cl2   Cl    Cl    0.414424 0.310917 0.198635 -0.648422
Cu1   Cu    Cu3+1 0.504210 0.507730 0.615930 1.008387
Cu2   Cu    Cu3+1 0.495790 0.492270 0.384070 0.996021
H1    H     H_    0.950244 0.270318 0.563789 0.149379
H2    H     H_    0.787478 0.638319 0.432238 0.146119
H3    H     H_    0.486732 0.810193 0.350067 0.119266
H4    H     H_    0.507477 0.189655 0.650795 0.126706
H5    H     H_    0.510015 0.845584 0.722469 0.166404
H6    H     H_    0.496897 0.154676 0.277771 0.172738
H7    H     H_    0.491063 0.963657 0.259763 0.107090
H8    H     H_    0.512263 0.036368 0.740497 0.101395
H9    H     H_    0.341213 0.388620 0.935046 0.123510
H10   H     H_    0.280458 0.236580 0.827350 0.118601
H11   H     H_    0.320255 0.061602 0.779273 0.104863
H12   H     H_    0.055944 0.786078 0.510438 0.155419
H13   H     H_    0.421090 0.039065 0.837206 0.103664
H14   H     H_    0.482546 0.190385 0.944737 0.104510
H15   H     H_    0.524159 0.815708 0.036607 0.106217
H16   H     H_    0.591465 0.967528 0.118306 0.106271
H17   H     H_    0.692615 0.939699 0.170329 0.113647
H18   H     H_    0.726177 0.759205 0.143025 0.108692
H19   H     H_    0.659329 0.606607 0.061316 0.112976
H20   H     H_    0.026580 0.231627 0.745209 0.106912
H21   H     H_    0.073220 0.066290 0.753453 0.107815
H22   H     H_    0.134254 0.992579 0.598699 0.124600
H23   H     H_    0.451748 0.391566 0.786168 0.138270
H24   H     H_    0.148494 0.084467 0.434604 0.121372
H25   H     H_    0.101728 0.249265 0.424251 0.101161
H26   H     H_    0.990153 0.910875 0.664048 0.103099
H27   H     H_    0.943764 0.070985 0.631504 0.109038
H28   H     H_    0.873457 0.063467 0.463925 0.139583
H29   H     H_    0.849362 0.894915 0.327908 0.106651
H30   H     H_    0.895471 0.734109 0.358644 0.101864
H31   H     H_    0.372733 0.300835 0.387992 0.197010
H32   H     H_    0.386348 0.112391 0.377050 0.146518
H33   H     H_    0.329617 0.009097 0.491334 0.117486
H34   H     H_    0.543207 0.616170 0.213088 0.116038
H35   H     H_    0.256186 0.094297 0.611234 0.107894
H36   H     H_    0.240654 0.280699 0.618808 0.165934
H37   H     H_    0.629983 0.629286 0.300682 0.115857
H38   H     H_    0.586449 0.798884 0.296267 0.115655
H39   H     H_    0.617831 0.955818 0.444391 0.126739
H40   H     H_    0.688242 0.940586 0.605139 0.121319
H41   H     H_    0.727854 0.769666 0.616283 0.160321
H42   H     H_    0.239777 0.697035 0.590523 0.161185
H43   H     H_    0.778814 0.387428 0.628048 0.162154
H44   H     H_    0.339451 0.673427 0.553416 0.110292
H45   H     H_    0.675342 0.374196 0.595172 0.119841
H46   H     H_    0.200842 0.366158 0.466232 0.135718
N1    N     N_R   0.854262 0.516961 0.541619 -0.387323
N2    N     N_R   0.151765 0.542172 0.550727 -0.386539
N3    N     N_R   0.510550 0.519360 0.790130 -0.233406
N4    N     N_R   0.489450 0.480640 0.209870 -0.223985
O1    O     O_R   0.502990 0.354470 0.582000 -0.526399
O2    O     O_2   0.152525 0.397931 0.647277 -0.521483
O3    O     O_2   0.855466 0.331520 0.510810 -0.534906
O4    O     O_2   0.149208 0.703790 0.484616 -0.527796
O5    O     O_R   0.497010 0.645530 0.418000 -0.524039
O6    O     O_R   0.495870 0.341410 0.386200 -0.459532
O7    O     O_R   0.504130 0.658590 0.613800 -0.454265
O8    O     O_R   0.421440 0.506500 0.597920 -0.509124
O9    O     O_R   0.578560 0.493500 0.402080 -0.517229
O10   O     O_R   0.414320 0.493440 0.402120 -0.457239
O11   O     O_R   0.585680 0.506560 0.597880 -0.441941
O12   O     O_2   0.856911 0.701933 0.591963 -0.511218

loop_
_geom_bond_atom_site_label_1
_geom_bond_atom_site_label_2
_ccdc_geom_bond_type
C5    N2    S    
C66   C68   A    
Cu1   Cu2   S    
C52   H15   S    
C34   C56   A    
C23   C45   A    
Cu1   O8    S    
C1    C8    S    
C65   H26   S    
C14   C18   A    
C26   N3    A    
C42   C58   S    
C7    C13   A    
C81   C82   A    
C53   C54   A    
C15   C19   A    
C62   C63   A    
C47   H10   S    
C75   H35   S    
C22   Cl2   S    
C36   C37   A    
C17   O9    A    
C70   H30   S    
C83   H41   S    
C49   H13   S    
C71   C76   A    
C77   C83   A    
C53   H16   S    
C33   C36   A    
C56   C78   A    
C16   O8    A    
C18   C19   A    
C73   C74   A    
C69   H29   S    
C49   C50   A    
C60   H21   S    
C29   O12   S    
C46   C47   A    
C9    C19   A    
C68   C69   A    
C29   C38   A    
C45   C67   A    
C31   C33   A    
C51   C57   A    
C64   C70   A    
C40   H1    S    
C24   Cl1   S    
C9    H7    S    
Cu2   O5    S    
C32   O4    S    
C1    O1    A    
C40   C42   A    
C21   C27   A    
C67   C84   A    
C73   H32   S    
C81   H39   S    
C41   C43   A    
C61   C62   A    
Cu1   N3    S    
C61   H22   S    
C20   C44   S    
C44   C46   A    
C43   C64   S    
C56   H45   S    
C39   C42   A    
C4    H2    S    
C77   C79   A    
C7    C12   S    
C33   C40   A    
C30   O2    S    
C66   H27   S    
C55   H18   S    
C51   C52   A    
C76   H36   S    
C32   C35   A    
C4    C6    A    
C74   C75   A    
C32   N2    A    
C72   C73   A    
C20   C28   A    
C58   C59   A    
C6    C34   A    
C23   H42   S    
C13   H5    S    
C60   C61   A    
C12   O7    A    
C31   O3    S    
C2    C4    A    
C75   C76   A    
C6    N1    S    
C2    C78   A    
C47   C48   A    
C5    C23   A    
C10   H8    S    
C14   H4    S    
Cu2   O10   S    
C41   H12   S    
C62   H24   S    
C16   C67   S    
C9    C11   A    
C82   H40   S    
C68   H28   S    
C11   H6    S    
C31   N1    A    
C48   C49   A    
C29   N1    A    
C46   H9    S    
C20   C22   A    
C34   H43   S    
C50   H14   S    
C30   N2    A    
C55   C57   A    
C21   C51   S    
C52   C53   A    
C35   C37   A    
C71   C84   S    
C25   H34   S    
C44   C50   A    
C58   C63   A    
C48   H11   S    
C22   N4    A    
C54   C55   A    
C8    C14   A    
Cu1   O7    S    
C54   H17   S    
C57   H19   S    
C17   O11   A    
Cu1   O1    S    
C80   C81   A    
C3    C5    A    
C10   C13   A    
C24   N3    A    
C25   C27   A    
Cu2   N4    S    
C26   C28   A    
C59   H20   S    
C12   O5    A    
C16   O10   A    
C3    H46   S    
C64   C65   A    
C36   C38   A    
C25   N4    A    
C38   C43   A    
C37   C39   A    
C1    O6    A    
C80   H38   S    
C10   C18   A    
C8    C11   A    
C72   H31   S    
C7    C15   A    
C17   C78   S    
Cu2   O9    S    
C30   C39   A    
C65   C66   A    
C79   H37   S    
C69   C70   A    
C35   C41   A    
C15   H3    S    
C79   C80   A    
C63   H25   S    
C59   C60   A    
C74   H33   S    
C71   C72   A    
C45   H44   S    
C82   C83   A    
Cu1   O11   S    
C21   C24   A    
C3    C84   A    
C2    C77   S    
C26   H23   S    
Cu2   O6    S    
C27   C28   A    
