data_mof_unit_31809.cif
_audit_creation_date              2013-03-05T16:48:11-0500
_audit_creation_method            fapswitch 2.2
_symmetry_space_group_name_H-M    P1
_symmetry_Int_Tables_number       1
_space_group_crystal_system       triclinic
_cell_length_a                    10.796237
_cell_length_b                    12.372592
_cell_length_c                    13.265818
_cell_angle_alpha                 117.181139
_cell_angle_beta                  76.3421
_cell_angle_gamma                 101.480531
_cell_volume                      1523.2069931

loop_
_atom_site_label
_atom_site_type_symbol
_atom_site_description
_atom_site_fract_x
_atom_site_fract_y
_atom_site_fract_z
_atom_type_partial_charge
O1    O     O_R   0.536940 0.972510 0.318130 -0.581928
O2    O     O_R   0.487330 0.806530 0.359650 -0.596170
C1    C     C_R   0.514234 0.854855 0.286714 0.779119
O3    O     O_R   0.705160 0.082990 0.479250 -0.589313
O4    O     O_R   0.655550 0.917010 0.520760 -0.579646
C2    C     C_R   0.736999 0.001325 0.502170 0.797222
Cu1   Cu    Cu3+1 0.529370 0.098270 0.475420 0.938972
Cu2   Cu    Cu3+1 0.470630 0.901730 0.524580 0.936700
O5    O     O_R   0.512670 0.193470 0.640350 -0.584875
O6    O     O_R   0.463060 0.027490 0.681870 -0.585158
O7    O     O_R   0.344450 0.082990 0.479240 -0.595745
O8    O     O_R   0.294840 0.917010 0.520750 -0.594962
C3    C     C_R   0.481698 0.144923 0.713241 0.782272
C4    C     C_R   0.263104 0.998329 0.497349 0.773749
H1    H     H_    0.545095 0.790771 0.836771 0.152816
C5    C     C_R   0.639143 0.948999 0.811052 -0.113900
H2    H     H_    0.577330 0.011244 0.882216 0.127014
C6    C     C_R   0.735542 0.992659 0.743485 -0.100129
H3    H     H_    0.746832 0.088708 0.762489 0.107239
C7    C     C_R   0.814183 0.911740 0.649393 0.115624
C8    C     C_R   0.797680 0.787494 0.626167 -0.144262
H4    H     H_    0.856818 0.723731 0.553553 0.146541
C9    C     C_R   0.701143 0.744253 0.694002 -0.147408
H5    H     H_    0.687067 0.648042 0.674520 0.158506
C10   C     C_R   0.621090 0.824720 0.785545 -0.113187
C11   C     C_R   0.037205 0.951688 0.563672 -0.225820
H6    H     H_    0.066041 0.917431 0.615825 0.146400
C12   C     C_R   0.129449 0.996413 0.494208 -0.074185
C13   C     C_R   0.092467 0.043245 0.427693 -0.000040
C14   C     C_R   0.962987 0.046880 0.434827 -0.220329
H7    H     H_    0.933994 0.080919 0.382579 0.151614
C15   C     C_R   0.870787 0.002520 0.504556 -0.062954
C16   C     C_R   0.907815 0.955284 0.570702 0.013463
C17   C     C_R   0.198584 0.208991 0.367744 -0.176146
H8    H     H_    0.138333 0.272683 0.439242 0.122376
C18   C     C_R   0.291657 0.250979 0.296813 -0.151023
H9    H     H_    0.302294 0.346172 0.313134 0.137819
C19   C     C_R   0.372126 0.170534 0.205758 -0.110047
H10   H     H_    0.445006 0.203511 0.151740 0.148865
C20   C     C_R   0.358566 0.047562 0.184463 -0.120349
H11   H     H_    0.420826 0.985327 0.113793 0.124478
C21   C     C_R   0.265519 0.005105 0.255078 -0.083456
H12   H     H_    0.256952 0.909924 0.238591 0.104619
C22   C     C_R   0.185844 0.085981 0.348164 0.126920
C23   C     C_R   0.317960 0.282395 0.018843 -0.197523
H13   H     H_    0.315931 0.100867 0.883597 0.149318
H14   H     H_    0.236048 0.469609 0.211544 0.148283
H15   H     H_    0.241359 0.255887 0.075209 0.145719
C24   C     C_R   0.456154 0.227461 0.834850 -0.060689
C25   C     C_R   0.625353 0.809971 0.089745 -0.189275
C26   C     C_R   0.665279 0.727059 0.978146 -0.163890
C27   C     C_R   0.614808 0.605230 0.939379 -0.120871
C28   C     C_R   0.519177 0.563879 0.011562 0.112005
C29   C     C_R   0.471618 0.651076 0.122699 0.078702
C30   C     C_R   0.468930 0.439176 0.977310 0.101554
C31   C     C_R   0.368452 0.405019 0.051694 0.159268
C32   C     C_R   0.316151 0.493880 0.156189 -0.220973
C33   C     C_R   0.364874 0.615341 0.190065 -0.190134
C34   C     C_R   0.513908 0.347153 0.870460 -0.179373
C35   C     C_R   0.361366 0.193809 0.910486 -0.211436
C36   C     C_R   0.531962 0.772354 0.163849 -0.096919
H16   H     H_    0.590879 0.365967 0.810502 0.153443
H17   H     H_    0.672052 0.902597 0.119681 0.148858
H18   H     H_    0.652476 0.546763 0.852172 0.142649
H19   H     H_    0.739209 0.756585 0.922277 0.149355
H20   H     H_    0.316067 0.681054 0.269080 0.171240
C37   C     C_R   0.695717 0.336600 0.316312 -0.251117
H21   H     H_    0.717600 0.160241 0.299279 0.124916
H22   H     H_    0.774690 0.330386 0.247075 0.190271
N1    N     N_R   0.573890 0.246290 0.438210 -0.205725
C38   C     C_R   0.317749 0.755842 0.637385 0.083030
C39   C     C_R   0.263660 0.650524 0.650373 -0.263220
C40   C     C_R   0.325860 0.545061 0.589604 -0.107949
C41   C     C_R   0.448215 0.545715 0.521492 -0.003684
C42   C     C_R   0.492127 0.651326 0.501335 0.228948
C43   C     C_R   0.523937 0.443397 0.466779 -0.098365
C44   C     C_R   0.626077 0.439239 0.375543 0.014746
C45   C     C_R   0.660188 0.539919 0.348329 0.267698
C46   C     C_R   0.598346 0.645465 0.415016 -0.247949
C47   C     C_R   0.506039 0.346711 0.501189 0.174216
C48   C     C_R   0.665578 0.239926 0.346967 0.038753
N2    N     N_R   0.426890 0.754320 0.561170 -0.188870
H23   H     H_    0.267618 0.836816 0.682049 0.117996
H24   H     H_    0.273300 0.462884 0.593288 0.123058
H25   H     H_    0.171501 0.649386 0.704497 0.145064
H26   H     H_    0.632818 0.719497 0.392281 0.234862
N3    N     N_R   0.758967 0.537778 0.253596 0.116537
O9    O     O_R   0.843131 0.632378 0.266031 -0.377256
O10   O     O_R   0.750117 0.452562 0.150582 -0.378262
C49   C     C_2   0.428698 0.360999 0.613051 0.380522
H27   H     H_    0.348164 0.295067 0.618711 0.095501
O11   O     O_2   0.454188 0.448694 0.701066 -0.584327

loop_
_geom_bond_atom_site_label_1
_geom_bond_atom_site_label_2
_geom_bond_distance
_ccdc_geom_bond_type
C45   N3    1.437095 S    
C2    C15   1.449205 S    
N3    O9    1.301473 A    
C23   C35   1.390715 A    
C30   C34   1.400681 A    
C40   C41   1.414288 A    
C37   C44   1.408833 A    
C30   C31   1.421982 A    
Cu1   N1    2.047472 S    
C39   H25   1.082571 S    
C32   C33   1.384561 A    
Cu1   Cu2   2.716677 S    
C44   C45   1.408231 A    
Cu1   O7    1.958268 S    
O4    C2    1.299926 A    
C11   H6    1.085073 S    
C24   C35   1.398047 A    
C41   C43   1.445702 A    
Cu2   N2    2.035371 S    
H21   C48   1.081889 S    
C12   C13   1.413978 A    
C19   C20   1.397970 A    
C6    H3    1.083409 S    
C19   H10   1.082651 S    
O7    C4    1.300108 A    
H1    C10   1.082440 S    
C1    C36   1.464789 S    
C31   C32   1.390780 A    
C17   H8    1.083315 S    
C26   H19   1.082469 S    
N1    C48   1.352514 A    
O5    C3    1.305980 A    
C33   H20   1.080977 S    
C23   C31   1.402790 A    
C5    H2    1.082828 S    
C9    H5    1.082760 S    
C40   H24   1.077399 S    
C6    C7    1.406199 A    
C38   N2    1.356404 A    
C20   C21   1.399183 A    
C8    H4    1.083378 S    
C25   H17   1.083523 S    
C21   C22   1.406483 A    
O3    Cu1   1.958923 S    
C38   H23   1.081571 S    
C28   C30   1.422679 A    
C41   C42   1.420003 A    
N1    C47   1.379583 A    
C26   C27   1.389479 A    
C17   C22   1.405379 A    
C43   C44   1.420892 A    
O3    C2    1.303766 A    
C27   H18   1.075817 S    
C45   C46   1.395128 A    
C28   C29   1.418113 A    
O1    C1    1.305667 A    
C13   C14   1.386986 A    
H14   C32   1.084195 S    
C11   C16   1.386176 A    
C49   O11   1.221362 D    
Cu2   O8    1.958921 S    
C25   C26   1.384573 A    
C3    C24   1.455461 S    
C7    C16   1.483420 S    
C5    C6    1.398712 A    
C20   H11   1.082848 S    
O8    C4    1.303396 A    
C37   C48   1.388849 A    
C8    C9    1.399019 A    
C13   C22   1.484635 S    
C21   H12   1.083564 S    
C27   C28   1.419526 A    
C29   C33   1.412090 A    
C23   H15   1.083826 S    
C37   H22   1.080842 S    
C5    C10   1.397638 A    
Cu1   O5    1.936674 S    
C18   H9    1.082661 S    
C34   H16   1.075819 S    
H13   C35   1.083303 S    
O1    Cu1   1.945625 S    
O2    Cu2   1.936675 S    
C43   C47   1.428967 A    
C39   C40   1.391258 A    
O6    C3    1.302105 A    
O4    Cu2   1.958269 S    
C42   N2    1.385325 A    
C29   C36   1.415784 A    
C11   C12   1.400096 A    
C24   C34   1.391908 A    
C15   C16   1.413698 A    
C18   C19   1.398110 A    
O2    C1    1.305644 A    
C38   C39   1.386844 A    
C14   C15   1.399736 A    
C49   H27   1.081606 S    
C14   H7    1.085067 S    
C17   C18   1.399029 A    
C9    C10   1.398278 A    
C47   C49   1.471222 S    
C25   C36   1.400979 A    
C7    C8    1.404975 A    
Cu2   O6    1.945624 S    
N3    O10   1.301342 A    
C4    C12   1.448570 S    
C42   C46   1.403090 A    
C46   H26   1.064025 S    
