data_mof_unit_37415.cif
_audit_creation_date              2012-12-10T20:28:46-0500
_audit_creation_method            fapswitch 2.2
_symmetry_space_group_name_H-M    P1
_symmetry_Int_Tables_number       1
_space_group_crystal_system       triclinic
_cell_length_a                    10.741164
_cell_length_b                    10.707265
_cell_length_c                    9.86696
_cell_angle_alpha                 90.374862
_cell_angle_beta                  88.963003
_cell_angle_gamma                 91.99335
_cell_volume                      1133.89187411

loop_
_atom_site_label
_atom_site_type_symbol
_atom_type_description
_atom_site_fract_x
_atom_site_fract_y
_atom_site_fract_z
_atom_type_partial_charge
C1    C     C_R   0.499018 0.260257 0.499615 0.896140
C2    C     C_R   0.428887 0.933705 0.392649 0.484068
C3    C     C_R   0.484530 0.871261 0.500644 -0.247692
C4    C     C_R   0.259577 0.506844 0.502181 0.873391
C5    C     C_R   0.526889 0.937947 0.612710 0.046980
C6    C     C_3   0.648768 0.933311 0.682368 -0.446529
C7    C     C_3   0.653013 0.075026 0.680900 -0.496545
C8    C     C_R   0.397398 0.459072 0.072988 0.124282
C9    C     C_R   0.594162 0.557325 0.071778 -0.320119
C10   C     C_R   0.594375 0.560962 0.925327 0.524696
C11   C     C_R   0.397891 0.457718 0.931490 0.012652
C12   C     C_R   0.056092 0.489919 0.630133 0.096050
C13   C     C_3   0.329538 0.333729 0.927942 0.360281
C14   C     C_3   0.331122 0.335073 0.082518 -0.531498
C15   C     C_R   0.496583 0.739733 0.499995 0.921479
C16   C     C_R   0.738755 0.486996 0.498995 0.865833
C17   C     C_R   0.102544 0.512613 0.761970 -0.186315
C18   C     C_R   0.036550 0.468861 0.876440 -0.208347
C19   C     C_R   0.925615 0.400012 0.861337 -0.132859
C20   C     C_R   0.872621 0.389807 0.733932 -0.107435
C21   C     C_R   0.932337 0.446849 0.619908 0.084172
C22   C     C_3   0.782790 0.682113 0.923310 0.070496
C23   C     C_R   0.125324 0.510296 0.507489 -0.119253
C24   C     C_3   0.880595 0.742848 0.828682 -0.792027
C25   C     C_3   0.318350 0.138388 0.832703 -0.307783
C26   C     C_3   0.455658 0.856749 0.176782 0.160122
C27   C     C_3   0.424490 0.945005 0.063640 -0.906373
C28   C     C_R   0.064787 0.514811 0.383318 -0.209611
C29   C     C_R   0.937771 0.499586 0.379385 -0.223914
C30   C     C_R   0.870795 0.469606 0.497894 -0.134031
C31   C     C_R   0.531015 0.065066 0.611280 0.178057
C32   C     C_R   0.489383 0.128449 0.499985 -0.183587
C33   C     C_R   0.428984 0.063560 0.395186 -0.314432
H1    H     H_    0.115182 0.532754 0.288888 0.169418
H2    H     H_    0.073345 0.485654 0.976626 0.126884
H3    H     H_    0.877289 0.360542 0.949139 0.130153
H4    H     H_    0.784157 0.339092 0.725775 0.144234
H5    H     H_    0.892113 0.514025 0.283954 0.161748
H6    H     H_    0.385684 0.113023 0.314256 0.180021
H7    H     H_    0.637759 0.893802 0.785876 0.222179
H8    H     H_    0.829998 0.610614 0.983182 0.145315
H9    H     H_    0.746507 0.756129 0.991666 0.117306
H10   H     H_    0.853155 0.837450 0.799528 0.224305
H11   H     H_    0.971085 0.752745 0.881088 0.205871
H12   H     H_    0.722062 0.891366 0.617217 0.203103
H13   H     H_    0.893123 0.685578 0.735772 0.280656
H14   H     H_    0.272003 0.162060 0.736779 0.170410
H15   H     H_    0.247073 0.114766 0.912853 0.149617
H16   H     H_    0.371555 0.053325 0.814680 0.195692
H17   H     H_    0.443846 0.760174 0.136584 0.178294
H18   H     H_    0.556073 0.870320 0.202970 0.114130
H19   H     H_    0.445177 0.043218 0.094170 0.264903
H20   H     H_    0.481888 0.923567 0.972327 0.217015
H21   H     H_    0.324428 0.932732 0.038613 0.260739
H22   H     H_    0.644442 0.117452 0.783646 0.230504
H23   H     H_    0.729020 0.115916 0.615280 0.183740
H24   H     H_    0.667850 0.600478 0.130525 0.139180
H25   H     H_    0.235461 0.341793 0.885381 0.088980
H26   H     H_    0.236783 0.341839 0.129574 0.155688
H27   H     H_    0.389964 0.263141 0.126951 0.224340
H28   H     H_    0.186431 0.568146 0.779760 0.163432
N1    N     N_R   0.499160 0.499140 0.142800 -0.099716
N2    N     N_R   0.499160 0.499180 0.857150 -0.121280
O1    O     O_R   0.500020 0.316790 0.614690 -0.574964
O2    O     O_3   0.400772 0.237183 0.872149 -0.561177
O3    O     O_3   0.371256 0.869060 0.287823 -0.608022
O4    O     O_R   0.500000 0.316760 0.385350 -0.626049
O5    O     O_R   0.316770 0.500020 0.614690 -0.645259
O6    O     O_R   0.316760 0.499980 0.385350 -0.609635
O7    O     O_R   0.500000 0.683240 0.614650 -0.592770
O8    O     O_R   0.499980 0.683210 0.385310 -0.614499
O9    O     O_R   0.683240 0.500020 0.614650 -0.569221
O10   O     O_R   0.683230 0.499980 0.385310 -0.632358
O11   O     O_3   0.685177 0.625836 0.847257 -0.575666
Zn1   Zn    Zn3+2 0.500010 0.500020 0.653130 1.006668
Zn2   Zn    Zn3+2 0.499990 0.499980 0.346870 0.945745

loop_
_geom_bond_atom_site_label_1
_geom_bond_atom_site_label_2
_ccdc_geom_bond_type
C6    H12   S    
C11   C13   S    
C19   C20   A    
C16   O9    A    
C7    H22   S    
C27   H21   S    
C13   O2    S    
O5    Zn1   S    
C14   H26   S    
C12   C23   A    
C26   C27   S    
C33   H6    S    
C28   C29   A    
C11   N2    A    
C19   H3    S    
C26   H17   S    
C5    C6    S    
C22   H8    S    
C16   C30   S    
O6    Zn2   S    
C18   C19   A    
C17   H28   S    
C10   N2    A    
C12   C17   A    
C9    C10   A    
C25   H14   S    
C9    H24   S    
C28   H1    S    
C13   C14   S    
N1    Zn2   S    
C7    H23   S    
O9    Zn1   S    
C4    O6    A    
C7    C31   S    
C9    N1    A    
C26   O3    S    
C25   O2    S    
C4    O5    A    
C4    C23   S    
C13   H25   S    
C3    C5    A    
C12   C21   A    
C1    C32   S    
C16   O10   A    
C29   H5    S    
C29   C30   A    
C31   C32   A    
C17   C18   A    
C23   C28   A    
C25   H15   S    
C2    C33   A    
C24   H11   S    
O10   Zn2   S    
C22   C24   S    
C22   O11   S    
C1    O1    A    
O8    Zn2   S    
C3    C15   S    
C27   H19   S    
C18   H2    S    
C14   H27   S    
C15   O7    A    
C8    C14   S    
C2    O3    S    
C27   H20   S    
C6    C7    S    
C15   O8    A    
C21   C30   A    
C24   H13   S    
C32   C33   A    
C2    C3    A    
C26   H18   S    
C20   H4    S    
C10   O11   S    
C22   H9    S    
N2    Zn1   S    
C8    C11   A    
C1    O4    A    
O1    Zn1   S    
C6    H7    S    
C25   H16   S    
C20   C21   A    
O7    Zn1   S    
C24   H10   S    
O4    Zn2   S    
C8    N1    A    
C5    C31   A    
