data_mof_unit_25917.cif
_audit_creation_date              2012-12-10T18:31:53-0500
_audit_creation_method            fapswitch 2.2
_symmetry_space_group_name_H-M    P1
_symmetry_Int_Tables_number       1
_space_group_crystal_system       triclinic
_cell_length_a                    10.634936
_cell_length_b                    14.931086
_cell_length_c                    15.502764
_cell_angle_alpha                 82.384989
_cell_angle_beta                  89.582573
_cell_angle_gamma                 104.037508
_cell_volume                      2365.13568411

loop_
_atom_site_label
_atom_site_type_symbol
_atom_type_description
_atom_site_fract_x
_atom_site_fract_y
_atom_site_fract_z
_atom_type_partial_charge
C1    C     C_R   0.478420 0.441826 0.662155 0.877568
C2    C     C_3   0.121341 0.500345 0.499885 0.174181
C3    C     C_3   0.067677 0.484259 0.409146 -0.404647
C4    C     C_3   0.103677 0.595927 0.520749 -0.381052
C5    C     C_R   0.446651 0.407363 0.754318 -0.078628
C6    C     C_R   0.505779 0.592109 0.245965 -0.063840
C7    C     C_R   0.365938 0.283609 0.873156 -0.193282
C8    C     C_R   0.401402 0.312230 0.785157 -0.149581
C9    C     C_R   0.452707 0.473092 0.811169 -0.268819
C10   C     C_R   0.411629 0.446479 0.898289 0.093399
C11   C     C_R   0.373053 0.350065 0.930251 0.164618
C12   C     C_R   0.742176 0.500569 0.499997 0.835268
C13   C     C_R   0.417185 0.513683 0.955396 0.069624
C14   C     C_R   0.408825 0.483721 0.045883 0.069741
C15   C     C_R   0.365361 0.387209 0.076363 -0.228917
C16   C     C_R   0.345020 0.321582 0.018943 -0.226796
C17   C     C_R   0.432368 0.609681 0.925242 -0.232811
C18   C     C_R   0.453725 0.675288 0.982744 -0.235173
C19   C     C_R   0.465834 0.647513 0.071009 0.175115
C20   C     C_R   0.445655 0.551458 0.102696 0.092097
C21   C     C_R   0.500354 0.714408 0.127942 -0.202950
C22   C     C_R   0.518995 0.686699 0.215484 -0.203794
C23   C     C_R   0.515683 0.558124 0.337867 0.862159
C24   C     C_R   0.471525 0.526029 0.189172 -0.268478
C25   C     C_R   0.679920 0.839259 0.644703 -0.287995
C26   C     C_R   0.657921 0.752584 0.616586 0.012213
C27   C     C_R   0.510825 0.793197 0.513007 -0.046244
C28   C     C_R   0.527675 0.882235 0.539198 -0.007615
C29   C     C_R   0.613988 0.904119 0.606782 0.101736
C30   C     C_R   0.461782 0.949221 0.501470 0.039536
C31   C     C_R   0.489159 0.039402 0.528739 0.001025
C32   C     C_R   0.563494 0.053904 0.604089 0.329398
C33   C     C_R   0.628567 0.988267 0.639364 -0.239431
C34   C     C_R   0.257878 0.499841 0.499879 0.824287
C35   C     C_R   0.367057 0.928183 0.438988 -0.207684
C36   C     C_R   0.303309 0.993648 0.402478 -0.204054
C37   C     C_R   0.336975 0.084937 0.422090 0.083443
C38   C     C_R   0.437016 0.109662 0.481234 -0.004718
C39   C     C_R   0.275401 0.152732 0.381552 0.124454
C40   C     C_R   0.323080 0.245177 0.396748 -0.040446
C41   C     C_R   0.485842 0.204892 0.486579 -0.026226
C42   C     C_3   0.900512 0.422752 0.570196 -0.380742
C43   C     C_3   0.044722 0.422139 0.569964 -0.399849
C44   C     C_3   0.923492 0.484990 0.409196 -0.395007
C45   C     C_3   0.961036 0.596400 0.520903 -0.395254
C46   C     C_3   0.878972 0.501312 0.500096 0.163334
H1    H     H_    0.842043 0.353607 0.557076 0.195370
H2    H     H_    0.158262 0.653622 0.471335 0.171397
H3    H     H_    0.908281 0.540953 0.358301 0.159138
H4    H     H_    0.122831 0.539824 0.358193 0.160083
H5    H     H_    0.312574 0.248229 0.044483 0.152978
H6    H     H_    0.469157 0.454438 0.212856 0.163400
H7    H     H_    0.543839 0.738889 0.258945 0.157495
H8    H     H_    0.465877 0.748268 0.957527 0.152279
H9    H     H_    0.334216 0.209748 0.896712 0.150307
H10   H     H_    0.393842 0.260321 0.741631 0.209509
H11   H     H_    0.494063 0.545483 0.787068 0.163726
H12   H     H_    0.868696 0.433697 0.635746 0.166546
H13   H     H_    0.343557 0.360820 0.144359 0.140303
H14   H     H_    0.424919 0.635576 0.857548 0.152259
H15   H     H_    0.513769 0.787935 0.104628 0.139688
H16   H     H_    0.686614 0.001391 0.695701 0.183499
H17   H     H_    0.572591 0.230720 0.520112 0.187177
H18   H     H_    0.277876 0.299662 0.370219 0.151437
H19   H     H_    0.231065 0.972571 0.355514 0.148158
H20   H     H_    0.745586 0.854700 0.696880 0.145860
H21   H     H_    0.705484 0.700833 0.646892 0.128480
H22   H     H_    0.447811 0.769766 0.462313 0.120040
H23   H     H_    0.083264 0.432744 0.635415 0.163378
H24   H     H_    0.336592 0.860501 0.418260 0.127719
H25   H     H_    0.055342 0.352867 0.556499 0.186297
H26   H     H_    0.865599 0.417291 0.392340 0.182500
H27   H     H_    0.078732 0.416187 0.392535 0.174838
H28   H     H_    0.946946 0.654140 0.471517 0.179743
H29   H     H_    0.930768 0.609941 0.585924 0.175443
H30   H     H_    0.141966 0.609476 0.585728 0.182418
N1    N     N_R   0.573860 0.731700 0.552730 -0.101340
N2    N     N_R   0.426060 0.268290 0.447230 -0.129600
O1    O     O_R   0.462770 0.383110 0.605620 -0.587373
O2    O     O_R   0.510160 0.531900 0.639510 -0.626164
O3    O     O_R   0.661510 0.425600 0.483070 -0.621945
O4    O     O_R   0.708900 0.574390 0.516960 -0.628312
O5    O     O_R   0.489840 0.468100 0.360490 -0.622176
O6    O     O_R   0.537230 0.616890 0.394380 -0.618469
O7    O     O_R   0.291100 0.425610 0.483040 -0.629710
O8    O     O_R   0.338490 0.574400 0.516930 -0.629730
Zn1   Zn    Zn3+2 0.468350 0.400660 0.477370 0.948292
Zn2   Zn    Zn3+2 0.531650 0.599340 0.522630 0.928146
Cl1   Cl    Cl    0.557592 0.140694 0.670260 -0.696797
N3    N     N_2   0.164961 0.126101 0.329545 -0.307574
H31   H     H_    0.096089 0.067880 0.357171 0.227109
C47   C     C_3   0.109969 0.196766 0.282088 -0.815891
H32   H     H_    0.033579 0.163518 0.239877 0.248193
H33   H     H_    0.185675 0.248138 0.239544 0.240257
H34   H     H_    0.065091 0.232227 0.328103 0.232458

loop_
_geom_bond_atom_site_label_1
_geom_bond_atom_site_label_2
_ccdc_geom_bond_type
N2    Zn1   S    
C24   H6    S    
O5    Zn1   S    
C19   C20   A    
C16   H5    S    
C7    H9    S    
C42   H12   S    
O1    Zn1   S    
C7    C8    A    
C45   C46   S    
C7    C11   A    
C23   O5    A    
C30   C35   A    
C1    C5    S    
C26   H21   S    
C36   C37   A    
C19   C21   A    
C42   C46   S    
C30   C31   A    
O8    Zn2   S    
C15   C16   A    
C6    C22   A    
C29   C33   A    
C18   C19   A    
C34   O8    A    
C20   C24   A    
C27   H22   S    
C31   C32   A    
C35   H24   S    
C33   H16   S    
C9    C10   A    
C39   N3    S    
C21   H15   S    
C2    C34   S    
C43   H23   S    
C21   C22   A    
C8    H10   S    
C3    H4    S    
C44   C46   S    
C22   H7    S    
C4    C45   S    
O7    Zn1   S    
C25   C29   A    
C3    C44   S    
C26   N1    A    
C23   O6    A    
C14   C20   A    
N1    Zn2   S    
C38   C41   A    
C12   C46   S    
C41   N2    A    
C36   H19   S    
C25   C26   A    
C44   H3    S    
C45   H28   S    
C34   O7    A    
C2    C4    S    
C5    C9    A    
C37   C38   A    
C11   C16   A    
N3    C47   S    
C32   Cl1   S    
C2    C43   S    
C6    C24   A    
C47   H33   S    
C17   C18   A    
C12   O4    A    
O3    Zn1   S    
C1    O1    A    
C40   N2    A    
C42   C43   S    
C41   H17   S    
C39   C40   A    
C4    H2    S    
C28   C29   A    
C43   H25   S    
C15   H13   S    
C25   H20   S    
O6    Zn2   S    
C27   N1    A    
C10   C13   A    
C5    C8    A    
C40   H18   S    
C31   C38   A    
C13   C17   A    
C45   H29   S    
C32   C33   A    
C28   C30   A    
C2    C3    S    
O2    Zn2   S    
N3    H31   S    
O4    Zn2   S    
C6    C23   S    
C47   H32   S    
C12   O3    A    
C44   H26   S    
C9    H11   S    
C42   H1    S    
C47   H34   S    
C3    H27   S    
C4    H30   S    
C10   C11   A    
C18   H8    S    
C17   H14   S    
C37   C39   A    
C27   C28   A    
C1    O2    A    
C14   C15   A    
C35   C36   A    
C13   C14   A    
