data_mof_unit_39362.cif
_audit_creation_date              2013-03-05T16:30:50-0500
_audit_creation_method            fapswitch 2.2
_symmetry_space_group_name_H-M    P1
_symmetry_Int_Tables_number       1
_space_group_crystal_system       triclinic
_cell_length_a                    11.043531
_cell_length_b                    10.876975
_cell_length_c                    9.553841
_cell_angle_alpha                 89.925157
_cell_angle_beta                  102.499503
_cell_angle_gamma                 90.541154
_cell_volume                      1120.3583291

loop_
_atom_site_label
_atom_site_type_symbol
_atom_site_description
_atom_site_fract_x
_atom_site_fract_y
_atom_site_fract_z
_atom_type_partial_charge
O1    O     O_R   0.500000 0.319640 0.618810 -0.582651
O2    O     O_R   0.500010 0.319680 0.381230 -0.592621
C1    C     C_R   0.499502 0.262905 0.499745 0.835243
O3    O     O_R   0.320680 0.500000 0.575130 -0.582279
O4    O     O_R   0.320690 0.500040 0.337550 -0.595162
C2    C     C_R   0.262893 0.499541 0.442056 0.851432
Cu1   Cu    Cu3+1 0.499990 0.499980 0.640670 0.935566
Cu2   Cu    Cu3+1 0.500010 0.500020 0.359330 0.941382
O5    O     O_R   0.499990 0.680320 0.618770 -0.575935
O6    O     O_R   0.500000 0.680360 0.381190 -0.544358
O7    O     O_R   0.679310 0.499960 0.662450 -0.604949
O8    O     O_R   0.679320 0.500000 0.424870 -0.572474
C3    C     C_R   0.498090 0.737415 0.498723 0.820923
C4    C     C_R   0.737140 0.499236 0.558172 0.846022
H1    H     H_    0.884500 0.477274 0.376243 0.171894
H2    H     H_    0.117584 0.501669 0.628457 0.180436
C5    C     C_2   0.128080 0.496236 0.410045 -0.356459
C6    C     C_2   0.067807 0.496417 0.517108 -0.154499
H3    H     H_    0.921464 0.510743 0.702625 0.134884
C7    C     C_2   0.872077 0.500145 0.591715 -0.370666
C8    C     C_2   0.933440 0.490074 0.486532 -0.139823
H4    H     H_    0.077866 0.492370 0.298849 0.144128
C9    C     C_R   0.480191 0.061743 0.612659 0.129150
C10   C     C_R   0.498114 0.130649 0.497016 -0.162451
C11   C     C_R   0.512752 0.066645 0.373735 -0.318408
H5    H     H_    0.528837 0.116298 0.280994 0.174400
C12   C     C_R   0.506531 0.937118 0.368681 0.448128
C13   C     C_R   0.495137 0.870429 0.493703 -0.206407
C14   C     C_R   0.479011 0.938039 0.611029 0.068314
C15   C     C_3   0.453463 0.928299 0.757173 -0.459996
C16   C     C_3   0.455135 0.069737 0.759264 -0.480518
H6    H     H_    0.360657 0.887303 0.755833 0.192103
H7    H     H_    0.531811 0.887386 0.834545 0.247898
H8    H     H_    0.363153 0.110395 0.759139 0.190456
H9    H     H_    0.534649 0.109903 0.838035 0.203345
C17   C     C_R   0.558739 0.591778 0.088146 0.222727
N1    N     N_R   0.500780 0.500930 0.148120 -0.193255
C18   C     C_R   0.432392 0.416142 0.057593 -0.087906
H10   H     H_    0.379538 0.346736 0.100186 0.138569
C19   C     C_R   0.432542 0.416000 0.908820 -0.090542
H11   H     H_    0.379785 0.346544 0.840024 0.140240
N2    N     N_R   0.500790 0.500890 0.852210 -0.214103
C20   C     C_R   0.557824 0.592930 0.940543 0.220051
C21   C     C_3   0.692429 0.627778 0.968203 0.208158
C22   C     C_3   0.693293 0.623224 0.127237 -0.482822
H12   H     H_    0.751149 0.555427 0.934133 0.088567
H13   H     H_    0.749552 0.546325 0.181780 0.153416
H14   H     H_    0.711014 0.713502 0.182750 0.242723
O9    O     O_3   0.709132 0.750279 0.925269 -0.605480
C23   C     C_3   0.796620 0.755963 0.837548 0.083636
H15   H     H_    0.756242 0.714009 0.731835 0.168124
H16   H     H_    0.884057 0.708188 0.888393 0.121291
C24   C     C_3   0.827897 0.890454 0.813823 -0.337627
H17   H     H_    0.741173 0.941984 0.772126 0.230898
H18   H     H_    0.875246 0.932126 0.917716 0.222866
C25   C     C_3   0.911898 0.902112 0.706817 -0.926903
H19   H     H_    0.999084 0.850453 0.745055 0.260510
H20   H     H_    0.935552 0.000430 0.694615 0.259181
H21   H     H_    0.863750 0.865737 0.600439 0.261818
O10   O     O_3   0.520151 0.876080 0.245813 -0.596584
C26   C     C_3   0.416002 0.896162 0.132374 0.062902
H22   H     H_    0.442263 0.866087 0.032600 0.173786
H23   H     H_    0.391361 0.995046 0.117524 0.126214
C27   C     C_3   0.302927 0.818840 0.149482 -0.341698
H24   H     H_    0.327513 0.719942 0.156034 0.249988
H25   H     H_    0.273784 0.845348 0.249443 0.203291
C28   C     C_3   0.193903 0.836880 0.022661 -0.950125
H26   H     H_    0.166450 0.935040 0.013232 0.262224
H27   H     H_    0.113385 0.780913 0.038694 0.259192
H28   H     H_    0.219127 0.806929 0.921661 0.250625

loop_
_geom_bond_atom_site_label_1
_geom_bond_atom_site_label_2
_geom_bond_distance
_ccdc_geom_bond_type
C21   O9    1.415754 S    
O4    Cu2   1.945925 S    
C23   H16   1.115435 S    
C9    C10   1.382486 A    
C3    C13   1.447970 S    
C14   C15   1.486559 S    
C11   C12   1.410267 A    
C6    C8    1.449990 S    
Cu1   O7    1.945927 S    
H3    C7    1.087432 S    
C25   H21   1.111457 S    
Cu2   O8    1.943353 S    
C20   C21   1.497606 S    
C28   H28   1.110722 S    
C27   H24   1.110311 S    
O9    C23   1.410292 S    
C22   H13   1.107108 S    
C5    C6    1.335687 D    
C16   H8    1.111483 S    
Cu1   Cu2   2.687926 S    
C21   H12   1.116889 S    
C24   H17   1.111081 S    
C7    C8    1.333235 D    
C26   C27   1.536735 S    
C18   C19   1.421712 A    
C13   C14   1.385641 A    
C1    C10   1.438697 S    
C26   H22   1.105449 S    
O10   C26   1.417653 S    
O3    Cu1   1.943352 S    
C17   C22   1.488302 S    
O4    C2    1.296177 A    
C9    C14   1.345550 A    
C10   C11   1.408797 A    
C19   H11   1.081389 S    
N1    C18   1.369348 A    
O8    C4    1.295293 A    
C23   H15   1.108840 S    
O2    C1    1.290072 A    
C12   O10   1.386251 S    
C24   H18   1.111813 S    
C15   C16   1.538463 S    
O7    C4    1.294597 A    
C16   H9    1.111694 S    
Cu1   N2    2.019161 S    
C23   C24   1.527778 S    
N2    C20   1.367980 A    
C28   H26   1.110868 S    
C15   H6    1.111372 S    
C27   C28   1.525958 S    
C4    C7    1.454805 S    
H1    C8    1.083607 S    
C18   H10   1.081616 S    
C25   H19   1.110709 S    
H2    C6    1.087922 S    
O3    C2    1.293218 A    
Cu2   N1    2.019734 S    
C24   C25   1.526350 S    
C28   H27   1.110508 S    
C12   C13   1.424687 A    
Cu1   O5    1.972410 S    
C2    C5    1.453732 S    
O5    C3    1.299796 A    
C9    C16   1.488105 S    
C17   N1    1.363732 A    
C17   C20   1.408057 A    
C22   H14   1.112037 S    
C15   H7    1.105732 S    
O1    C1    1.293783 A    
C11   H5    1.083210 S    
O1    Cu1   1.972915 S    
Cu2   O6    1.972916 S    
O2    Cu2   1.972409 S    
C21   C22   1.518095 S    
C5    H4    1.087443 S    
C25   H20   1.110415 S    
C19   N2    1.369357 A    
C26   H23   1.113301 S    
O6    C3    1.287936 A    
C27   H25   1.110983 S    
