data_mof_unit_37310.cif
_audit_creation_date              2012-10-26T21:04:54-0400
_audit_creation_method            fapswitch 2.2
_symmetry_space_group_name_H-M    P1
_symmetry_Int_Tables_number       1
_space_group_crystal_system       triclinic
_cell_length_a                    11.672385
_cell_length_b                    12.437673
_cell_length_c                    13.163056
_cell_angle_alpha                 117.263872
_cell_angle_beta                  76.116853
_cell_angle_gamma                 101.129284
_cell_volume                      1641.39049087

loop_
_atom_site_label
_atom_site_type_symbol
_atom_type_description
_atom_site_fract_x
_atom_site_fract_y
_atom_site_fract_z
_atom_type_partial_charge
C1    C     C_R   0.509644 0.854890 0.286291 0.546139
C2    C     C_R   0.318899 0.494832 0.167146 0.231650
C3    C     C_R   0.366512 0.615889 0.199262 -0.114752
C4    C     C_R   0.715593 0.000107 0.499919 0.563668
C5    C     C_R   0.510955 0.348057 0.877956 0.215369
C6    C     C_R   0.368425 0.192903 0.910689 -0.169041
C7    C     C_R   0.512413 0.771856 0.162131 -0.001393
C8    C     C_R   0.665967 0.323129 0.303562 -0.142600
C9    C     C_R   0.346971 0.766179 0.653829 0.058907
C10   C     C_R   0.313720 0.673536 0.690040 -0.029421
C11   C     C_R   0.370132 0.566626 0.629467 -0.117401
C12   C     C_R   0.458297 0.227926 0.837664 -0.021410
C13   C     C_R   0.460586 0.550500 0.532373 -0.055911
C14   C     C_R   0.493305 0.648226 0.498227 0.204561
C15   C     C_R   0.520854 0.441402 0.469377 -0.021848
C16   C     C_R   0.483505 0.145044 0.713945 0.524585
C17   C     C_R   0.604443 0.426716 0.367754 0.004652
C18   C     C_R   0.631907 0.517443 0.332222 -0.141416
C19   C     C_R   0.587194 0.629780 0.399233 0.275389
C20   C     C_R   0.503388 0.344982 0.502058 0.063397
C21   C     C_R   0.646224 0.233662 0.341248 0.053865
C22   C     C_R   0.284368 0.000155 0.500449 0.533152
C23   C     C_R   0.579426 0.810229 0.078788 -0.132891
C24   C     C_1   0.837474 0.000225 0.499846 -0.014305
C25   C     C_1   0.940069 0.000068 0.499915 -0.038025
C26   C     C_1   0.059911 0.999859 0.500115 -0.040457
C27   C     C_1   0.162503 0.999846 0.500310 -0.023083
C28   C     C_R   0.324492 0.277238 0.022282 0.003184
C29   C     C_3   0.218389 0.687844 0.793603 -0.416891
C30   C     C_3   0.232814 0.228048 0.097196 -0.330516
C31   C     C_R   0.594592 0.729656 0.961837 -0.148022
C32   C     C_R   0.551365 0.607948 0.927551 -0.061166
C33   C     C_R   0.489819 0.564575 0.010282 0.040612
C34   C     C_R   0.457127 0.650906 0.125429 -0.022888
C35   C     C_R   0.454712 0.439030 0.980575 0.010471
C36   C     C_R   0.364880 0.403336 0.057960 0.056777
Cu1   Cu    Cu3+1 0.526510 0.098270 0.475420 0.947367
Cu2   Cu    Cu3+1 0.473490 0.901730 0.524580 0.973733
H1    H     H_    0.330319 0.099106 0.879172 0.127243
H2    H     H_    0.326573 0.683831 0.280988 0.132867
H3    H     H_    0.692215 0.152486 0.292170 0.121229
H4    H     H_    0.182069 0.777282 0.832950 0.119615
H5    H     H_    0.144739 0.615161 0.767094 0.147225
H6    H     H_    0.255264 0.680612 0.860331 0.140660
H7    H     H_    0.705770 0.692824 0.299613 0.300954
H8    H     H_    0.208930 0.539987 0.315334 0.326509
H9    H     H_    0.263554 0.252466 0.179321 0.186983
H10   H     H_    0.146427 0.263686 0.115000 0.182702
H11   H     H_    0.217333 0.127308 0.054365 0.090424
H12   H     H_    0.698405 0.504288 0.255054 0.101391
H13   H     H_    0.661900 0.301798 0.773940 0.334520
H14   H     H_    0.730103 0.312185 0.225538 0.097035
H15   H     H_    0.440392 0.345609 0.576924 0.119378
H16   H     H_    0.303715 0.849254 0.700239 0.124450
H17   H     H_    0.340696 0.496996 0.659763 0.106734
H18   H     H_    0.620522 0.902548 0.104003 0.125850
H19   H     H_    0.562544 0.550185 0.835379 0.178020
H20   H     H_    0.642639 0.760927 0.897523 0.122546
N1    N     N_R   0.566700 0.246290 0.438210 -0.231157
N2    N     N_R   0.434010 0.754320 0.561170 -0.233963
O1    O     O_R   0.533340 0.972510 0.318140 -0.513858
O2    O     O_3   0.228105 0.466029 0.242532 -0.731148
O3    O     O_3   0.620996 0.376586 0.822707 -0.714752
O4    O     O_R   0.488570 0.806530 0.359650 -0.445981
O5    O     O_R   0.685190 0.083000 0.479260 -0.501382
O6    O     O_R   0.640410 0.917020 0.520770 -0.419301
O7    O     O_R   0.511430 0.193470 0.640350 -0.484674
O8    O     O_R   0.466660 0.027490 0.681860 -0.518430
O9    O     O_R   0.359590 0.082980 0.479230 -0.495956
O10   O     O_R   0.314810 0.917000 0.520740 -0.515482
O11   O     O_3   0.645046 0.721593 0.371111 -0.644292

loop_
_geom_bond_atom_site_label_1
_geom_bond_atom_site_label_2
_ccdc_geom_bond_type
Cu1   O1    S    
Cu2   O10   S    
Cu1   Cu2   S    
C16   O8    A    
Cu1   O9    S    
C29   H4    S    
H7    O11   S    
C14   N2    A    
C9    C10   A    
C8    H14   S    
C22   O9    A    
C19   O11   S    
C8    C17   A    
C9    N2    A    
C32   C33   A    
C28   C30   S    
C33   C34   A    
H13   O3    S    
C23   H18   S    
C16   O7    A    
C1    C7    S    
C13   C14   A    
C29   H5    S    
C20   N1    A    
C4    O6    A    
C11   C13   A    
C10   C29   S    
C18   H12   S    
C26   C27   T    
Cu1   N1    S    
C32   H19   S    
H8    O2    S    
C7    C23   A    
Cu1   O7    S    
C31   H20   S    
C30   H10   S    
C33   C35   A    
C30   H11   S    
Cu2   O8    S    
C3    H2    S    
C21   N1    A    
Cu2   O4    S    
C22   C27   S    
C13   C15   A    
C29   H6    S    
C6    C12   A    
C15   C20   A    
C4    C24   S    
C7    C34   A    
Cu2   N2    S    
C10   C11   A    
C1    O1    A    
C1    O4    A    
C5    C35   A    
C30   H9    S    
C28   C36   A    
C11   H17   S    
C24   C25   T    
C5    O3    S    
C5    C12   A    
C17   C18   A    
C18   C19   A    
C21   H3    S    
C2    C36   A    
C15   C17   A    
C8    C21   A    
Cu2   O6    S    
C4    O5    A    
C2    C3    A    
C9    H16   S    
C3    C34   A    
C25   C26   S    
C6    H1    S    
C2    O2    S    
C14   C19   A    
C22   O10   A    
C31   C32   A    
C6    C28   A    
C12   C16   S    
C23   C31   A    
C20   H15   S    
C35   C36   A    
Cu1   O5    S    
