data_mof_unit_17178.cif
_audit_creation_date              2013-03-05T16:03:59-0500
_audit_creation_method            fapswitch 2.2
_symmetry_space_group_name_H-M    P1
_symmetry_Int_Tables_number       1
_space_group_crystal_system       triclinic
_cell_length_a                    12.994043
_cell_length_b                    10.830969
_cell_length_c                    9.70082
_cell_angle_alpha                 90.069351
_cell_angle_beta                  96.521855
_cell_angle_gamma                 100.834061
_cell_volume                      1331.90582435

loop_
_atom_site_label
_atom_site_type_symbol
_atom_site_description
_atom_site_fract_x
_atom_site_fract_y
_atom_site_fract_z
_atom_type_partial_charge
O1    O     O_R   0.499990 0.319660 0.618740 -0.531781
O2    O     O_R   0.500010 0.680340 0.381260 -0.531687
O3    O     O_R   0.499990 0.319630 0.381170 -0.550276
O4    O     O_R   0.500010 0.680370 0.618830 -0.558967
C1    C     C_R   0.500893 0.262684 0.499918 0.835083
C2    C     C_R   0.498072 0.737074 0.499770 0.833440
O5    O     O_R   0.349000 0.499990 0.599490 -0.542300
O6    O     O_R   0.651000 0.500010 0.400510 -0.541599
O7    O     O_R   0.348990 0.499960 0.361920 -0.535126
O8    O     O_R   0.651010 0.500040 0.638080 -0.532371
C3    C     C_R   0.300997 0.501558 0.473630 0.863161
C4    C     C_R   0.698922 0.497933 0.526332 0.865010
Cu1   Cu    Cu3+1 0.500000 0.500020 0.640660 1.093015
Cu2   Cu    Cu3+1 0.500000 0.499980 0.359340 1.098339
C5    C     C_R   0.811399 0.494332 0.540852 -0.072266
C6    C     C_R   0.188321 0.503884 0.458878 -0.072242
C7    C     C_R   0.029204 0.536205 0.319735 -0.160589
C8    C     C_R   0.970262 0.460644 0.679621 -0.159228
C9    C     C_R   0.136182 0.531894 0.331447 -0.134903
C10   C     C_R   0.863314 0.465153 0.667928 -0.129653
C11   C     C_R   0.132709 0.480357 0.574765 -0.202186
C12   C     C_R   0.866974 0.517467 0.424892 -0.200492
C13   C     C_R   0.025842 0.484488 0.563993 0.142960
C14   C     C_R   0.973732 0.512806 0.435510 0.143365
H1    H     H_    0.990069 0.558411 0.220704 0.174997
H2    H     H_    0.009295 0.437979 0.778526 0.174082
C15   C     C_R   0.481853 0.059823 0.373538 -0.124900
C16   C     C_R   0.512634 0.939113 0.625047 -0.136400
H3    H     H_    0.468577 0.104840 0.275210 0.205786
H4    H     H_    0.523050 0.893593 0.723247 0.157574
C17   C     C_R   0.479955 0.931514 0.373615 -0.131653
C18   C     C_R   0.516206 0.067545 0.624986 -0.128042
H5    H     H_    0.464784 0.879989 0.275471 0.192646
H6    H     H_    0.532216 0.118963 0.723150 0.191961
C19   C     C_R   0.496475 0.870815 0.499421 -0.054423
C20   C     C_R   0.500130 0.128447 0.499379 -0.062054
C21   C     C_R   0.425861 0.413113 0.063575 0.315286
C22   C     C_R   0.574225 0.586951 0.936636 0.256997
C23   C     C_R   0.426512 0.412584 0.912977 0.326154
C24   C     C_R   0.573470 0.587306 0.087179 0.320485
N1    N     N_R   0.500030 0.500030 0.852080 -0.317147
N2    N     N_R   0.499970 0.499970 0.147920 -0.321835
H7    H     H_    0.827406 0.539143 0.325989 0.203376
H8    H     H_    0.172348 0.458867 0.673732 0.203028
H9    H     H_    0.821063 0.444044 0.757540 0.189805
H10   H     H_    0.178289 0.552244 0.241559 0.190192
S1    S     S_3+6 0.317113 0.307146 0.134752 0.078169
O9    O     O_2   0.320814 0.286649 0.286881 -0.278144
O10   O     O_2   0.218792 0.358910 0.093453 -0.288674
O11   O     O_3   0.300033 0.159336 0.071474 -0.460258
H11   H     H_    0.227828 0.119032 0.088953 0.387189
S2    S     S_3+6 0.684902 0.690284 0.866013 0.095139
O12   O     O_2   0.780230 0.631725 0.902261 -0.251705
O13   O     O_2   0.679418 0.713708 0.714243 -0.277160
O14   O     O_3   0.712361 0.837272 0.933558 -0.406981
H12   H     H_    0.654007 0.877829 0.893334 0.338315
S3    S     S_3+6 0.336680 0.284408 0.810728 0.074985
O15   O     O_2   0.378160 0.166653 0.846983 -0.279060
O16   O     O_2   0.227395 0.271862 0.851834 -0.244325
O17   O     O_3   0.313995 0.279653 0.637293 -0.508868
H13   H     H_    0.267134 0.197397 0.612587 0.366532
S4    S     S_3+6 0.664573 0.713782 0.189897 0.073638
O18   O     O_2   0.773846 0.721569 0.149963 -0.217140
O19   O     O_2   0.625927 0.833020 0.152030 -0.310105
O20   O     O_3   0.686052 0.720218 0.363438 -0.505627
H14   H     H_    0.731714 0.803167 0.387735 0.369461

loop_
_geom_bond_atom_site_label_1
_geom_bond_atom_site_label_2
_geom_bond_distance
_ccdc_geom_bond_type
O1    Cu1   1.964730 S    
C22   C24   1.461539 A    
O7    Cu2   1.965190 S    
C17   H5    1.082347 S    
C6    C11   1.402485 A    
C15   C20   1.401671 A    
C15   H3    1.082919 S    
C11   H8    1.083733 S    
C3    C6    1.459801 S    
C24   N2    1.394169 A    
C12   H7    1.083445 S    
C8    H2    1.083932 S    
C4    C5    1.460169 S    
Cu2   N2    2.050903 S    
C13   C14   1.411853 A    
C7    H1    1.083935 S    
O14   H12   0.989243 S    
C16   H4    1.079722 S    
O11   H11   0.990933 S    
C9    H10   1.082503 S    
S1    O10   1.503536 D    
Cu1   Cu2   2.729034 S    
S2    O12   1.502419 D    
O5    C3    1.308088 A    
O7    C3    1.311911 A    
S3    O15   1.502436 D    
O2    C2    1.307896 A    
O3    Cu2   1.965043 S    
O8    C4    1.312201 A    
C6    C9    1.402534 A    
O1    C1    1.309074 A    
C18   C20   1.399783 A    
C17   C19   1.401138 A    
Cu1   N1    2.050903 S    
C7    C9    1.391375 A    
S2    O14   1.679882 S    
S2    O13   1.490289 D    
O20   H14   0.990995 S    
S1    O11   1.679925 S    
C8    C10   1.391471 A    
C11   C13   1.389834 A    
C5    C10   1.402421 A    
O2    Cu2   1.964731 S    
C12   C14   1.389753 A    
S3    O16   1.500075 D    
C7    C14   1.400395 A    
C21   S1    1.845175 S    
C15   C17   1.385288 A    
C8    C13   1.400374 A    
C23   S3    1.843413 S    
C1    C20   1.452094 S    
C16   C18   1.383078 A    
C24   S4    1.841166 S    
C2    C19   1.452587 S    
C23   N1    1.395722 A    
C22   N1    1.402101 A    
C21   C23   1.461912 A    
O4    C2    1.308717 A    
C10   H9    1.082176 S    
C21   N2    1.400139 A    
C16   C19   1.399200 A    
C22   S2    1.846839 S    
S3    O17   1.673809 S    
S4    O19   1.502676 D    
O5    Cu1   1.957319 S    
O6    Cu2   1.957318 S    
S4    O20   1.674088 S    
O3    C1    1.307252 A    
C5    C12   1.402451 A    
S4    O18   1.501108 D    
O6    C4    1.307958 A    
O4    Cu1   1.965044 S    
O17   H13   0.992143 S    
S1    O9    1.489364 D    
O8    Cu1   1.965190 S    
C18   H6    1.081850 S    
