data_mof_unit_19275.cif
_audit_creation_date              2013-03-05T15:41:57-0500
_audit_creation_method            fapswitch 2.2
_symmetry_space_group_name_H-M    P1
_symmetry_Int_Tables_number       1
_space_group_crystal_system       triclinic
_cell_length_a                    25.082413
_cell_length_b                    16.746525
_cell_length_c                    15.729753
_cell_angle_alpha                 89.999715
_cell_angle_beta                  49.390393
_cell_angle_gamma                 90.001861
_cell_volume                      5015.91863295

loop_
_atom_site_label
_atom_site_type_symbol
_atom_site_description
_atom_site_fract_x
_atom_site_fract_y
_atom_site_fract_z
_atom_type_partial_charge
C1    C     C_R   0.358027 0.151677 0.742560 0.047048
C2    C     C_R   0.666065 0.889239 0.196529 0.041656
C3    C     C_R   0.641997 0.151663 0.257434 0.047220
C4    C     C_R   0.333934 0.889248 0.803488 0.041739
C5    C     C_R   0.858031 0.651680 0.742555 0.047166
C6    C     C_R   0.166068 0.389242 0.196530 0.041738
C7    C     C_R   0.141962 0.651690 0.257449 0.047015
C8    C     C_R   0.833922 0.389234 0.803448 0.041722
H1    H     H_    0.316511 0.171992 0.744623 0.195452
H2    H     H_    0.718970 0.894195 0.163975 0.211650
H3    H     H_    0.683485 0.171966 0.255443 0.195512
H4    H     H_    0.281027 0.894212 0.836059 0.211613
H5    H     H_    0.816512 0.671997 0.744627 0.195439
H6    H     H_    0.218970 0.394198 0.163983 0.211651
H7    H     H_    0.183489 0.672013 0.255356 0.195416
H8    H     H_    0.781029 0.394187 0.835958 0.211735
N1    N     N_R   0.389620 0.081040 0.705440 -0.061257
N2    N     N_R   0.610380 0.918960 0.294560 -0.069039
N3    N     N_R   0.610380 0.081040 0.294560 -0.061352
N4    N     N_R   0.389620 0.918960 0.705440 -0.069037
N5    N     N_R   0.889620 0.581040 0.705440 -0.061229
N6    N     N_R   0.110380 0.418960 0.294560 -0.069045
N7    N     N_R   0.110380 0.581040 0.294560 -0.061200
N8    N     N_R   0.889620 0.418960 0.705440 -0.069091
C9    C     C_R   0.614741 0.106793 0.591897 -0.191126
C10   C     C_R   0.411578 0.853033 0.405817 -0.168688
C11   C     C_R   0.385263 0.106804 0.408101 -0.191307
C12   C     C_R   0.588433 0.853044 0.594188 -0.168670
C13   C     C_R   0.114739 0.606800 0.591896 -0.191225
C14   C     C_R   0.911574 0.353036 0.405817 -0.168673
C15   C     C_R   0.885260 0.606798 0.408104 -0.191157
C16   C     C_R   0.088426 0.353041 0.594191 -0.168681
H9    H     H_    0.593038 0.106565 0.677945 0.141830
H10   H     H_    0.439608 0.838833 0.318997 0.152460
H11   H     H_    0.406967 0.106583 0.322053 0.141893
H12   H     H_    0.560404 0.838845 0.681009 0.152473
H13   H     H_    0.093039 0.606569 0.677943 0.141843
H14   H     H_    0.939608 0.338834 0.318996 0.152457
H15   H     H_    0.906960 0.606569 0.322058 0.141825
H16   H     H_    0.060390 0.338843 0.681015 0.152422
N9    N     N_R   0.582320 0.079840 0.556630 -0.074728
N10   N     N_R   0.417680 0.920160 0.443370 -0.079281
N11   N     N_R   0.417680 0.079840 0.443370 -0.074753
N12   N     N_R   0.582320 0.920160 0.556630 -0.079303
N13   N     N_R   0.082320 0.579840 0.556630 -0.074766
N14   N     N_R   0.917680 0.420160 0.443370 -0.079285
N15   N     N_R   0.917680 0.579840 0.443370 -0.074759
N16   N     N_R   0.082320 0.420160 0.556630 -0.079275
C17   C     C_R   0.690388 0.102693 0.406354 0.478456
C18   C     C_R   0.333035 0.854959 0.592675 0.469074
C19   C     C_R   0.309617 0.102708 0.593648 0.478412
C20   C     C_R   0.666979 0.854976 0.407329 0.469094
C21   C     C_R   0.190384 0.602711 0.406351 0.478394
C22   C     C_R   0.833020 0.354972 0.592675 0.469026
C23   C     C_R   0.809616 0.602705 0.593649 0.478410
C24   C     C_R   0.166976 0.354973 0.407331 0.469073
N17   N     N_R   0.627920 0.078930 0.443400 -0.105302
N18   N     N_R   0.372080 0.921070 0.556600 -0.098573
N19   N     N_R   0.372080 0.078930 0.556600 -0.105322
N20   N     N_R   0.627920 0.921070 0.443400 -0.098588
N21   N     N_R   0.127920 0.578930 0.443400 -0.105350
N22   N     N_R   0.872080 0.421070 0.556600 -0.098596
N23   N     N_R   0.872080 0.578930 0.556600 -0.105343
N24   N     N_R   0.127920 0.421070 0.443400 -0.098578
C25   C     C_R   0.554284 0.148684 0.254422 -0.017901
C26   C     C_R   0.422231 0.891177 0.803002 -0.028896
C27   C     C_R   0.445733 0.148656 0.745591 -0.017932
C28   C     C_R   0.577780 0.891171 0.196991 -0.028917
C29   C     C_R   0.054260 0.648645 0.254406 -0.018082
C30   C     C_R   0.922180 0.391174 0.803049 -0.029017
C31   C     C_R   0.945736 0.648652 0.745592 -0.018075
C32   C     C_R   0.077785 0.391175 0.196985 -0.028947
H17   H     H_    0.516370 0.166830 0.246584 0.125612
H18   H     H_    0.450758 0.894080 0.832751 0.127028
H19   H     H_    0.483623 0.166757 0.753504 0.125585
H20   H     H_    0.549259 0.894067 0.167229 0.127030
H21   H     H_    0.016382 0.666723 0.246457 0.125570
H22   H     H_    0.950682 0.394062 0.832843 0.126992
H23   H     H_    0.983621 0.666747 0.753518 0.125583
H24   H     H_    0.049267 0.394071 0.167218 0.127010
N25   N     N_R   0.555090 0.077730 0.294590 -0.063273
N26   N     N_R   0.444910 0.922270 0.705410 -0.065499
N27   N     N_R   0.444910 0.077730 0.705410 -0.063255
N28   N     N_R   0.555090 0.922270 0.294590 -0.065488
N29   N     N_R   0.055090 0.577730 0.294590 -0.063226
N30   N     N_R   0.944910 0.422270 0.705410 -0.065487
N31   N     N_R   0.944910 0.577730 0.705410 -0.063225
N32   N     N_R   0.055090 0.422270 0.294590 -0.065492
C33   C     C_R   0.392378 0.195763 0.767443 0.007747
C34   C     C_R   0.647651 0.870926 0.133495 0.011601
C35   C     C_R   0.607665 0.195778 0.232557 0.008058
C36   C     C_R   0.352360 0.870936 0.866511 0.011517
C37   C     C_R   0.892385 0.695763 0.767437 0.007573
C38   C     C_R   0.147659 0.370932 0.133488 0.011662
C39   C     C_R   0.107602 0.695763 0.232568 0.007545
C40   C     C_R   0.852294 0.370936 0.866532 0.011965
C41   C     C_R   0.682654 0.121395 0.498341 0.027233
C42   C     C_R   0.358705 0.810639 0.498643 0.038476
C43   C     C_R   0.317353 0.121417 0.501659 0.027219
C44   C     C_R   0.641312 0.810659 0.501363 0.038467
C45   C     C_R   0.182650 0.621413 0.498339 0.027180
C46   C     C_R   0.858695 0.310648 0.498644 0.038460
C47   C     C_R   0.817350 0.621410 0.501661 0.027205
C48   C     C_R   0.141307 0.310656 0.501367 0.038448
Ni1   Ni    Ni4+2 0.382970 0.000000 0.629840 0.320593
Ni2   Ni    Ni4+2 0.617030 1.000000 0.370160 0.320575
Ni3   Ni    Ni4+2 0.882970 0.500000 0.629840 0.320587
Ni4   Ni    Ni4+2 0.117030 0.500000 0.370160 0.320591
Ni5   Ni    Ni4+2 0.514540 0.000000 0.629840 0.227705
Ni6   Ni    Ni4+2 0.485460 1.000000 0.370160 0.227721
Ni7   Ni    Ni4+2 0.014540 0.500000 0.629840 0.227663
Ni8   Ni    Ni4+2 0.985460 0.500000 0.370160 0.227661
C49   C     C_3   0.284193 0.198152 0.397710 -0.221572
C50   C     C_3   0.662488 0.713584 0.610480 -0.214055
C51   C     C_3   0.715804 0.198148 0.602287 -0.221490
C52   C     C_3   0.337522 0.713575 0.389526 -0.214061
C53   C     C_3   0.784194 0.698145 0.397709 -0.221570
C54   C     C_3   0.162486 0.213583 0.610483 -0.214071
C55   C     C_3   0.215815 0.698125 0.602297 -0.221595
C56   C     C_3   0.837532 0.213549 0.389528 -0.214117
C57   C     C_3   0.753235 0.777452 0.462339 -0.223655
C58   C     C_3   0.193949 0.133105 0.546275 -0.202919
C59   C     C_3   0.246781 0.777436 0.537671 -0.223720
C60   C     C_3   0.806049 0.133081 0.453764 -0.202900
C61   C     C_3   0.253230 0.277457 0.462345 -0.223760
C62   C     C_3   0.693946 0.633105 0.546277 -0.202890
C63   C     C_3   0.746787 0.277442 0.537622 -0.223674
C64   C     C_3   0.306057 0.633092 0.453724 -0.202988
H25   H     H_    0.777072 0.837585 0.430103 0.215553
H26   H     H_    0.171595 0.072610 0.579435 0.214433
H27   H     H_    0.222948 0.837567 0.569912 0.215537
H28   H     H_    0.828394 0.072581 0.420634 0.214452
H29   H     H_    0.277064 0.337591 0.430113 0.215508
H30   H     H_    0.671589 0.572611 0.579440 0.214445
H31   H     H_    0.722960 0.337581 0.569823 0.215546
H32   H     H_    0.328408 0.572599 0.420557 0.214386
H33   H     H_    0.334030 0.191658 0.310064 0.197602
H34   H     H_    0.612279 0.720593 0.697643 0.207140
H35   H     H_    0.665959 0.191668 0.689929 0.197642
H36   H     H_    0.387731 0.720587 0.302363 0.207119
H37   H     H_    0.834030 0.691648 0.310063 0.197594
H38   H     H_    0.112277 0.220588 0.697645 0.207079
H39   H     H_    0.165978 0.691624 0.689943 0.197579
H40   H     H_    0.887750 0.220542 0.302371 0.207125
C65   C     C_3   0.680918 0.750748 0.504921 -0.056080
C66   C     C_3   0.266199 0.161028 0.502849 -0.067430
C67   C     C_3   0.319096 0.750726 0.495087 -0.056010
C68   C     C_3   0.733810 0.161005 0.497151 -0.067525
C69   C     C_3   0.180914 0.250747 0.504925 -0.056014
C70   C     C_3   0.766198 0.661022 0.502849 -0.067463
C71   C     C_3   0.819091 0.250733 0.495083 -0.056081
C72   C     C_3   0.233808 0.661015 0.497153 -0.067381
C73   C     C_3   0.211289 0.172085 0.441460 0.580617
C74   C     C_3   0.735231 0.739761 0.566410 0.548794
C75   C     C_3   0.788698 0.172079 0.558577 0.580635
C76   C     C_3   0.264781 0.739758 0.433598 0.548809
C77   C     C_3   0.711288 0.672083 0.441460 0.580587
C78   C     C_3   0.235228 0.239765 0.566414 0.548804
C79   C     C_3   0.288719 0.672057 0.558543 0.580607
C80   C     C_3   0.764801 0.239732 0.433557 0.548820
C81   C     C_2   0.627174 0.278071 0.192330 0.185348
C82   C     C_2   0.303996 0.839440 0.981515 0.208490
C83   C     C_2   0.372812 0.277972 0.807961 0.185953
C84   C     C_2   0.696034 0.839417 0.018498 0.208340
C85   C     C_2   0.127192 0.777937 0.191921 0.186114
C86   C     C_2   0.803835 0.339458 0.981562 0.207630
C87   C     C_2   0.872808 0.777958 0.808000 0.185986
C88   C     C_2   0.196052 0.339432 0.018485 0.208225
C89   C     C_2   0.685910 0.287711 0.084733 0.271585
C90   C     C_2   0.234529 0.855636 0.045923 0.267656
C91   C     C_2   0.313876 0.287448 0.915419 0.271109
C92   C     C_2   0.765499 0.855658 0.954081 0.267838
C93   C     C_2   0.186217 0.787348 0.084521 0.270950
C94   C     C_2   0.734386 0.355857 0.045992 0.268645
C95   C     C_2   0.813847 0.787406 0.915443 0.271153
C96   C     C_2   0.265516 0.355690 0.954067 0.267971
Cl1   Cl    Cl    0.770141 0.084198 0.270972 -0.503589
Cl2   Cl    Cl    0.248909 0.843843 0.724471 -0.570586
Cl3   Cl    Cl    0.229862 0.084232 0.729038 -0.503563
Cl4   Cl    Cl    0.751114 0.843887 0.275543 -0.570475
Cl5   Cl    Cl    0.270137 0.584247 0.270957 -0.503503
Cl6   Cl    Cl    0.748863 0.343903 0.724434 -0.570160
Cl7   Cl    Cl    0.729863 0.584231 0.729042 -0.503466
Cl8   Cl    Cl    0.251113 0.343884 0.275547 -0.570477
Cl9   Cl    Cl    0.193421 0.128876 0.358895 -0.430376
Cl10  Cl    Cl    0.751987 0.789307 0.647253 -0.503889
Cl11  Cl    Cl    0.806537 0.128889 0.641188 -0.430276
Cl12  Cl    Cl    0.248027 0.789320 0.352763 -0.504022
Cl13  Cl    Cl    0.693418 0.628877 0.358897 -0.430294
Cl14  Cl    Cl    0.251982 0.289312 0.647258 -0.503991
Cl15  Cl    Cl    0.306586 0.628836 0.641103 -0.430399
Cl16  Cl    Cl    0.748078 0.289268 0.352667 -0.503671
Cl17  Cl    Cl    0.205828 0.951806 0.044356 -0.434296
Cl18  Cl    Cl    0.714655 0.209891 0.986170 -0.475331
Cl19  Cl    Cl    0.794169 0.951835 0.955706 -0.434506
Cl20  Cl    Cl    0.284840 0.209380 0.013808 -0.474935
Cl21  Cl    Cl    0.705885 0.452052 0.044035 -0.434169
Cl22  Cl    Cl    0.215387 0.709171 0.986206 -0.474725
Cl23  Cl    Cl    0.294164 0.451868 0.955742 -0.434159
Cl24  Cl    Cl    0.784778 0.709303 0.013804 -0.474809
N33   N     N_R   0.327494 0.773888 0.009299 0.267152
O1    O     O_R   0.386538 0.737816 0.931809 -0.293996
O2    O     O_R   0.292865 0.754459 0.113379 -0.308377
N34   N     N_R   0.600167 0.340814 0.273501 0.264270
O3    O     O_R   0.585844 0.326339 0.367786 -0.290134
O4    O     O_R   0.575273 0.405356 0.264669 -0.233069
N35   N     N_R   0.672559 0.773830 0.990726 0.267116
O5    O     O_R   0.613534 0.737725 0.068228 -0.293940
O6    O     O_R   0.707173 0.754416 0.886648 -0.308469
N36   N     N_R   0.400132 0.340933 0.727001 0.264409
O7    O     O_R   0.414303 0.326975 0.632727 -0.289545
O8    O     O_R   0.425557 0.404928 0.735887 -0.233430
N37   N     N_R   0.827202 0.273779 0.009376 0.266926
O9    O     O_R   0.886142 0.237535 0.931882 -0.293692
O10   O     O_R   0.792626 0.254469 0.113476 -0.308908
N38   N     N_R   0.099717 0.840998 0.272795 0.264441
O11   O     O_R   0.085580 0.827264 0.367094 -0.289309
O12   O     O_R   0.074059 0.904753 0.263865 -0.233643
N39   N     N_R   0.172589 0.273838 0.990703 0.267082
O13   O     O_R   0.113573 0.237716 0.068200 -0.293921
O14   O     O_R   0.207201 0.254438 0.886620 -0.308543
N40   N     N_R   0.900155 0.840950 0.727073 0.264391
O15   O     O_R   0.914252 0.827072 0.632838 -0.289450
O16   O     O_R   0.925685 0.904863 0.735923 -0.233560

loop_
_geom_bond_atom_site_label_1
_geom_bond_atom_site_label_2
_geom_bond_distance
_ccdc_geom_bond_type
C48   C69   1.438419 S    
N5    N31   1.387606 A    
C27   N27   1.351913 A    
C8    N8    1.331317 A    
N14   Ni8   1.858843 S    
C2    N2    1.331401 A    
C55   H39   1.109784 S    
N33   O1    1.301538 A    
C81   N34   1.437794 S    
C29   H21   1.079145 S    
C8    C40   1.373379 A    
C3    H3    1.075679 S    
C81   C89   1.347223 D    
N29   Ni8   1.858736 S    
C67   C79   1.523923 S    
N10   N18   1.352303 A    
C31   H23   1.079145 S    
N34   O4    1.300152 A    
C25   H17   1.079144 S    
C28   C34   1.380325 A    
N37   O9    1.301521 A    
C14   H14   1.079798 S    
C37   C87   1.461205 S    
C56   H40   1.109856 S    
C60   C68   1.535514 S    
C11   C43   1.365208 A    
N19   Ni1   1.886438 S    
N14   N22   1.352303 A    
C31   C37   1.390198 A    
C30   H22   1.081316 S    
C18   Cl2   1.757905 S    
C63   H31   1.110837 S    
N4    N26   1.387603 A    
C78   Cl14  1.782655 S    
C68   C80   1.526680 S    
C50   C62   1.556164 S    
C7    N7    1.328925 A    
N16   N24   1.352303 A    
N31   Ni7   1.858824 S    
C42   C67   1.438423 S    
C61   H29   1.110836 S    
N15   Ni8   1.858931 S    
C6    N6    1.331393 A    
C23   C47   1.365276 A    
C27   C33   1.390234 A    
C51   C63   1.540383 S    
N35   O6    1.299757 A    
C60   H28   1.109958 S    
C3    C35   1.370825 A    
C54   C58   1.556167 S    
C2    C34   1.373544 A    
N21   Ni4   1.886431 S    
C53   C57   1.540392 S    
C69   C73   1.523926 S    
C20   N20   1.335403 A    
C47   C70   1.433677 S    
C63   C71   1.535298 S    
C21   N21   1.328258 A    
C10   H10   1.079796 S    
C2    H2    1.070211 S    
C72   C76   1.526671 S    
C21   C45   1.365284 A    
C6    C38   1.373526 A    
C23   N23   1.328251 A    
N2    N28   1.387610 A    
C89   C94   1.478998 S    
N27   Ni5   1.858824 S    
C3    N3    1.328799 A    
C53   C70   1.534131 S    
N11   Ni6   1.858931 S    
C71   C75   1.523923 S    
C4    H4    1.070228 S    
C83   C91   1.347113 D    
C5    H5    1.075715 S    
C92   C95   1.478859 S    
N11   N19   1.352302 A    
C46   C71   1.438407 S    
C32   C38   1.380358 A    
N12   Ni5   1.858931 S    
C12   C44   1.368910 A    
C76   Cl12  1.782655 S    
C16   C48   1.368917 A    
C52   C64   1.556164 S    
C8    H8    1.070175 S    
C15   N15   1.326655 A    
N33   O2    1.299764 A    
C19   Cl3   1.756953 S    
C39   C85   1.461134 S    
C62   H30   1.109958 S    
C32   N32   1.347093 A    
C83   N36   1.437689 S    
C64   C72   1.535516 S    
N24   Ni4   1.886436 S    
C17   Cl1   1.756959 S    
C59   C76   1.523056 S    
N37   O10   1.299731 A    
C19   C43   1.365280 A    
C53   H37   1.109785 S    
C18   C42   1.383273 A    
C86   C94   1.356006 D    
C57   C74   1.523062 S    
C82   N33   1.441813 S    
C53   C77   1.539405 S    
N35   O5    1.301528 A    
C28   N28   1.347069 A    
N26   Ni5   1.858736 S    
C79   Cl15  1.780126 S    
C1    H1    1.075711 S    
N38   O11   1.301570 A    
C24   C48   1.383275 A    
C7    H7    1.075728 S    
C9    N9    1.326647 A    
N39   O13   1.301525 A    
C61   C78   1.523060 S    
C49   C73   1.539405 S    
N22   Ni3   1.886434 S    
C22   N22   1.335408 A    
C51   H35   1.109784 S    
C54   H38   1.109858 S    
C58   H26   1.109958 S    
C51   C68   1.534130 S    
C12   N12   1.324293 A    
N28   Ni6   1.858824 S    
N8    N30   1.387603 A    
C13   N13   1.326649 A    
N1    N27   1.387606 A    
C5    N5    1.328885 A    
C18   N18   1.335409 A    
C49   C66   1.534126 S    
C15   C47   1.365198 A    
C54   C69   1.535826 S    
C30   C40   1.380580 A    
C22   Cl6   1.757922 S    
C20   Cl4   1.757905 S    
C87   N40   1.437713 S    
N1    Ni1   1.882016 S    
C26   N26   1.347004 A    
C74   Cl10  1.782659 S    
C85   N38   1.437814 S    
C25   N25   1.352077 A    
C82   C90   1.355722 D    
C44   C65   1.438412 S    
C52   C76   1.534670 S    
C14   C46   1.368902 A    
C24   N24   1.335404 A    
C13   C45   1.365193 A    
N8    Ni3   1.882016 S    
N25   Ni6   1.858736 S    
N40   O16   1.300392 A    
C80   Cl16  1.782649 S    
N5    Ni3   1.882016 S    
C61   C69   1.535308 S    
C10   C42   1.368908 A    
C31   N31   1.351892 A    
N36   O8    1.300294 A    
C9    C41   1.365188 A    
C43   C66   1.433682 S    
C59   C67   1.535313 S    
N6    N32   1.387610 A    
N7    N29   1.387606 A    
C13   H13   1.081286 S    
C41   C68   1.433673 S    
C57   C65   1.535302 S    
C54   C78   1.534675 S    
C90   Cl17  1.770795 S    
C19   N19   1.328251 A    
C96   Cl23  1.770802 S    
C38   C88   1.471611 S    
C30   N30   1.347256 A    
C16   H16   1.079807 S    
C29   N29   1.351826 A    
C10   N10   1.324290 A    
C87   C95   1.347104 D    
N4    Ni1   1.882016 S    
C62   C77   1.549204 S    
C36   C82   1.471531 S    
C55   C72   1.534134 S    
C25   C35   1.390479 A    
C57   H25   1.110836 S    
C94   Cl21  1.770831 S    
C1    C33   1.370990 A    
C59   H27   1.110838 S    
C93   Cl22  1.779897 S    
C22   C46   1.383276 A    
C50   H34   1.109859 S    
C50   C65   1.535827 S    
N38   O12   1.300582 A    
C91   Cl20  1.779711 S    
C29   C39   1.390095 A    
C84   N35   1.441784 S    
C52   C67   1.535834 S    
C5    C37   1.371009 A    
C7    C39   1.371072 A    
N13   Ni7   1.858843 S    
C89   Cl18  1.779535 S    
C66   C78   1.526679 S    
N20   Ni2   1.886436 S    
C55   C59   1.540385 S    
C26   C36   1.380229 A    
C28   H20   1.081316 S    
C24   Cl8   1.757907 S    
C91   C96   1.478886 S    
C45   C72   1.433680 S    
C1    N1    1.328877 A    
C14   N14   1.324286 A    
N18   Ni1   1.886434 S    
C11   H11   1.081287 S    
C64   H32   1.109960 S    
N30   Ni7   1.858736 S    
C51   C75   1.539395 S    
N9    N17   1.352304 A    
C6    H6    1.070208 S    
C32   H24   1.081315 S    
C75   Cl11  1.780123 S    
N32   Ni8   1.858824 S    
N15   N23   1.352302 A    
C62   C70   1.535512 S    
C16   N16   1.324288 A    
C73   Cl9   1.780125 S    
N2    Ni2   1.882016 S    
N12   N20   1.352303 A    
C65   C77   1.523925 S    
N6    Ni4   1.882016 S    
N7    Ni4   1.882016 S    
C49   H33   1.109785 S    
C49   C61   1.540393 S    
N13   N21   1.352304 A    
C58   C73   1.549200 S    
C15   H15   1.081286 S    
N17   Ni2   1.886431 S    
C40   C86   1.471766 S    
N39   O14   1.299753 A    
C58   C66   1.535516 S    
C88   N39   1.441770 S    
N10   Ni6   1.858843 S    
N40   O15   1.301518 A    
C21   Cl5   1.756948 S    
C77   Cl13  1.780124 S    
C95   Cl24  1.779766 S    
C56   C71   1.535824 S    
C84   C92   1.355785 D    
C86   N37   1.441699 S    
C17   C41   1.365265 A    
C4    N4    1.331438 A    
N3    Ni2   1.882016 S    
C11   N11   1.326650 A    
C17   N17   1.328265 A    
N16   Ni7   1.858931 S    
C27   H19   1.079147 S    
N34   O3    1.301436 A    
C12   H12   1.079796 S    
C55   C79   1.539406 S    
N36   O7    1.301483 A    
C70   C74   1.526681 S    
C60   C75   1.549206 S    
C34   C84   1.471580 S    
C56   C80   1.534673 S    
C20   C44   1.383266 A    
C23   Cl7   1.756952 S    
C35   C81   1.461483 S    
C92   Cl19  1.770796 S    
N9    Ni5   1.858843 S    
C88   C96   1.355813 D    
C52   H36   1.109858 S    
N3    N25   1.387606 A    
C85   C93   1.347110 D    
N23   Ni3   1.886438 S    
C63   C80   1.523050 S    
C33   C83   1.461246 S    
C50   C74   1.534671 S    
C56   C60   1.556170 S    
C64   C79   1.549208 S    
C9    H9    1.081286 S    
C4    C36   1.373605 A    
C90   C93   1.478834 S    
C26   H18   1.081317 S    
