data_mof_unit_62427.cif
_audit_creation_date              2012-12-10T18:53:35-0500
_audit_creation_method            fapswitch 2.2
_symmetry_space_group_name_H-M    P1
_symmetry_Int_Tables_number       1
_space_group_crystal_system       triclinic
_cell_length_a                    30.282805
_cell_length_b                    30.288356
_cell_length_c                    21.689852
_cell_angle_alpha                 90.009672
_cell_angle_beta                  90.008448
_cell_angle_gamma                 89.780637
_cell_volume                      19894.1411969

loop_
_atom_site_label
_atom_site_type_symbol
_atom_type_description
_atom_site_fract_x
_atom_site_fract_y
_atom_site_fract_z
_atom_type_partial_charge
C1    C     C_R   0.499895 0.086299 0.999797 0.916688
C2    C     C_R   0.086261 0.499918 0.999984 0.918819
C3    C     C_R   0.500080 0.913737 0.000018 0.919207
C4    C     C_R   0.913702 0.500105 0.000204 0.916159
C5    C     C_R   0.999918 0.586265 0.500012 0.918811
C6    C     C_R   0.586299 0.999895 0.500200 0.916001
C7    C     C_R   0.000105 0.413699 0.499799 0.916282
C8    C     C_R   0.413701 0.000107 0.500203 0.915983
C9    C     C_R   0.497829 0.226323 0.999618 -0.054216
C10   C     C_R   0.226183 0.499139 0.998965 -0.061163
C11   C     C_R   0.500830 0.773823 0.001007 -0.061014
C12   C     C_R   0.773667 0.502179 0.000350 -0.053037
C13   C     C_R   0.999144 0.726183 0.500978 -0.061313
C14   C     C_R   0.726332 0.997821 0.500292 -0.053935
C15   C     C_R   0.002201 0.273671 0.499701 -0.053943
C16   C     C_R   0.273666 0.002173 0.500332 -0.053464
C17   C     C_R   0.513529 0.296840 0.947489 0.225578
C18   C     C_R   0.297303 0.487493 0.945460 0.232476
C19   C     C_R   0.488852 0.703132 0.946341 0.230594
C20   C     C_R   0.702629 0.517852 0.948349 0.230359
C21   C     C_R   0.482268 0.297362 0.051707 0.230903
C22   C     C_R   0.703160 0.486263 0.052372 0.225354
C23   C     C_R   0.512576 0.702703 0.054482 0.232482
C24   C     C_R   0.296864 0.511010 0.053692 0.230411
C25   C     C_R   0.010971 0.796862 0.446253 0.230374
C26   C     C_R   0.797363 0.982338 0.448179 0.230594
C27   C     C_R   0.986521 0.203156 0.447527 0.225512
C28   C     C_R   0.202630 0.017686 0.448236 0.230768
C29   C     C_R   0.987523 0.797310 0.554503 0.232494
C30   C     C_R   0.203163 0.986474 0.552481 0.225430
C31   C     C_R   0.017712 0.202635 0.551798 0.230908
C32   C     C_R   0.796842 0.013497 0.552471 0.225423
C33   C     C_R   0.514517 0.342800 0.948267 -0.227357
C34   C     C_R   0.343176 0.488549 0.945891 -0.245365
C35   C     C_R   0.489560 0.657244 0.946340 -0.238437
C36   C     C_R   0.656727 0.516405 0.948374 -0.243542
C37   C     C_R   0.483728 0.343259 0.051694 -0.243564
C38   C     C_R   0.657199 0.485291 0.051611 -0.228193
C39   C     C_R   0.511525 0.656833 0.054061 -0.245288
C40   C     C_R   0.342755 0.510315 0.053694 -0.238497
C41   C     C_R   0.010275 0.842749 0.446265 -0.238282
C42   C     C_R   0.843264 0.983791 0.448221 -0.243523
C43   C     C_R   0.985525 0.157198 0.448284 -0.227759
C44   C     C_R   0.156729 0.016240 0.448271 -0.243780
C45   C     C_R   0.988579 0.843178 0.554083 -0.245756
C46   C     C_R   0.157201 0.985492 0.551723 -0.228118
C47   C     C_R   0.016248 0.156739 0.551762 -0.244129
C48   C     C_R   0.842804 0.014487 0.551718 -0.227543
C49   C     C_R   0.499325 0.365921 0.999950 -0.094068
C50   C     C_R   0.365878 0.499618 0.999868 -0.092686
C51   C     C_R   0.500364 0.634124 0.000127 -0.092695
C52   C     C_R   0.634073 0.500668 0.000041 -0.093441
C53   C     C_R   0.999614 0.865877 0.500106 -0.092809
C54   C     C_R   0.865925 0.999333 0.500016 -0.093959
C55   C     C_R   0.000683 0.134077 0.499982 -0.094152
C56   C     C_R   0.134074 0.000674 0.500040 -0.093893
C57   C     C_R   0.497208 0.274290 0.999318 0.143255
C58   C     C_R   0.274169 0.499224 0.999377 0.149676
C59   C     C_R   0.500742 0.725834 0.000606 0.149571
C60   C     C_R   0.725705 0.502787 0.000664 0.143890
C61   C     C_R   0.999222 0.774170 0.500572 0.149657
C62   C     C_R   0.774294 0.997214 0.500601 0.143421
C63   C     C_R   0.002815 0.225706 0.499389 0.143325
C64   C     C_R   0.225705 0.002783 0.500639 0.143530
C65   C     C_R   0.586205 0.500019 0.999999 0.904147
C66   C     C_R   0.499980 0.413792 1.000000 0.904099
C67   C     C_R   0.413779 0.499921 0.999984 0.908432
C68   C     C_R   0.500074 0.586222 0.000016 0.908303
C69   C     C_R   0.086206 0.000021 0.499999 0.905065
C70   C     C_R   0.999921 0.913778 0.500008 0.907692
C71   C     C_R   0.913794 0.999982 0.499991 0.904538
C72   C     C_R   0.000023 0.086207 0.500009 0.904017
C73   C     C_R   0.500012 0.999977 0.119979 0.838685
C74   C     C_R   0.000018 0.500009 0.119969 0.839643
C75   C     C_R   0.499993 0.999975 0.880020 0.839781
C76   C     C_R   0.000034 0.499987 0.880032 0.838458
C77   C     C_R   0.999993 0.500033 0.619972 0.838570
C78   C     C_R   0.500008 0.000003 0.619961 0.839450
C79   C     C_R   0.000002 0.500017 0.380028 0.839740
C80   C     C_R   0.499989 0.999998 0.380039 0.838556
C81   C     C_R   0.552872 0.936905 0.187096 -0.272084
C82   C     C_R   0.936838 0.447813 0.186980 -0.273391
C83   C     C_R   0.447454 0.063265 0.187049 -0.270956
C84   C     C_R   0.063083 0.552398 0.187008 -0.274601
C85   C     C_R   0.447257 0.937202 0.812888 -0.273588
C86   C     C_R   0.063233 0.447315 0.812917 -0.272150
C87   C     C_R   0.552460 0.062960 0.812986 -0.273306
C88   C     C_R   0.936516 0.552274 0.813069 -0.271046
C89   C     C_R   0.052301 0.436528 0.686921 -0.271098
C90   C     C_R   0.436552 0.948125 0.686884 -0.274628
C91   C     C_R   0.947339 0.563234 0.687094 -0.272114
C92   C     C_R   0.563314 0.052029 0.687008 -0.273776
C93   C     C_R   0.947742 0.436896 0.312950 -0.273385
C94   C     C_R   0.563618 0.947848 0.313099 -0.271309
C95   C     C_R   0.052385 0.563087 0.313050 -0.274593
C96   C     C_R   0.436458 0.052214 0.312990 -0.271217
C97   C     C_R   0.583499 0.910875 0.218611 0.293565
C98   C     C_R   0.910779 0.417390 0.218418 0.289168
C99   C     C_R   0.416806 0.089310 0.218502 0.294156
C100  C     C_R   0.089147 0.582811 0.218481 0.293930
C101  C     C_R   0.416577 0.911448 0.781407 0.288608
C102  C     C_R   0.089354 0.416768 0.781400 0.293634
C103  C     C_R   0.583001 0.088883 0.781543 0.289119
C104  C     C_R   0.910295 0.582788 0.781663 0.294160
C105  C     C_R   0.082810 0.410300 0.718330 0.294183
C106  C     C_R   0.410200 0.917957 0.718317 0.294405
C107  C     C_R   0.916782 0.589346 0.718606 0.293606
C108  C     C_R   0.589484 0.082353 0.718476 0.289264
C109  C     C_R   0.917292 0.410869 0.281481 0.289160
C110  C     C_R   0.589942 0.917427 0.281685 0.294270
C111  C     C_R   0.082807 0.589146 0.281608 0.293920
C112  C     C_R   0.410230 0.082700 0.281537 0.294413
C113  C     C_R   0.530469 0.972643 0.282195 0.028988
C114  C     C_R   0.972602 0.469839 0.282123 0.028884
C115  C     C_R   0.469617 0.027395 0.282152 0.028683
C116  C     C_R   0.027446 0.530215 0.282162 0.030114
C117  C     C_R   0.469625 0.972777 0.717794 0.028899
C118  C     C_R   0.027418 0.469613 0.717820 0.029047
C119  C     C_R   0.530288 0.027289 0.717852 0.028869
C120  C     C_R   0.972389 0.530227 0.717895 0.028735
C121  C     C_R   0.030232 0.472374 0.782109 0.028725
C122  C     C_R   0.472377 0.969964 0.782085 0.030211
C123  C     C_R   0.969613 0.527401 0.782179 0.029069
C124  C     C_R   0.527494 0.030095 0.782136 0.029018
C125  C     C_R   0.969800 0.472647 0.217841 0.028881
C126  C     C_R   0.527717 0.969832 0.217903 0.028885
C127  C     C_R   0.030203 0.527462 0.217864 0.030124
C128  C     C_R   0.472454 0.030238 0.217878 0.028925
C129  C     C_R   0.500012 0.999998 0.313861 -0.128700
C130  C     C_R   0.000017 0.500024 0.313838 -0.129935
C131  C     C_R   0.499985 0.000012 0.686138 -0.129563
C132  C     C_R   0.999954 0.499979 0.686161 -0.129259
C133  C     C_R   0.999977 0.499935 0.813842 -0.129249
C134  C     C_R   0.499966 0.999998 0.813819 -0.130393
C135  C     C_R   0.000008 0.500040 0.186158 -0.129884
C136  C     C_R   0.500057 0.000009 0.186180 -0.129515
C137  C     C_R   0.532440 0.204122 0.029587 0.214153
C138  C     C_R   0.203592 0.465329 0.029812 0.195006
C139  C     C_R   0.466874 0.796541 0.031790 0.200249
C140  C     C_R   0.796708 0.535866 0.030715 0.191399
C141  C     C_R   0.464212 0.203276 0.969090 0.192567
C142  C     C_R   0.795865 0.467512 0.970520 0.214497
C143  C     C_R   0.534586 0.796413 0.970026 0.194961
C144  C     C_R   0.203472 0.533157 0.968320 0.200277
C145  C     C_R   0.033180 0.703482 0.531616 0.200253
C146  C     C_R   0.703304 0.964121 0.530621 0.192323
C147  C     C_R   0.967536 0.295878 0.529534 0.214221
C148  C     C_R   0.296701 0.035887 0.530645 0.192247
C149  C     C_R   0.965316 0.703579 0.470153 0.195034
C150  C     C_R   0.295868 0.967479 0.470571 0.214386
C151  C     C_R   0.035861 0.296708 0.469283 0.192553
C152  C     C_R   0.704124 0.032512 0.470541 0.214355
C153  C     C_R   0.533026 0.157957 0.030399 0.120911
C154  C     C_R   0.157472 0.465828 0.031006 0.118042
C155  C     C_R   0.466798 0.842666 0.032166 0.119338
C156  C     C_R   0.842837 0.534831 0.031737 0.126183
C157  C     C_R   0.465240 0.157151 0.968098 0.125754
C158  C     C_R   0.842034 0.466920 0.969715 0.121050
C159  C     C_R   0.534097 0.842529 0.968849 0.117895
C160  C     C_R   0.157343 0.533242 0.967945 0.119489
C161  C     C_R   0.033262 0.657357 0.532011 0.119526
C162  C     C_R   0.657176 0.965148 0.531649 0.125981
C163  C     C_R   0.966934 0.342042 0.530314 0.120986
C164  C     C_R   0.342830 0.034870 0.531650 0.126286
C165  C     C_R   0.965811 0.657463 0.468979 0.117962
C166  C     C_R   0.342036 0.966891 0.469770 0.121372
C167  C     C_R   0.034821 0.342831 0.468255 0.125985
C168  C     C_R   0.657955 0.033106 0.469757 0.121147
C169  C     C_R   0.499477 0.134498 0.999324 -0.184870
C170  C     C_R   0.134397 0.499694 0.999707 -0.187886
C171  C     C_R   0.500296 0.865605 0.000288 -0.187866
C172  C     C_R   0.865496 0.500526 0.000665 -0.184742
C173  C     C_R   0.999694 0.634400 0.500273 -0.187863
C174  C     C_R   0.634504 0.999474 0.500645 -0.184753
C175  C     C_R   0.000528 0.365496 0.499346 -0.184810
C176  C     C_R   0.365495 0.000531 0.500654 -0.184815
H1    H     H_    0.548990 0.930460 0.138443 0.185970
H2    H     H_    0.930387 0.451801 0.138339 0.185707
H3    H     H_    0.451491 0.069763 0.138434 0.185488
H4    H     H_    0.069465 0.548521 0.138336 0.185292
H5    H     H_    0.451163 0.930700 0.861524 0.185614
H6    H     H_    0.069653 0.451205 0.861576 0.185833
H7    H     H_    0.548482 0.069454 0.861617 0.185936
H8    H     H_    0.930105 0.548245 0.861709 0.185377
H9    H     H_    0.048283 0.430131 0.638272 0.185424
H10   H     H_    0.430218 0.952090 0.638209 0.185381
H11   H     H_    0.951244 0.569662 0.638443 0.185764
H12   H     H_    0.569713 0.048055 0.638351 0.185591
H13   H     H_    0.951725 0.430436 0.361588 0.185725
H14   H     H_    0.569974 0.951856 0.361761 0.185285
H15   H     H_    0.048503 0.569466 0.361723 0.185297
H16   H     H_    0.430029 0.048179 0.361626 0.185200
H17   H     H_    0.528064 0.360451 0.909233 0.171961
H18   H     H_    0.361006 0.479870 0.904274 0.170686
H19   H     H_    0.480769 0.639699 0.904585 0.170240
H20   H     H_    0.638821 0.527961 0.908191 0.169282
H21   H     H_    0.472273 0.361156 0.091939 0.169287
H22   H     H_    0.639561 0.471605 0.090567 0.171701
H23   H     H_    0.520285 0.639009 0.095647 0.170670
H24   H     H_    0.360297 0.519031 0.095484 0.170284
H25   H     H_    0.018962 0.860285 0.404472 0.170431
H26   H     H_    0.861162 0.972380 0.407954 0.169340
H27   H     H_    0.972000 0.139550 0.409219 0.171988
H28   H     H_    0.138826 0.027671 0.408017 0.169130
H29   H     H_    0.979927 0.861007 0.595714 0.170631
H30   H     H_    0.139557 0.971957 0.590775 0.171711
H31   H     H_    0.027673 0.138843 0.592021 0.169085
H32   H     H_    0.860453 0.028002 0.590791 0.171918
O1    O     O_R   0.463050 0.065470 0.999990 -0.596194
O2    O     O_R   0.065470 0.536950 0.999990 -0.596289
O3    O     O_R   0.536950 0.934530 0.999990 -0.595752
O4    O     O_R   0.934530 0.463050 0.999990 -0.594726
O5    O     O_R   0.536950 0.065470 0.000010 -0.594789
O6    O     O_R   0.934530 0.536950 0.000010 -0.596021
O7    O     O_R   0.463050 0.934530 0.000010 -0.596443
O8    O     O_R   0.065470 0.463050 0.000010 -0.595755
O9    O     O_R   0.963050 0.565470 0.499990 -0.595739
O10   O     O_R   0.565470 0.036950 0.499990 -0.594715
O11   O     O_R   0.036950 0.434530 0.499990 -0.596059
O12   O     O_R   0.434530 0.963050 0.499990 -0.594628
O13   O     O_R   0.036950 0.565470 0.500010 -0.596297
O14   O     O_R   0.434530 0.036950 0.500010 -0.596224
O15   O     O_R   0.963050 0.434530 0.500010 -0.594763
O16   O     O_R   0.565470 0.963050 0.500010 -0.596094
O17   O     O_R   0.463050 0.999990 0.091600 -0.615067
O18   O     O_R   0.999990 0.536950 0.091600 -0.615337
O19   O     O_R   0.536950 0.000010 0.091600 -0.615523
O20   O     O_R   0.000010 0.463050 0.091600 -0.615584
O21   O     O_R   0.536950 0.999990 0.908400 -0.615545
O22   O     O_R   0.000010 0.536950 0.908400 -0.615057
O23   O     O_R   0.463050 0.000010 0.908400 -0.615706
O24   O     O_R   0.999990 0.463050 0.908400 -0.615512
O25   O     O_R   0.963050 0.499990 0.591600 -0.615479
O26   O     O_R   0.499990 0.036950 0.591600 -0.615756
O27   O     O_R   0.036950 0.500010 0.591600 -0.615118
O28   O     O_R   0.500010 0.963050 0.591600 -0.615295
O29   O     O_R   0.036950 0.499990 0.408400 -0.615332
O30   O     O_R   0.500010 0.036950 0.408400 -0.615184
O31   O     O_R   0.963050 0.500010 0.408400 -0.615639
O32   O     O_R   0.499990 0.963050 0.408400 -0.615286
O33   O     O_R   0.565470 0.500020 0.051710 -0.622323
O34   O     O_R   0.500020 0.434530 0.051710 -0.621656
O35   O     O_R   0.434530 0.499980 0.051710 -0.623269
O36   O     O_R   0.499980 0.565470 0.051710 -0.622452
O37   O     O_R   0.434530 0.500020 0.948290 -0.622547
O38   O     O_R   0.499980 0.434530 0.948290 -0.622433
O39   O     O_R   0.565470 0.499980 0.948290 -0.621663
O40   O     O_R   0.500020 0.565470 0.948290 -0.623233
O41   O     O_R   0.065470 0.000020 0.551710 -0.623096
O42   O     O_R   0.000020 0.934530 0.551710 -0.623316
O43   O     O_R   0.934530 0.999980 0.551710 -0.622386
O44   O     O_R   0.999980 0.065470 0.551710 -0.621487
O45   O     O_R   0.934530 0.000020 0.448290 -0.621653
O46   O     O_R   0.999980 0.934530 0.448290 -0.622893
O47   O     O_R   0.065470 0.999980 0.448290 -0.620674
O48   O     O_R   0.000020 0.065470 0.448290 -0.622778
Zn1   Zn    Zn3+2 0.450650 0.000000 0.000000 1.024325
Zn2   Zn    Zn3+2 0.000000 0.549350 0.000000 1.025066
Zn3   Zn    Zn3+2 0.549350 0.000000 0.000000 1.025265
Zn4   Zn    Zn3+2 1.000000 0.450650 0.000000 1.025003
Zn5   Zn    Zn3+2 0.950650 0.500000 0.500000 1.025156
Zn6   Zn    Zn3+2 0.500000 0.049350 0.500000 1.024659
Zn7   Zn    Zn3+2 0.049350 0.500000 0.500000 1.025125
Zn8   Zn    Zn3+2 0.500000 0.950650 0.500000 1.025402
Zn9   Zn    Zn3+2 0.500000 0.500000 0.069060 0.988017
Zn10  Zn    Zn3+2 0.500000 0.500000 0.930940 0.987929
Zn11  Zn    Zn3+2 0.000000 1.000000 0.569060 0.986343
Zn12  Zn    Zn3+2 0.000000 0.000000 0.430940 0.988403
Br1   Br    Br    0.384198 0.132941 0.173227 -0.437385
Br2   Br    Br    0.132348 0.615550 0.173084 -0.441502
Br3   Br    Br    0.616253 0.867332 0.173370 -0.435601
Br4   Br    Br    0.867280 0.384980 0.173077 -0.411272
Br5   Br    Br    0.615607 0.132234 0.826879 -0.411115
Br6   Br    Br    0.866593 0.615239 0.827034 -0.437505
Br7   Br    Br    0.383550 0.868436 0.826742 -0.441653
Br8   Br    Br    0.132995 0.384141 0.826640 -0.436594
Br9   Br    Br    0.884167 0.632995 0.673374 -0.435991
Br10  Br    Br    0.633078 0.114632 0.673162 -0.411631
Br11  Br    Br    0.115272 0.366614 0.672948 -0.438030
Br12  Br    Br    0.366468 0.885888 0.672934 -0.410926
Br13  Br    Br    0.115550 0.632337 0.327048 -0.441285
Br14  Br    Br    0.366426 0.115074 0.326823 -0.438120
Br15  Br    Br    0.884834 0.367406 0.326781 -0.411349
Br16  Br    Br    0.633712 0.885077 0.327072 -0.438006
Br17  Br    Br    0.578515 0.237062 0.070456 -0.493780
Br18  Br    Br    0.235843 0.418458 0.070652 -0.506563
Br19  Br    Br    0.420612 0.764529 0.073800 -0.511288
Br20  Br    Br    0.765054 0.583286 0.071166 -0.533150
Br21  Br    Br    0.416907 0.234920 0.928360 -0.532881
Br22  Br    Br    0.762910 0.421394 0.929779 -0.493595
Br23  Br    Br    0.581372 0.764165 0.928984 -0.506367
Br24  Br    Br    0.235501 0.579492 0.926500 -0.510949
Br25  Br    Br    0.079544 0.735518 0.573404 -0.510108
Br26  Br    Br    0.734978 0.916706 0.571046 -0.532294
Br27  Br    Br    0.921407 0.262945 0.570261 -0.493626
Br28  Br    Br    0.265036 0.083311 0.571072 -0.534655
Br29  Br    Br    0.918417 0.735807 0.429325 -0.506036
Br30  Br    Br    0.262920 0.921300 0.429950 -0.494564
Br31  Br    Br    0.083238 0.265051 0.428735 -0.533942
Br32  Br    Br    0.737060 0.078685 0.429924 -0.493538
N1    N     N_2   0.566789 0.134883 0.063161 -0.267568
H33   H     H_    0.597946 0.148151 0.059205 0.280167
C177  C     C_3   0.555360 0.123510 0.125912 -0.661034
H34   H     H_    0.550617 0.153884 0.153915 0.259124
H35   H     H_    0.582321 0.103471 0.146609 0.239602
H36   H     H_    0.524674 0.103654 0.126888 0.215200
N2    N     N_2   0.134031 0.432788 0.064329 -0.266040
H37   H     H_    0.146673 0.401276 0.060396 0.279027
C178  C     C_3   0.123284 0.444752 0.127128 -0.665707
H38   H     H_    0.153925 0.448841 0.154703 0.259806
H39   H     H_    0.102896 0.418406 0.148290 0.239250
H40   H     H_    0.103995 0.475932 0.128079 0.214407
N3    N     N_2   0.433467 0.866257 0.065088 -0.267460
H41   H     H_    0.402108 0.853431 0.061384 0.278773
C179  C     C_3   0.445292 0.877666 0.127682 -0.656516
H42   H     H_    0.449779 0.847326 0.155821 0.260175
H43   H     H_    0.418676 0.898112 0.148473 0.238226
H44   H     H_    0.476219 0.897128 0.128271 0.214260
N4    N     N_2   0.866699 0.567832 0.064574 -0.266885
H45   H     H_    0.854370 0.599447 0.060347 0.279216
C180  C     C_3   0.877504 0.556133 0.127447 -0.661496
H46   H     H_    0.846900 0.552527 0.155225 0.257760
H47   H     H_    0.898224 0.582393 0.148207 0.238777
H48   H     H_    0.896478 0.524766 0.128644 0.215417
N5    N     N_2   0.432301 0.133285 0.935141 -0.267028
H49   H     H_    0.400676 0.145628 0.939209 0.278834
C181  C     C_3   0.444144 0.122436 0.872334 -0.662577
H50   H     H_    0.447811 0.153015 0.844529 0.257976
H51   H     H_    0.417927 0.101703 0.851489 0.238195
H52   H     H_    0.475521 0.103468 0.871298 0.215554
N6    N     N_2   0.865107 0.433089 0.937092 -0.267526
H53   H     H_    0.851829 0.401950 0.941178 0.280165
C182  C     C_3   0.876481 0.444378 0.874291 -0.660785
H54   H     H_    0.846102 0.449082 0.846276 0.259107
H55   H     H_    0.896504 0.417367 0.853697 0.239587
H56   H     H_    0.896360 0.475043 0.873188 0.215314
N7    N     N_2   0.567071 0.865970 0.935393 -0.266080
H57   H     H_    0.598593 0.853315 0.939158 0.279100
C183  C     C_3   0.554952 0.876756 0.872665 -0.665977
H58   H     H_    0.550800 0.846137 0.845071 0.259734
H59   H     H_    0.581251 0.897156 0.851405 0.239327
H60   H     H_    0.523761 0.896039 0.871881 0.214277
N8    N     N_2   0.133757 0.566630 0.935136 -0.267302
H61   H     H_    0.146586 0.597976 0.938963 0.278898
C184  C     C_3   0.122360 0.554926 0.872492 -0.656314
H62   H     H_    0.152712 0.550482 0.844353 0.260169
H63   H     H_    0.101924 0.581581 0.851787 0.238237
H64   H     H_    0.102885 0.524011 0.871782 0.214254
N9    N     N_2   0.066664 0.633788 0.564824 -0.267281
H65   H     H_    0.098015 0.646612 0.560992 0.279022
C185  C     C_3   0.054972 0.622414 0.627471 -0.656348
H66   H     H_    0.050536 0.652771 0.655602 0.260145
H67   H     H_    0.081638 0.601990 0.648180 0.238272
H68   H     H_    0.024052 0.602943 0.628189 0.214245
N10   N     N_2   0.633332 0.932114 0.564419 -0.266897
H69   H     H_    0.645664 0.900505 0.560113 0.279162
C186  C     C_3   0.622552 0.943749 0.627324 -0.661319
H70   H     H_    0.653166 0.947340 0.655098 0.257926
H71   H     H_    0.601849 0.917463 0.648033 0.238656
H72   H     H_    0.603568 0.975109 0.628601 0.215453
N11   N     N_2   0.933099 0.365120 0.562924 -0.267535
H73   H     H_    0.901954 0.351843 0.558830 0.280156
C187  C     C_3   0.944394 0.376511 0.625726 -0.660709
H74   H     H_    0.949100 0.346146 0.653748 0.259104
H75   H     H_    0.917381 0.396538 0.646308 0.239586
H76   H     H_    0.975065 0.396386 0.626834 0.215311
N12   N     N_2   0.366681 0.067939 0.564368 -0.266960
H77   H     H_    0.354342 0.099541 0.560014 0.278856
C188  C     C_3   0.377477 0.056371 0.627290 -0.662078
H78   H     H_    0.346869 0.052793 0.655069 0.258051
H79   H     H_    0.398172 0.082686 0.647961 0.238087
H80   H     H_    0.396475 0.025022 0.628610 0.215734
N13   N     N_2   0.932747 0.634014 0.435683 -0.266020
H81   H     H_    0.901233 0.646658 0.439626 0.279107
C189  C     C_3   0.944683 0.623241 0.372883 -0.665584
H82   H     H_    0.948763 0.653864 0.345293 0.259782
H83   H     H_    0.918320 0.602850 0.351741 0.239302
H84   H     H_    0.975866 0.603951 0.371924 0.214383
N14   N     N_2   0.365111 0.933033 0.437202 -0.267396
H85   H     H_    0.351844 0.901894 0.441356 0.280109
C190  C     C_3   0.376470 0.944263 0.374375 -0.661295
H86   H     H_    0.346084 0.948928 0.346363 0.259089
H87   H     H_    0.396498 0.917238 0.353827 0.239494
H88   H     H_    0.396339 0.974934 0.373205 0.215325
N15   N     N_2   0.067805 0.366682 0.435387 -0.266912
H89   H     H_    0.099427 0.354352 0.439577 0.279135
C191  C     C_3   0.056056 0.377480 0.372529 -0.661533
H90   H     H_    0.052433 0.346879 0.344744 0.257907
H91   H     H_    0.082303 0.398198 0.351749 0.238704
H92   H     H_    0.024679 0.396446 0.371368 0.215397
N16   N     N_2   0.634873 0.066971 0.437221 -0.267493
H93   H     H_    0.648143 0.098108 0.441401 0.280150
C192  C     C_3   0.623498 0.055755 0.374386 -0.660670
H94   H     H_    0.653876 0.051087 0.346368 0.259136
H95   H     H_    0.603471 0.082789 0.353860 0.239547
H96   H     H_    0.603621 0.025091 0.373194 0.215333
N17   N     N_2   0.532000 0.272886 0.897149 -0.297865
H97   H     H_    0.566032 0.273792 0.896664 0.258698
C193  C     C_3   0.512905 0.281792 0.837248 -0.675089
H98   H     H_    0.522568 0.315091 0.820757 0.222015
H99   H     H_    0.476362 0.279553 0.839172 0.279873
H100  H     H_    0.525161 0.256928 0.803693 0.256984
N18   N     N_2   0.274524 0.475985 0.890309 -0.301799
H101  H     H_    0.290416 0.486144 0.850727 0.246713
C194  C     C_3   0.261473 0.430175 0.886778 -0.654685
H102  H     H_    0.242832 0.424536 0.843415 0.265239
H103  H     H_    0.239702 0.421392 0.925964 0.270273
H104  H     H_    0.291104 0.408401 0.887021 0.239955
N19   N     N_2   0.477860 0.726243 0.891104 -0.302765
H105  H     H_    0.484210 0.709338 0.850738 0.244247
C195  C     C_3   0.436065 0.749750 0.890806 -0.650383
H106  H     H_    0.442262 0.785367 0.882703 0.266697
H107  H     H_    0.414662 0.737072 0.853199 0.247378
H108  H     H_    0.417901 0.745956 0.934986 0.262072
N20   N     N_2   0.725480 0.531875 0.894447 -0.306651
H109  H     H_    0.710005 0.522752 0.854044 0.245517
C196  C     C_3   0.737338 0.578063 0.894173 -0.648565
H110  H     H_    0.759347 0.585793 0.933493 0.274537
H111  H     H_    0.707207 0.599068 0.896603 0.240490
H112  H     H_    0.755384 0.585845 0.850980 0.265885
N21   N     N_2   0.468279 0.274511 0.105625 -0.306380
H113  H     H_    0.477332 0.290025 0.146028 0.245479
C197  C     C_3   0.422119 0.262508 0.105848 -0.649800
H114  H     H_    0.414379 0.244399 0.149001 0.265671
H115  H     H_    0.414461 0.240524 0.066473 0.274075
H116  H     H_    0.401021 0.292573 0.103464 0.240626
N22   N     N_2   0.727089 0.467474 0.102499 -0.297783
H117  H     H_    0.725360 0.433485 0.103277 0.258788
C198  C     C_3   0.718855 0.486929 0.162357 -0.675509
H118  H     H_    0.685301 0.478299 0.178993 0.222414
H119  H     H_    0.722169 0.523368 0.160290 0.280302
H120  H     H_    0.743416 0.474018 0.195878 0.257145
N23   N     N_2   0.524191 0.725481 0.109587 -0.301791
H121  H     H_    0.514110 0.709593 0.149209 0.246733
C199  C     C_3   0.570014 0.738536 0.112939 -0.654731
H122  H     H_    0.575735 0.757185 0.156273 0.265123
H123  H     H_    0.578722 0.760295 0.073710 0.270145
H124  H     H_    0.591795 0.708914 0.112628 0.240087
N24   N     N_2   0.273743 0.521882 0.108971 -0.302882
H125  H     H_    0.290664 0.515485 0.149311 0.244255
C200  C     C_3   0.250189 0.563644 0.109410 -0.649353
H126  H     H_    0.214556 0.557382 0.117301 0.267096
H127  H     H_    0.262752 0.584941 0.147208 0.247607
H128  H     H_    0.254075 0.581945 0.065358 0.261944
N25   N     N_2   0.021808 0.773743 0.390958 -0.302927
H129  H     H_    0.015390 0.790661 0.350629 0.244283
C201  C     C_3   0.063572 0.750182 0.390480 -0.648929
H130  H     H_    0.057295 0.714558 0.382567 0.267018
H131  H     H_    0.081899 0.754056 0.434526 0.262038
H132  H     H_    0.084858 0.762743 0.352680 0.247649
N26   N     N_2   0.774506 0.968446 0.394199 -0.306545
H133  H     H_    0.790006 0.977604 0.353841 0.245486
C202  C     C_3   0.762557 0.922281 0.393753 -0.648379
H134  H     H_    0.744482 0.914609 0.350535 0.266094
H135  H     H_    0.740551 0.914522 0.433054 0.274338
H136  H     H_    0.792650 0.901216 0.396094 0.240469
N27   N     N_2   0.968073 0.227107 0.397171 -0.297745
H137  H     H_    0.934045 0.226104 0.396557 0.258811
C203  C     C_3   0.987283 0.218276 0.337324 -0.675419
H138  H     H_    0.977759 0.184947 0.320775 0.222013
H139  H     H_    0.974992 0.243106 0.303750 0.257136
H140  H     H_    0.023815 0.220639 0.339367 0.279800
N28   N     N_2   0.225480 0.031589 0.394271 -0.306346
H141  H     H_    0.209985 0.022419 0.353904 0.245408
C204  C     C_3   0.237396 0.077763 0.393846 -0.650272
H142  H     H_    0.255466 0.085445 0.350638 0.265968
H143  H     H_    0.259398 0.085539 0.433157 0.274562
H144  H     H_    0.207289 0.098808 0.396184 0.239962
N29   N     N_2   0.976047 0.774542 0.609657 -0.301904
H145  H     H_    0.986226 0.790437 0.649236 0.246574
C205  C     C_3   0.930232 0.761487 0.613214 -0.654456
H146  H     H_    0.924618 0.742852 0.656575 0.265174
H147  H     H_    0.921428 0.739716 0.574027 0.270255
H148  H     H_    0.908450 0.791109 0.612993 0.240033
N30   N     N_2   0.227118 0.967975 0.602799 -0.297496
H149  H     H_    0.225906 0.933962 0.603509 0.258877
C206  C     C_3   0.218469 0.987310 0.662621 -0.675264
H150  H     H_    0.221110 0.023810 0.660518 0.279818
H151  H     H_    0.243230 0.974868 0.696198 0.257522
H152  H     H_    0.185069 0.978063 0.679207 0.221834
N31   N     N_2   0.031651 0.225487 0.605756 -0.306263
H153  H     H_    0.022541 0.209982 0.646131 0.245333
C207  C     C_3   0.077820 0.237455 0.606109 -0.650229
H154  H     H_    0.085528 0.255543 0.649303 0.265958
H155  H     H_    0.085534 0.259450 0.566780 0.274443
H156  H     H_    0.098900 0.207376 0.603741 0.239966
N32   N     N_2   0.772889 0.031953 0.602821 -0.297761
H157  H     H_    0.774005 0.065970 0.603519 0.258903
C208  C     C_3   0.781625 0.012656 0.662637 -0.674948
H158  H     H_    0.814997 0.022023 0.679218 0.222025
H159  H     H_    0.756833 0.025016 0.696222 0.257220
H160  H     H_    0.779111 0.976145 0.660527 0.279917

loop_
_geom_bond_atom_site_label_1
_geom_bond_atom_site_label_2
_ccdc_geom_bond_type
C203  H138  S    
O3    Zn3   S    
C186  H70   S    
C104  Br6   S    
C81   C126  A    
C195  H107  S    
N27   H137  S    
C159  N7    S    
C83   C128  A    
N22   H117  S    
C191  H92   S    
C15   C151  A    
N7    H57   S    
C177  H35   S    
C182  H54   S    
C2    O8    A    
O46   Zn12  S    
C150  Br30  S    
N18   C194  S    
C92   C119  A    
O42   Zn11  S    
N17   C193  S    
C22   C60   A    
C87   C124  A    
O47   Zn12  S    
C3    O7    A    
C22   C38   A    
C156  N4    S    
C77   O27   A    
C204  H144  S    
C165  N13   S    
C154  C170  A    
O34   Zn9   S    
C84   H4    S    
C167  N15   S    
C196  H111  S    
O39   Zn10  S    
C18   C58   A    
C5    O9    A    
C144  C160  A    
C69   O41   A    
C188  H80   S    
C125  C135  A    
C189  H83   S    
O48   Zn12  S    
C126  C136  A    
C98   C109  A    
C114  C130  A    
C142  C158  A    
C71   O43   A    
C89   C105  A    
C197  H116  S    
C6    O16   A    
C4    O6    A    
N28   H141  S    
C84   C100  A    
C90   C117  A    
C91   C107  A    
C151  Br31  S    
O16   Zn8   S    
C25   C41   A    
C73   O19   A    
C28   N28   S    
C200  H128  S    
C90   H10   S    
N29   H145  S    
C79   C130  S    
C28   C44   A    
C29   C45   A    
C202  H136  S    
C94   H14   S    
C82   C125  A    
N30   C206  S    
C7    O15   A    
O14   Zn6   S    
O44   Zn11  S    
O1    Zn1   S    
C177  H34   S    
C76   C133  S    
C48   H32   S    
C86   C121  A    
C137  C153  A    
N32   C208  S    
C112  Br14  S    
C184  H64   S    
C140  C156  A    
C87   C103  A    
C141  C157  A    
C186  H72   S    
C76   O22   A    
C190  H86   S    
O33   Zn9   S    
C191  H90   S    
O43   Zn11  S    
C197  H114  S    
C21   N21   S    
O25   Zn5   S    
C66   O38   A    
C182  H56   S    
C193  H99   S    
O35   Zn9   S    
C189  H82   S    
C163  N11   S    
C192  H94   S    
C22   N22   S    
N13   C189  S    
C162  N10   S    
C32   C62   A    
C77   O25   A    
C206  H151  S    
C19   C35   A    
C194  H102  S    
C158  C172  A    
C145  C161  A    
C151  C167  A    
C93   C114  A    
N25   H129  S    
C207  H156  S    
C116  C130  A    
C100  C111  A    
C78   O28   A    
C180  H46   S    
C10   C138  A    
N2    C178  S    
N19   H105  S    
C11   C143  A    
C118  C121  A    
C104  C107  A    
C52   C65   S    
C199  H123  S    
C39   C51   A    
N4    C180  S    
N9    H65   S    
N18   H101  S    
C185  H66   S    
C13   C145  A    
C163  C175  A    
C70   O46   A    
C146  Br26  S    
C75   C134  S    
C198  H118  S    
C68   O40   A    
C168  C174  A    
C203  H139  S    
C10   C58   S    
N24   C200  S    
C87   H7    S    
C109  Br15  S    
N3    C179  S    
C110  Br16  S    
C193  H98   S    
C14   C62   S    
C75   O21   A    
O36   Zn9   S    
N5    C181  S    
C122  C134  A    
C74   O20   A    
C92   C108  A    
N20   H109  S    
C12   C142  A    
C76   O24   A    
C190  H88   S    
C119  C131  A    
N20   C196  S    
C50   C67   S    
C36   C52   A    
C157  C169  A    
C45   C53   A    
O32   Zn8   S    
N11   C187  S    
C88   C104  A    
C94   C113  A    
C178  H39   S    
C3    O3    A    
C192  H96   S    
C29   C61   A    
O9    Zn5   S    
C49   C66   S    
C82   C98   A    
C1    O1    A    
C148  C164  A    
C31   C63   A    
C149  C165  A    
C194  H104  S    
C181  H51   S    
C113  C126  A    
C19   C59   A    
C65   O33   A    
C156  C172  A    
C115  C128  A    
C30   N30   S    
C117  C122  A    
C36   H20   S    
N6    C182  S    
C207  H154  S    
C139  C155  A    
C95   C116  A    
C78   O26   A    
C180  H48   S    
N31   H153  S    
C35   C51   A    
C17   C33   A    
C10   C144  A    
C208  H159  S    
C41   C53   A    
C43   C55   A    
N10   C186  S    
N8    C184  S    
C187  H76   S    
C42   H26   S    
C184  H63   S    
C86   C102  A    
C8    O14   A    
C189  H84   S    
C167  C175  A    
C198  H120  S    
C101  C106  A    
C46   H30   S    
C91   H11   S    
C179  H44   S    
O27   Zn7   S    
C80   C129  S    
C4    C172  S    
C5    C173  S    
C30   C46   A    
C191  H91   S    
C20   N20   S    
C34   C50   A    
C8    C176  S    
C93   H13   S    
C83   H3    S    
O41   Zn11  S    
C32   N32   S    
C94   C110  A    
C74   O18   A    
C147  C163  A    
N17   H97   S    
C67   O37   A    
C34   H18   S    
C149  Br29  S    
C204  H143  S    
C117  C131  A    
C118  C132  A    
N26   H133  S    
C153  N1    S    
O26   Zn6   S    
C183  H60   S    
C56   C69   S    
C46   C56   A    
N32   H157  S    
C44   H28   S    
O8    Zn4   S    
O31   Zn5   S    
C83   C99   A    
N15   C191  S    
C138  C154  A    
O38   Zn10  S    
C93   C109  A    
C188  H79   S    
C142  Br22  S    
C30   C64   A    
O29   Zn7   S    
C111  Br13  S    
O18   Zn2   S    
N14   H85   S    
C197  H115  S    
C100  Br2   S    
C154  N2    S    
C144  Br24  S    
C158  N6    S    
C146  C162  A    
C26   C42   A    
N21   H113  S    
C159  C171  A    
C123  C133  A    
C17   N17   S    
C127  C135  A    
C31   N31   S    
C155  N3    S    
C19   N19   S    
C200  H127  S    
C2    O2    A    
C33   C49   A    
C102  C105  A    
N16   C192  S    
C202  H135  S    
C11   C139  A    
C71   O45   A    
C39   H23   S    
N7    C183  S    
C6    O10   A    
C9    C137  A    
C54   C71   S    
N12   H77   S    
N23   C199  S    
C116  C127  A    
C85   H5    S    
C187  H74   S    
C12   C140  A    
C86   H6    S    
C20   C60   A    
C70   O42   A    
C120  C123  A    
C35   H19   S    
C182  H55   S    
C33   H17   S    
C179  H42   S    
C186  H71   S    
C31   C47   A    
C195  H108  S    
N27   C203  S    
C89   H9    S    
C202  H134  S    
C72   O48   A    
C11   C59   S    
C53   C70   S    
C152  C168  A    
C177  H36   S    
N1    C177  S    
O45   Zn12  S    
C185  H68   S    
C201  H130  S    
O11   Zn7   S    
C103  Br5   S    
C67   O35   A    
C97   Br3   S    
C40   H24   S    
C98   Br4   S    
C178  H38   S    
O4    Zn4   S    
N2    H37   S    
C23   C59   A    
N24   H125  S    
C206  H150  S    
C161  C173  A    
C44   C56   A    
C183  H58   S    
C73   C136  S    
C74   C135  S    
O20   Zn4   S    
C139  Br19  S    
C85   C122  A    
N12   C188  S    
C25   C61   A    
C140  Br20  S    
C90   C106  A    
C27   C63   A    
C2    C170  S    
C28   C64   A    
C207  H155  S    
C128  C136  A    
O28   Zn8   S    
C1    O5    A    
O30   Zn6   S    
C41   H25   S    
O15   Zn5   S    
C92   H12   S    
N22   C198  S    
N15   H89   S    
C14   C146  A    
C45   H29   S    
N1    H33   S    
O13   Zn7   S    
C13   C149  A    
C185  H67   S    
C143  C159  A    
C124  C134  A    
O2    Zn2   S    
C6    C174  S    
C205  H147  S    
C201  H132  S    
C181  H50   S    
N6    H53   S    
C42   C54   A    
C15   C147  A    
O7    Zn1   S    
N3    H41   S    
C32   C48   A    
C23   N23   S    
C147  Br27  S    
C40   C50   A    
C99   Br1   S    
C164  C176  A    
N5    H49   S    
C152  Br32  S    
C88   H8    S    
C81   H1    S    
N4    H45   S    
C20   C36   A    
C27   C43   A    
C21   C37   A    
C24   C58   A    
C18   N18   S    
O24   Zn4   S    
C153  C169  A    
C195  H106  S    
C190  H87   S    
C145  Br25  S    
C17   C57   A    
N26   C202  S    
C161  N9    S    
C193  H100  S    
C5    O13   A    
N8    H61   S    
C29   N29   S    
O37   Zn10  S    
C79   O31   A    
C205  H146  S    
C201  H131  S    
C196  H110  S    
N16   H93   S    
C119  C124  A    
C48   C54   A    
C96   C112  A    
C113  C129  A    
C206  H152  S    
C194  H103  S    
C168  N16   S    
N14   C190  S    
C38   C52   A    
C26   N26   S    
C165  C173  A    
C37   C49   A    
C80   O30   A    
N25   C201  S    
N31   C207  S    
C27   N27   S    
N10   H69   S    
C180  H47   S    
C7    C175  S    
C96   C115  A    
C103  C108  A    
C37   H21   S    
N19   C195  S    
C208  H158  S    
C55   C72   S    
O19   Zn3   S    
C199  H124  S    
C7    O11   A    
O23   Zn1   S    
C84   C127  A    
C65   O39   A    
N21   C197  S    
C25   N25   S    
O5    Zn3   S    
C187  H75   S    
C82   H2    S    
O12   Zn8   S    
C88   C123  A    
C108  Br10  S    
C198  H119  S    
C148  Br28  S    
C203  H140  S    
C179  H43   S    
C150  C166  A    
O22   Zn2   S    
C205  H148  S    
N30   H149  S    
C114  C125  A    
C9    C141  A    
C66   O34   A    
C192  H95   S    
C77   C132  S    
C78   C131  S    
C21   C57   A    
C8    O12   A    
C166  N14   S    
C137  Br17  S    
C38   H22   S    
C204  H142  S    
C72   O44   A    
C75   O23   A    
C18   C34   A    
O21   Zn3   S    
O40   Zn10  S    
C143  Br23  S    
C183  H59   S    
C157  N5    S    
C43   H27   S    
O10   Zn6   S    
C105  Br11  S    
C106  Br12  S    
C79   O29   A    
C14   C152  A    
C107  Br9   S    
C196  H112  S    
C85   C101  A    
C69   O47   A    
C47   C55   A    
C188  H78   S    
C115  C129  A    
C178  H40   S    
C15   C63   S    
C120  C132  A    
C160  N8    S    
C101  Br7   S    
C181  H52   S    
C16   C150  A    
C141  Br21  S    
C162  C174  A    
C95   H15   S    
N11   H73   S    
C138  Br18  S    
C166  C176  A    
C4    O4    A    
C47   H31   S    
C16   C148  A    
C121  C133  A    
N29   C205  S    
C80   O32   A    
C164  N12   S    
C26   C62   A    
O17   Zn1   S    
C95   C111  A    
N13   H81   S    
C24   N24   S    
C73   O17   A    
C97   C110  A    
C3    C171  S    
C200  H126  S    
C81   C97   A    
C68   O36   A    
C23   C39   A    
C99   C112  A    
C1    C169  S    
C24   C40   A    
C9    C57   S    
C51   C68   S    
C96   H16   S    
C208  H160  S    
C199  H122  S    
C12   C60   S    
C155  C171  A    
C13   C61   S    
C89   C118  A    
N9    C185  S    
N23   H121  S    
N28   C204  S    
C160  C170  A    
C91   C120  A    
O6    Zn2   S    
C16   C64   S    
C102  Br8   S    
C184  H62   S    
