data_mof_unit_56950.cif
_audit_creation_date              2013-03-05T16:01:06-0500
_audit_creation_method            fapswitch 2.2
_symmetry_space_group_name_H-M    P1
_symmetry_Int_Tables_number       1
_space_group_crystal_system       triclinic
_cell_length_a                    14.807353
_cell_length_b                    14.702848
_cell_length_c                    15.848664
_cell_angle_alpha                 75.569396
_cell_angle_beta                  102.082712
_cell_angle_gamma                 115.595093
_cell_volume                      2993.16338618

loop_
_atom_site_label
_atom_site_type_symbol
_atom_site_description
_atom_site_fract_x
_atom_site_fract_y
_atom_site_fract_z
_atom_type_partial_charge
O1    O     O_R   0.977900 0.338120 0.529810 -0.602470
O2    O     O_R   0.022100 0.661880 0.470190 -0.606634
O3    O     O_R   0.839850 0.379180 0.491620 -0.508395
O4    O     O_R   0.160150 0.620820 0.508380 -0.504394
C1    C     C_R   0.880395 0.312129 0.512925 0.870798
C2    C     C_R   0.119680 0.688002 0.487146 0.869719
O5    O     O_R   0.069010 0.479460 0.640020 -0.575803
O6    O     O_R   0.930990 0.520540 0.359980 -0.573942
O7    O     O_R   0.930960 0.520530 0.601820 -0.524116
O8    O     O_R   0.069040 0.479470 0.398180 -0.524133
C3    C     C_R   0.999449 0.499892 0.659716 0.826106
C4    C     C_R   0.000528 0.500072 0.340289 0.831003
Cu1   Cu    Cu3+1 0.081740 0.475690 0.522610 1.068822
Cu2   Cu    Cu3+1 0.918260 0.524310 0.477390 1.065205
C5    C     C_3   0.980911 0.404167 0.046893 -0.229446
C6    C     C_3   0.018916 0.595547 0.953147 -0.231114
C7    C     C_3   0.908627 0.433787 0.969183 -0.223636
C8    C     C_3   0.091200 0.565927 0.030853 -0.224629
H1    H     H_    0.833348 0.381108 0.943234 0.212702
H2    H     H_    0.166479 0.618607 0.056802 0.212431
H3    H     H_    0.967154 0.326265 0.085784 0.210853
H4    H     H_    0.032673 0.673450 0.914259 0.210140
C9    C     C_1   0.998607 0.500076 0.749125 -0.043593
C10   C     C_1   0.001308 0.499784 0.250893 -0.040603
C11   C     C_3   0.069916 0.470986 0.992944 0.379684
C12   C     C_3   0.929912 0.528728 0.007095 0.380089
C13   C     C_3   0.999393 0.499879 0.916483 -0.003212
C14   C     C_3   0.000436 0.499837 0.083554 -0.003294
C15   C     C_1   0.998635 0.500055 0.824668 0.107898
C16   C     C_1   0.001230 0.499722 0.175360 0.109198
C17   C     C_R   0.811989 0.203194 0.521799 -0.154019
C18   C     C_R   0.187892 0.797307 0.477890 -0.162934
C19   C     C_R   0.773581 0.025933 0.593052 0.372517
C20   C     C_R   0.218500 0.976112 0.420738 0.367872
C21   C     C_R   0.840834 0.129112 0.579815 -0.273519
C22   C     C_R   0.153419 0.872344 0.431033 -0.274191
C23   C     C_R   0.714086 0.174360 0.477636 0.336883
C24   C     C_R   0.288458 0.827071 0.515671 0.340628
C25   C     C_R   0.640075 0.076183 0.504507 -0.033159
C26   C     C_R   0.359815 0.926331 0.486636 -0.027117
C27   C     C_R   0.673051 0.997769 0.550882 -0.117984
C28   C     C_R   0.324329 0.004416 0.443583 -0.124846
C29   C     C_R   0.534844 0.053065 0.486319 0.055130
C30   C     C_R   0.465147 0.949932 0.500787 0.054503
C31   C     C_R   0.502714 0.872743 0.522797 -0.149263
C32   C     C_R   0.497455 0.130214 0.457739 -0.155729
C33   C     C_R   0.604719 0.894673 0.550372 0.367810
C34   C     C_R   0.395842 0.107302 0.427760 0.337826
H5    H     H_    0.074098 0.850900 0.407363 0.207630
H6    H     H_    0.915524 0.151747 0.616002 0.201786
H7    H     H_    0.453293 0.794512 0.516481 0.199283
H8    H     H_    0.547158 0.210061 0.455068 0.207647
N1    N     N_R   0.795440 0.560790 0.443380 -0.231216
N2    N     N_R   0.204560 0.439210 0.556620 -0.230728
C35   C     C_R   0.716768 0.666221 0.349018 -0.169022
C36   C     C_R   0.283352 0.334017 0.651177 -0.170715
C37   C     C_R   0.794364 0.632218 0.370593 0.052164
C38   C     C_R   0.205644 0.367850 0.629454 0.057424
C39   C     C_R   0.717498 0.515745 0.494774 0.492192
C40   C     C_R   0.282626 0.484429 0.505354 0.497418
C41   C     C_R   0.629197 0.536466 0.467583 -0.108404
C42   C     C_R   0.371011 0.463864 0.532689 -0.104747
C43   C     C_R   0.634988 0.620872 0.398874 0.034363
C44   C     C_R   0.365211 0.379459 0.601407 0.027003
C45   C     C_R   0.538244 0.480767 0.509272 0.052318
C46   C     C_R   0.462039 0.519647 0.491107 0.055841
C47   C     C_R   0.481444 0.615288 0.435071 -0.110256
C48   C     C_R   0.518836 0.385112 0.565308 -0.104820
C49   C     C_R   0.562111 0.661785 0.385267 0.419865
C50   C     C_R   0.438131 0.338592 0.615076 0.412989
H9    H     H_    0.142863 0.332783 0.668014 0.159904
H10   H     H_    0.857087 0.667227 0.331971 0.161641
H11   H     H_    0.721848 0.728178 0.293895 0.218075
H12   H     H_    0.278283 0.272096 0.706331 0.218121
H13   H     H_    0.436175 0.657278 0.430588 0.196589
H14   H     H_    0.563970 0.342997 0.569632 0.200595
N3    N     N_R   0.265266 0.531608 0.416164 0.109778
O9    O     O_R   0.262302 0.621635 0.397260 -0.368259
O10   O     O_R   0.264000 0.489168 0.352772 -0.293456
N4    N     N_R   0.734928 0.468553 0.583945 0.110454
O11   O     O_R   0.736231 0.510962 0.647372 -0.293542
O12   O     O_R   0.737843 0.378506 0.602800 -0.367612
N5    N     N_R   0.851645 0.560998 0.013268 0.154149
O13   O     O_R   0.796851 0.583470 0.942526 -0.247998
O14   O     O_R   0.835936 0.567535 0.088829 -0.309088
N6    N     N_R   0.148180 0.438710 0.986774 0.153772
O15   O     O_R   0.202979 0.416249 0.057517 -0.247698
O16   O     O_R   0.163863 0.432130 0.911219 -0.310184
N7    N     N_R   0.638207 0.812723 0.568018 0.155521
O17   O     O_R   0.582848 0.721962 0.607236 -0.294718
O18   O     O_R   0.715442 0.824218 0.533105 -0.294014
N8    N     N_R   0.369275 0.189165 0.376026 0.175045
O19   O     O_R   0.403851 0.276214 0.402739 -0.322116
O20   O     O_R   0.330414 0.184816 0.294751 -0.233400
Cl1   Cl    Cl    0.316628 0.751147 0.615478 -0.527966
Cl2   Cl    Cl    0.694721 0.249207 0.374079 -0.537288
N9    N     N_R   0.805033 0.954248 0.657737 0.170061
O21   O     O_R   0.897172 0.961813 0.665603 -0.278698
O22   O     O_R   0.747804 0.893270 0.718142 -0.250124
N10   N     N_R   0.174340 0.050006 0.392721 0.171030
O23   O     O_R   0.103614 0.039784 0.326856 -0.278441
O24   O     O_R   0.187851 0.112310 0.444304 -0.274333
Cl3   Cl    Cl    0.572919 0.776980 0.311695 -0.505003
Cl4   Cl    Cl    0.427303 0.223403 0.688663 -0.504447

loop_
_geom_bond_atom_site_label_1
_geom_bond_atom_site_label_2
_geom_bond_distance
_ccdc_geom_bond_type
C50   Cl4   1.764477 S    
C2    C18   1.471899 S    
C12   N5    1.457230 S    
C13   C15   1.452204 S    
C20   C28   1.426196 A    
O7    Cu2   1.930435 S    
N9    O21   1.301504 A    
N1    C39   1.377805 A    
C25   C27   1.421853 A    
N2    C40   1.377797 A    
N3    O9    1.300301 A    
O5    C3    1.302800 A    
O1    C1    1.309455 A    
C7    C12   1.538671 S    
C18   C22   1.395982 A    
N6    O16   1.300275 A    
C38   H9    1.081741 S    
C5    C11   1.538683 S    
C31   H7    1.080740 S    
C32   H8    1.078626 S    
C40   C42   1.425201 A    
C3    C9    1.420370 S    
O4    Cu1   1.918670 S    
C41   C43   1.416638 A    
C11   N6    1.457230 S    
C42   C44   1.416685 A    
C7    H1    1.110155 S    
C43   C49   1.404135 A    
C35   C43   1.405582 A    
C24   Cl1   1.779948 S    
C20   N10   1.434212 S    
C36   C44   1.405584 A    
C44   C50   1.404118 A    
N7    O18   1.301538 A    
C19   N9    1.436809 S    
C6    C13   1.544476 S    
C31   C33   1.396230 A    
C46   C47   1.408538 A    
Cu1   Cu2   2.719917 S    
C33   N7    1.437395 S    
O2    C2    1.310298 A    
C8    C11   1.538657 S    
N8    O20   1.301295 A    
N9    O22   1.301461 A    
N3    O10   1.301378 A    
C6    C12   1.538662 S    
C32   C34   1.394853 A    
C40   N3    1.434774 S    
C39   C41   1.425108 A    
C36   H12   1.081832 S    
C42   C46   1.439120 A    
C7    C13   1.544415 S    
C8    C14   1.544403 S    
N4    O12   1.300308 A    
N1    C37   1.355295 A    
N6    O15   1.300241 A    
C25   C29   1.424697 A    
O6    Cu2   1.925726 S    
C17   C23   1.401174 A    
C23   Cl2   1.778293 S    
C47   C49   1.391890 A    
C29   C30   1.410895 A    
N5    O13   1.300237 A    
C26   C30   1.424106 A    
O6    C4    1.302793 A    
C45   C48   1.408678 A    
C21   H6    1.083702 S    
N10   O24   1.301522 A    
C27   C33   1.413863 A    
C28   C34   1.417953 A    
O7    C3    1.303859 A    
O3    Cu2   1.918668 S    
O8    C4    1.303853 A    
O4    C2    1.307422 A    
N5    O14   1.300278 A    
C18   C24   1.400640 A    
C35   C37   1.390566 A    
C11   C13   1.528509 S    
C17   C21   1.397365 A    
O1    Cu1   1.933830 S    
C9    C15   1.197094 T    
C30   C31   1.409259 A    
Cu1   N2    2.043033 S    
N2    C38   1.355242 A    
C5    C7    1.560663 S    
C6    H4    1.110132 S    
C49   Cl3   1.764484 S    
N4    O11   1.301362 A    
O3    C1    1.306500 A    
O8    Cu1   1.930435 S    
C39   N4    1.434775 S    
C48   H14   1.073307 S    
C4    C10   1.420340 S    
C12   C14   1.528498 S    
C19   C27   1.422273 A    
C14   C16   1.452183 S    
C23   C25   1.410036 A    
C24   C26   1.412287 A    
C5    C14   1.544469 S    
C5    H3    1.110133 S    
C26   C28   1.428418 A    
N8    O19   1.300985 A    
C19   C21   1.400221 A    
C20   C22   1.398009 A    
C36   C38   1.390441 A    
C8    H2    1.110157 S    
C37   H10   1.081730 S    
O2    Cu2   1.933829 S    
C29   C32   1.407089 A    
C10   C16   1.197078 T    
C35   H11   1.081830 S    
C41   C45   1.439061 A    
O5    Cu1   1.925727 S    
Cu2   N1    2.043034 S    
C47   H13   1.072963 S    
C6    C8    1.560630 S    
C45   C46   1.422056 A    
C34   N8    1.434554 S    
C48   C50   1.391964 A    
N10   O23   1.301365 A    
N7    O17   1.301452 A    
C22   H5    1.083600 S    
C1    C17   1.468578 S    
