data_mof_unit_46994.cif
_audit_creation_date              2012-12-10T17:55:51-0500
_audit_creation_method            fapswitch 2.2
_symmetry_space_group_name_H-M    P1
_symmetry_Int_Tables_number       1
_space_group_crystal_system       triclinic
_cell_length_a                    11.030639
_cell_length_b                    10.76334
_cell_length_c                    9.598136
_cell_angle_alpha                 88.869714
_cell_angle_beta                  101.846833
_cell_angle_gamma                 91.581195
_cell_volume                      1114.74085275

loop_
_atom_site_label
_atom_site_type_symbol
_atom_type_description
_atom_site_fract_x
_atom_site_fract_y
_atom_site_fract_z
_atom_type_partial_charge
C1    C     C_R   0.499709 0.262409 0.500765 0.784850
C2    C     C_R   0.500291 0.737591 0.499235 0.784849
C3    C     C_R   0.263161 0.499466 0.442531 0.863228
C4    C     C_R   0.736839 0.500535 0.557469 0.863225
C5    C     C_R   0.433892 0.412586 0.062526 -0.082489
C6    C     C_R   0.566108 0.587414 0.937473 -0.082489
C7    C     C_R   0.433456 0.411507 0.914776 0.090772
C8    C     C_R   0.566545 0.588492 0.085224 0.090772
C9    C     C_2   0.128689 0.490146 0.410758 -0.357718
C10   C     C_2   0.871311 0.509858 0.589241 -0.357706
C11   C     C_2   0.066032 0.513793 0.511468 -0.170406
C12   C     C_2   0.933968 0.486216 0.488529 -0.170384
C13   C     C_R   0.432207 0.064735 0.383234 -0.197494
C14   C     C_R   0.567793 0.935265 0.616765 -0.197496
C15   C     C_R   0.432304 0.936099 0.382377 -0.195909
C16   C     C_R   0.567695 0.063901 0.617623 -0.195896
C17   C     C_R   0.500684 0.871509 0.498739 0.008720
C18   C     C_R   0.499317 0.128491 0.501261 0.008721
Cu1   Cu    Cu3+1 0.500000 0.500020 0.640660 0.941376
Cu2   Cu    Cu3+1 0.500000 0.499980 0.359340 0.941375
H1    H     H_    0.380649 0.343026 0.108876 0.132366
H2    H     H_    0.619351 0.656974 0.891124 0.132366
H3    H     H_    0.918850 0.542133 0.693331 0.142902
H4    H     H_    0.081150 0.457868 0.306669 0.142903
H5    H     H_    0.378496 0.887098 0.291937 0.135241
H6    H     H_    0.621501 0.112902 0.708064 0.135247
N1    N     N_R   0.500030 0.500030 0.852080 -0.179144
N2    N     N_R   0.499970 0.499970 0.147920 -0.179145
O1    O     O_R   0.499990 0.319660 0.618740 -0.573068
O2    O     O_R   0.500010 0.680340 0.381260 -0.573076
O3    O     O_R   0.499990 0.319630 0.381170 -0.596137
O4    O     O_R   0.500010 0.680370 0.618830 -0.596135
O5    O     O_R   0.320690 0.500020 0.575130 -0.573131
O6    O     O_R   0.679310 0.499980 0.424870 -0.573125
O7    O     O_R   0.320680 0.499990 0.337560 -0.586848
O8    O     O_R   0.679320 0.500010 0.662440 -0.586849
H7    H     H_    0.887240 0.446719 0.387903 0.170638
H8    H     H_    0.112759 0.553291 0.612093 0.170637
C19   C     C_R   0.357882 0.311792 0.834106 0.150259
C20   C     C_R   0.232103 0.330275 0.777225 -0.119361
C21   C     C_R   0.156426 0.232610 0.712155 -0.147798
C22   C     C_R   0.204752 0.114224 0.709596 -0.129908
C23   C     C_R   0.327996 0.093067 0.774577 -0.132599
C24   C     C_R   0.404085 0.191172 0.838150 -0.150619
H9    H     H_    0.192491 0.419547 0.786855 0.113849
H10   H     H_    0.059819 0.248137 0.666311 0.142744
H11   H     H_    0.146021 0.038346 0.660196 0.124984
H12   H     H_    0.364341 0.000536 0.776445 0.141135
H13   H     H_    0.498765 0.173351 0.890716 0.113619
C25   C     C_R   0.642132 0.688199 0.165897 0.150266
C26   C     C_R   0.767916 0.669709 0.222747 -0.119394
C27   C     C_R   0.843606 0.767368 0.287812 -0.147777
C28   C     C_R   0.795287 0.885757 0.290395 -0.129914
C29   C     C_R   0.672035 0.906920 0.225445 -0.132613
C30   C     C_R   0.595933 0.808820 0.161879 -0.150589
H14   H     H_    0.807522 0.580437 0.213097 0.113838
H15   H     H_    0.940217 0.751837 0.333635 0.142745
H16   H     H_    0.854028 0.961631 0.339790 0.124982
H17   H     H_    0.635694 0.999453 0.223596 0.141138
H18   H     H_    0.501245 0.826647 0.109340 0.113621
H19   H     H_    0.378902 0.114377 0.292787 0.135926
H20   H     H_    0.621098 0.885623 0.707213 0.135925

loop_
_geom_bond_atom_site_label_1
_geom_bond_atom_site_label_2
_ccdc_geom_bond_type
C24   H13   S    
C11   H8    S    
C21   H10   S    
C4    O8    A    
C9    H4    S    
C19   C24   A    
C3    C9    S    
C10   H3    S    
C5    N2    A    
Cu1   N1    S    
C23   H12   S    
C7    N1    A    
C6    N1    A    
C12   H7    S    
C3    O7    A    
C28   H16   S    
C25   C30   A    
Cu2   O6    S    
C1    O1    A    
C25   C26   A    
C13   H19   S    
Cu1   O1    S    
Cu2   O2    S    
C28   C29   A    
C2    C17   S    
C9    C11   D    
C14   C17   A    
C30   H18   S    
C1    C18   S    
C10   C12   D    
C13   C18   A    
C22   C23   A    
Cu1   O4    S    
C16   C18   A    
C20   C21   A    
C4    O6    A    
C29   H17   S    
C13   C15   A    
C23   C24   A    
C16   H6    S    
C20   H9    S    
C8    N2    A    
C14   C16   A    
C15   H5    S    
C27   H15   S    
C3    O5    A    
C4    C10   S    
C26   C27   A    
C14   H20   S    
C8    C25   S    
C1    O3    A    
C22   H11   S    
C5    H1    S    
C27   C28   A    
C2    O4    A    
C26   H14   S    
C21   C22   A    
C19   C20   A    
C15   C17   A    
C7    C19   S    
C5    C7    A    
C2    O2    A    
C6    C8    A    
Cu2   N2    S    
Cu1   O8    S    
C29   C30   A    
Cu2   O7    S    
Cu1   Cu2   S    
C11   C12   S    
Cu1   O5    S    
Cu2   O3    S    
C6    H2    S    
