data_mof_unit_55254.cif
_audit_creation_date              2012-12-10T19:52:17-0500
_audit_creation_method            fapswitch 2.2
_symmetry_space_group_name_H-M    P1
_symmetry_Int_Tables_number       1
_space_group_crystal_system       triclinic
_cell_length_a                    14.925732
_cell_length_b                    14.185315
_cell_length_c                    10.620696
_cell_angle_alpha                 89.921064
_cell_angle_beta                  90.78889
_cell_angle_gamma                 89.719062
_cell_volume                      2248.43718769

loop_
_atom_site_label
_atom_site_type_symbol
_atom_type_description
_atom_site_fract_x
_atom_site_fract_y
_atom_site_fract_z
_atom_type_partial_charge
C1    C     C_R   0.327820 0.499929 0.500067 0.927235
C2    C     C_3   0.594174 0.489308 0.930672 0.666303
C3    C     C_R   0.099701 0.557514 0.382388 0.426142
C4    C     C_R   0.091256 0.425698 0.531102 0.438537
C5    C     C_R   0.191121 0.561862 0.403868 -0.305845
C6    C     C_R   0.183377 0.428996 0.547927 -0.319493
C7    C     C_R   0.232351 0.498606 0.486872 -0.171966
C8    C     C_R   0.049546 0.490466 0.448139 -0.070873
C9    C     C_R   0.903623 0.416449 0.409297 -0.229335
C10   C     C_R   0.911448 0.578212 0.480223 -0.234510
C11   C     C_R   0.811409 0.415886 0.427462 0.386889
C12   C     C_R   0.819120 0.582434 0.487381 0.419629
C13   C     C_R   0.768869 0.499095 0.470780 -0.265484
C14   C     C_R   0.953156 0.495440 0.442455 0.023549
C15   C     C_R   0.474363 0.103036 0.396489 0.286791
C16   C     C_R   0.423891 0.898319 0.480028 0.278325
C17   C     C_R   0.494923 0.500022 0.257770 0.899112
C18   C     C_R   0.463264 0.201823 0.402548 0.565411
C19   C     C_R   0.425742 0.799198 0.465093 0.551115
C20   C     C_R   0.539401 0.206319 0.599272 -0.121171
C21   C     C_R   0.574059 0.793049 0.545415 -0.147837
C22   C     C_R   0.542180 0.107121 0.604262 -0.327934
C23   C     C_R   0.578262 0.892222 0.548728 -0.344696
C24   C     C_R   0.508964 0.053307 0.503030 -0.030382
C25   C     C_R   0.503631 0.946993 0.512221 -0.019459
C26   C     C_R   0.672622 0.499794 0.492672 0.971541
C27   C     C_R   0.497853 0.499975 0.742050 1.035616
C28   C     C_3   0.448242 0.590933 0.069806 -0.508870
C29   C     C_3   0.439700 0.413033 0.071984 -0.498548
C30   C     C_3   0.453628 0.594473 0.926044 0.276304
C31   C     C_3   0.438000 0.414570 0.925871 0.322153
C32   C     C_3   0.591604 0.493292 0.076675 -0.522314
C33   C     C_3   0.493414 0.499495 0.121327 -0.008084
C34   C     C_3   0.495393 0.499897 0.878357 -0.071672
H1    H     H_    0.481553 0.654884 0.108623 0.159532
H2    H     H_    0.474123 0.347000 0.103222 0.225435
H3    H     H_    0.567743 0.246480 0.676439 0.192906
H4    H     H_    0.630880 0.752513 0.579005 0.225590
H5    H     H_    0.569872 0.072685 0.687198 0.181482
H6    H     H_    0.639651 0.925694 0.579749 0.182718
H7    H     H_    0.377205 0.592996 0.099247 0.181634
H8    H     H_    0.373468 0.410398 0.117119 0.171809
H9    H     H_    0.499591 0.653225 0.901004 0.075437
H10   H     H_    0.474396 0.349131 0.898978 0.168778
H11   H     H_    0.630074 0.554500 0.113897 0.157488
H12   H     H_    0.624438 0.429385 0.117860 0.209207
H13   H     H_    0.230219 0.612480 0.352910 0.186302
H14   H     H_    0.216310 0.378381 0.609812 0.187433
H15   H     H_    0.937215 0.354822 0.372021 0.169203
H16   H     H_    0.950625 0.639945 0.503969 0.180183
N1    N     N_R   0.499980 0.252470 0.500000 -0.167997
N2    N     N_R   0.499980 0.747530 0.500000 -0.167301
O1    O     O_R   0.369070 0.579480 0.500010 -0.573090
O2    O     O_R   0.369070 0.420520 0.500010 -0.643375
O3    O     O_R   0.499990 0.579480 0.314790 -0.647855
O4    O     O_R   0.499990 0.420520 0.314790 -0.584515
O5    O     O_R   0.630940 0.579480 0.499990 -0.595398
O6    O     O_R   0.630940 0.420520 0.499990 -0.585096
O7    O     O_R   0.500020 0.579480 0.685200 -0.627833
O8    O     O_R   0.500020 0.420520 0.685200 -0.613063
Zn1   Zn    Zn3+2 0.500010 0.606140 0.500000 0.969920
Zn2   Zn    Zn3+2 0.500010 0.393860 0.500000 0.990498
O9    O     O_3   0.761652 0.339555 0.385812 -0.623964
C35   C     C_3   0.779531 0.260271 0.463065 0.099903
H17   H     H_    0.748985 0.270949 0.557089 0.153688
H18   H     H_    0.852617 0.246580 0.475847 0.134594
C36   C     C_3   0.738340 0.173389 0.401050 -0.287786
H19   H     H_    0.664866 0.183586 0.390313 0.232084
H20   H     H_    0.766824 0.164053 0.305681 0.223176
C37   C     C_3   0.757163 0.084742 0.478527 -0.998982
H21   H     H_    0.830326 0.070315 0.483517 0.268174
H22   H     H_    0.723293 0.023929 0.433213 0.278470
H23   H     H_    0.731558 0.092953 0.575541 0.269239
O10   O     O_3   0.778788 0.668588 0.510037 -0.630226
C38   C     C_3   0.779324 0.723856 0.398319 0.089986
H24   H     H_    0.708910 0.740897 0.371574 0.160462
H25   H     H_    0.808861 0.687881 0.314681 0.125156
C39   C     C_3   0.829695 0.815752 0.422822 -0.340174
H26   H     H_    0.795474 0.856262 0.497818 0.222749
H27   H     H_    0.899080 0.799617 0.455602 0.231145
C40   C     C_3   0.833968 0.875802 0.303702 -0.963499
H28   H     H_    0.869394 0.836962 0.228296 0.266163
H29   H     H_    0.871233 0.941691 0.324034 0.272798
H30   H     H_    0.765322 0.894507 0.270153 0.262857
O11   O     O_3   0.449671 0.058410 0.285924 -0.750709
H31   H     H_    0.479634 0.996088 0.282400 0.333907
O12   O     O_3   0.342817 0.944259 0.463755 -0.779528
H32   H     H_    0.344839 0.005377 0.508556 0.336205
O13   O     O_3   0.415713 0.247191 0.307674 -0.620317
C41   C     C_3   0.325170 0.258086 0.344367 0.110358
H33   H     H_    0.300995 0.327203 0.307723 0.164073
H34   H     H_    0.315964 0.259204 0.448614 0.136966
C42   C     C_3   0.265736 0.181018 0.287399 -0.355361
H35   H     H_    0.270917 0.181955 0.183254 0.240131
H36   H     H_    0.287971 0.110843 0.322060 0.271181
C43   C     C_3   0.168038 0.195187 0.324309 -0.948559
H37   H     H_    0.160965 0.187067 0.427753 0.279845
H38   H     H_    0.125580 0.141668 0.276500 0.269252
H39   H     H_    0.143962 0.266487 0.296547 0.269188
O14   O     O_3   0.349338 0.754069 0.423104 -0.611602
C44   C     C_3   0.337959 0.768043 0.291594 0.117545
H40   H     H_    0.342641 0.698087 0.246604 0.134735
H41   H     H_    0.389824 0.813341 0.246856 0.100361
C45   C     C_3   0.244982 0.809838 0.262711 -0.286386
H42   H     H_    0.192631 0.768923 0.311598 0.247541
H43   H     H_    0.241392 0.883552 0.296831 0.271897
C46   C     C_3   0.224727 0.809651 0.121604 -1.003757
H44   H     H_    0.275921 0.851104 0.071035 0.268383
H45   H     H_    0.223960 0.736254 0.085309 0.264493
H46   H     H_    0.158130 0.842395 0.103244 0.271349
O15   O     O_3   0.366972 0.607791 0.871605 -0.637104
C47   C     C_3   0.351541 0.702939 0.838469 0.080533
H47   H     H_    0.399939 0.725918 0.765781 0.166897
H48   H     H_    0.358176 0.748864 0.922917 0.131426
C48   C     C_3   0.256865 0.712211 0.783339 -0.331954
H49   H     H_    0.250032 0.665572 0.699712 0.248358
H50   H     H_    0.207696 0.689347 0.854568 0.209119
C49   C     C_3   0.235916 0.813492 0.744110 -0.895676
H51   H     H_    0.240329 0.861144 0.826814 0.255223
H52   H     H_    0.166944 0.817510 0.703880 0.266605
H53   H     H_    0.283658 0.837310 0.671599 0.294050
O16   O     O_3   0.354435 0.406560 0.858614 -0.634400
C50   C     C_3   0.275719 0.433924 0.921724 0.188590
H54   H     H_    0.230861 0.468908 0.851352 0.149237
H55   H     H_    0.286131 0.487412 0.996130 0.159043
C51   C     C_3   0.227377 0.346593 0.970360 -0.385689
H56   H     H_    0.201864 0.305032 0.888880 0.228267
H57   H     H_    0.274687 0.301192 0.024734 0.235959
C52   C     C_3   0.149265 0.373811 0.053886 -1.042647
H58   H     H_    0.174669 0.405724 0.142843 0.257536
H59   H     H_    0.109785 0.310105 0.076780 0.287088
H60   H     H_    0.104786 0.425110 0.004461 0.261954
O17   O     O_3   0.650226 0.560114 0.880903 -0.776193
H61   H     H_    0.641096 0.619931 0.927137 0.305838
O18   O     O_3   0.629014 0.401180 0.893764 -0.793595
H62   H     H_    0.693515 0.399882 0.918006 0.360299
O19   O     O_3   0.058599 0.622963 0.303857 -0.647229
C53   C     C_3   0.057537 0.586813 0.180220 0.066064
H63   H     H_    0.024089 0.516667 0.176780 0.151934
H64   H     H_    0.127262 0.580296 0.144825 0.136247
C54   C     C_3   0.005111 0.654417 0.094460 -0.300199
H65   H     H_    0.935437 0.661686 0.129006 0.220557
H66   H     H_    0.036948 0.724971 0.097114 0.229379
C55   C     C_3   0.002420 0.619068 0.958808 -0.993333
H67   H     H_    0.071359 0.609223 0.922989 0.250959
H68   H     H_    0.966679 0.671164 0.898039 0.278055
H69   H     H_    0.966386 0.550987 0.953367 0.271726
O20   O     O_3   0.042767 0.356495 0.591193 -0.650442
C56   C     C_3   0.013325 0.391255 0.708223 0.069891
H70   H     H_    0.979533 0.461188 0.697919 0.151184
H71   H     H_    0.071185 0.398216 0.774650 0.143259
C57   C     C_3   0.946230 0.321483 0.762418 -0.305579
H72   H     H_    0.892235 0.308486 0.691678 0.214208
H73   H     H_    0.980745 0.253453 0.782920 0.224330
C58   C     C_3   0.903632 0.358463 0.882508 -0.975244
H74   H     H_    0.955539 0.370631 0.956319 0.266342
H75   H     H_    0.855408 0.305762 0.918218 0.269118
H76   H     H_    0.866785 0.425246 0.863031 0.276600

loop_
_geom_bond_atom_site_label_1
_geom_bond_atom_site_label_2
_ccdc_geom_bond_type
O6    Zn2   S    
C15   C18   A    
O12   H32   S    
C42   H35   S    
C12   O10   S    
C29   H8    S    
C58   H75   S    
C32   H11   S    
O15   C47   S    
C4    C8    A    
C45   H43   S    
C40   H28   S    
C50   H54   S    
O11   H31   S    
C5    H13   S    
C29   H2    S    
C51   H56   S    
C6    H14   S    
O8    Zn2   S    
C20   N1    A    
C11   O9    S    
N2    Zn1   S    
C56   H71   S    
C39   H27   S    
C50   H55   S    
C23   H6    S    
C4    O20   S    
C43   H39   S    
C29   C33   S    
C28   H7    S    
C47   C48   S    
C2    C32   S    
C1    O1    A    
C49   H51   S    
C45   H42   S    
O1    Zn1   S    
C19   N2    A    
C26   O6    A    
C21   H4    S    
C28   H1    S    
C48   H50   S    
C43   H38   S    
C16   O12   S    
C51   H57   S    
C46   H44   S    
C37   H21   S    
C3    O19   S    
C17   O3    A    
C15   O11   S    
C52   H60   S    
C2    C34   S    
C23   C25   A    
C44   H41   S    
C58   H76   S    
C46   H45   S    
N1    Zn2   S    
C17   C33   S    
C55   H69   S    
C47   H48   S    
C47   H47   S    
C40   H29   S    
C18   N1    A    
C27   C34   S    
O7    Zn1   S    
C2    O17   S    
C31   H10   S    
C30   C34   S    
C36   H19   S    
C44   H40   S    
O18   H62   S    
C9    H15   S    
O20   C56   S    
C55   H68   S    
C3    C8    A    
C10   C14   A    
C56   C57   S    
C5    C7    A    
C9    C14   A    
C39   H26   S    
C50   C51   S    
O2    Zn2   S    
C51   C52   S    
C36   H20   S    
C49   H53   S    
C35   H18   S    
C26   O5    A    
C38   H24   S    
C35   C36   S    
C9    C11   A    
C41   H34   S    
C57   C58   S    
C48   C49   S    
C43   H37   S    
C37   H23   S    
C31   C34   S    
C24   C25   S    
C38   H25   S    
C17   O4    A    
C10   C12   A    
C1    O2    A    
C4    C6    A    
C15   C24   A    
C57   H73   S    
C28   C33   S    
C42   C43   S    
C21   C23   A    
O17   H61   S    
C46   H46   S    
C22   C24   A    
C30   H9    S    
C54   C55   S    
C10   H16   S    
O10   C38   S    
C40   H30   S    
C41   C42   S    
C52   H58   S    
C16   C25   A    
C8    C14   S    
C1    C7    S    
C18   O13   S    
C32   H12   S    
C31   O16   S    
C20   C22   A    
C55   H67   S    
C3    C5    A    
C53   C54   S    
C19   O14   S    
O5    Zn1   S    
C6    C7    A    
C53   H64   S    
C44   C45   S    
O19   C53   S    
C2    O18   S    
C30   O15   S    
C27   O8    A    
C36   C37   S    
C35   H17   S    
C54   H66   S    
O16   C50   S    
C29   C31   S    
C27   O7    A    
C56   H70   S    
C32   C33   S    
C20   H3    S    
C11   C13   A    
C39   C40   S    
C41   H33   S    
C16   C19   A    
C22   H5    S    
O3    Zn1   S    
C28   C30   S    
O14   C44   S    
O4    Zn2   S    
C45   C46   S    
C13   C26   S    
C38   C39   S    
C49   H52   S    
C53   H63   S    
O9    C35   S    
C12   C13   A    
C42   H36   S    
C58   H74   S    
C37   H22   S    
C57   H72   S    
O13   C41   S    
C54   H65   S    
C21   N2    A    
C48   H49   S    
C52   H59   S    
