data_mof_unit_43012.cif
_audit_creation_date              2012-12-10T17:19:23-0500
_audit_creation_method            fapswitch 2.2
_symmetry_space_group_name_H-M    P1
_symmetry_Int_Tables_number       1
_space_group_crystal_system       triclinic
_cell_length_a                    15.006137
_cell_length_b                    10.82086
_cell_length_c                    9.612351
_cell_angle_alpha                 89.666835
_cell_angle_beta                  90.366028
_cell_angle_gamma                 94.707393
_cell_volume                      1555.52819923

loop_
_atom_site_label
_atom_site_type_symbol
_atom_type_description
_atom_site_fract_x
_atom_site_fract_y
_atom_site_fract_z
_atom_type_partial_charge
C1    C     C_R   0.503354 0.261981 0.500895 0.901626
C2    C     C_R   0.913511 0.599391 0.537744 0.168390
C3    C     C_R   0.937176 0.267354 0.456347 0.572266
C4    C     C_R   0.029928 0.264772 0.461217 0.523937
C5    C     C_R   0.085761 0.374882 0.481157 -0.190649
C6    C     C_R   0.046073 0.487289 0.504359 -0.050219
C7    C     C_R   0.099816 0.598752 0.528139 0.149800
C8    C     C_R   0.060275 0.708470 0.557488 -0.156040
C9    C     C_R   0.967657 0.708431 0.564009 -0.167332
C10   C     C_R   0.180011 0.375973 0.479740 0.428655
C11   C     C_R   0.232117 0.489163 0.499333 -0.153183
C12   C     C_R   0.328900 0.494177 0.499765 0.827872
C13   C     C_R   0.192388 0.598902 0.523571 -0.261101
C14   C     C_R   0.531630 0.110398 0.759898 -0.103069
C15   C     C_R   0.512333 0.047911 0.884706 -0.218076
C16   C     C_R   0.462844 0.933656 0.883418 -0.166204
C17   C     C_R   0.441257 0.875628 0.757206 0.656006
C18   C     C_R   0.470714 0.931850 0.630004 -0.117143
C19   C     C_R   0.502145 0.058141 0.630977 -0.045812
C20   C     C_R   0.502299 0.125894 0.503388 -0.259714
C21   C     C_R   0.487417 0.061375 0.377340 0.493346
C22   C     C_R   0.474501 0.933502 0.376780 0.509378
C23   C     C_R   0.487341 0.734685 0.500150 0.915906
C24   C     C_R   0.471764 0.866954 0.502383 -0.316159
C25   C     C_R   0.644980 0.643684 0.135290 0.510837
C26   C     C_R   0.721781 0.670800 0.051349 -0.302045
C27   C     C_R   0.712850 0.679623 0.909974 -0.249831
C28   C     C_R   0.631899 0.643639 0.849726 -0.124069
C29   C     C_R   0.565760 0.571383 0.923550 0.164733
C30   C     C_R   0.568636 0.571121 0.073486 0.136679
C31   C     C_R   0.437000 0.432229 0.073484 -0.002033
C32   C     C_R   0.437365 0.431631 0.925986 -0.013711
C33   C     C_R   0.670843 0.498980 0.500723 0.875935
C34   C     C_R   0.820904 0.599769 0.541866 -0.360599
C35   C     C_R   0.766953 0.494329 0.503457 -0.170885
C36   C     C_R   0.804356 0.383638 0.472342 0.635844
C37   C     C_R   0.897545 0.378765 0.477653 -0.229310
C38   C     C_R   0.952397 0.488391 0.506243 -0.070556
Cu1   Cu    Cu3+1 0.499990 0.499990 0.640660 0.985918
Cu2   Cu    Cu3+1 0.500010 0.500010 0.359340 1.048423
H1    H     H_    0.790812 0.682947 0.571794 0.150180
H2    H     H_    0.572090 0.197356 0.766597 0.189444
H3    H     H_    0.533393 0.090105 0.982581 0.237630
H4    H     H_    0.442127 0.889064 0.980264 0.231693
H5    H     H_    0.385376 0.376304 0.127658 0.121499
H6    H     H_    0.786258 0.704103 0.093101 0.150279
H7    H     H_    0.767464 0.720982 0.847639 0.176827
H8    H     H_    0.625766 0.670344 0.743885 0.194903
H9    H     H_    0.386053 0.375013 0.870859 0.143366
H10   H     H_    0.234092 0.684339 0.540672 0.178330
H11   H     H_    0.101072 0.794132 0.576533 0.169110
H12   H     H_    0.938294 0.794028 0.587765 0.164929
N1    N     N_R   0.500860 0.501210 0.147910 -0.189221
N2    N     N_R   0.500890 0.501290 0.852040 -0.186524
O1    O     O_R   0.499990 0.319640 0.618810 -0.613151
O2    O     O_R   0.500000 0.319660 0.381240 -0.519737
O3    O     O_R   0.370250 0.499960 0.618800 -0.538920
O4    O     O_R   0.370260 0.499980 0.381230 -0.617456
O5    O     O_R   0.500000 0.680340 0.618760 -0.583490
O6    O     O_R   0.500010 0.680360 0.381190 -0.465581
O7    O     O_R   0.629740 0.500020 0.618770 -0.618284
O8    O     O_R   0.629750 0.500040 0.381200 -0.534689
F1    F     F_    0.385551 0.770172 0.759688 -0.659946
F2    F     F_    0.467193 0.875087 0.252095 -0.631098
O9    O     O_3   0.639435 0.700367 0.264994 -0.530397
C39   C     C_3   0.712245 0.787906 0.299213 0.065474
H13   H     H_    0.722985 0.859945 0.216398 0.181236
H14   H     H_    0.773864 0.739330 0.315884 0.139404
C40   C     C_3   0.695070 0.855600 0.433441 -0.716090
H15   H     H_    0.758795 0.902542 0.472837 0.242069
H16   H     H_    0.648660 0.928007 0.413837 0.247783
H17   H     H_    0.667511 0.790041 0.514226 0.197215
F3    F     F_    0.749466 0.281343 0.440276 -0.624832
F4    F     F_    0.886460 0.159519 0.433164 -0.583591
F5    F     F_    0.064002 0.153501 0.445502 -0.618916
O10   O     O_3   0.220742 0.265578 0.477721 -0.549729
C41   C     C_3   0.242601 0.236712 0.339597 0.095114
H18   H     H_    0.305838 0.289650 0.310083 0.143185
H19   H     H_    0.189209 0.256691 0.263288 0.147504
C42   C     C_3   0.257229 0.099398 0.330997 -0.630714
H20   H     H_    0.193006 0.042238 0.344477 0.278023
H21   H     H_    0.285408 0.078597 0.227983 0.211717
H22   H     H_    0.304290 0.074149 0.413929 0.224227
F6    F     F_    0.486997 0.121050 0.252661 -0.646582

loop_
_geom_bond_atom_site_label_1
_geom_bond_atom_site_label_2
_ccdc_geom_bond_type
C8    C9    A    
C39   H14   S    
Cu2   O6    S    
C35   C36   A    
C7    C8    A    
C41   H18   S    
C23   O5    A    
C34   H1    S    
C26   C27   A    
C29   C30   A    
C18   C24   A    
C28   C29   A    
C1    O2    A    
C34   C35   A    
C5    C6    A    
C39   C40   S    
C29   N2    A    
C15   C16   A    
Cu1   O3    S    
Cu2   O8    S    
C18   C19   A    
C40   H16   S    
C3    F4    S    
C4    F5    S    
C10   O10   S    
Cu1   O1    S    
C19   C20   A    
C33   O8    A    
Cu2   O2    S    
C23   C24   S    
C6    C38   A    
C16   H4    S    
C14   H2    S    
C12   O4    A    
C2    C34   A    
C39   H13   S    
C21   C22   A    
C9    H12   S    
C42   H22   S    
C32   N2    A    
C41   H19   S    
C23   O6    A    
Cu1   O7    S    
C30   N1    A    
Cu2   O4    S    
C25   O9    S    
O10   C41   S    
C42   H21   S    
C36   F3    S    
Cu1   Cu2   S    
C4    C5    A    
C25   C26   A    
C40   H17   S    
C37   C38   A    
C2    C38   A    
C31   C32   A    
C21   F6    S    
Cu1   O5    S    
C17   C18   A    
C31   N1    A    
C8    H11   S    
C12   O3    A    
C33   O7    A    
O9    C39   S    
C22   C24   A    
C3    C4    A    
C41   C42   S    
C27   H7    S    
C25   C30   A    
C28   H8    S    
C1    C20   S    
C14   C19   A    
C42   H20   S    
C11   C12   S    
C6    C7    A    
C1    O1    A    
C15   H3    S    
C5    C10   A    
C17   F1    S    
C11   C13   A    
C16   C17   A    
C33   C35   S    
C40   H15   S    
C32   H9    S    
C10   C11   A    
C26   H6    S    
C22   F2    S    
C13   H10   S    
Cu1   N2    S    
C7    C13   A    
C20   C21   A    
C3    C37   A    
C36   C37   A    
Cu2   N1    S    
C31   H5    S    
C27   C28   A    
C14   C15   A    
C2    C9    A    
