data_mof_unit_22878.cif
_audit_creation_date              2012-12-11T15:06:57-0500
_audit_creation_method            fapswitch 2.2
_symmetry_space_group_name_H-M    P1
_symmetry_Int_Tables_number       1
_space_group_crystal_system       triclinic
_cell_length_a                    19.754102
_cell_length_b                    11.380318
_cell_length_c                    18.694713
_cell_angle_alpha                 90.000013
_cell_angle_beta                  89.919998
_cell_angle_gamma                 90.0
_cell_volume                      4202.71624334

loop_
_atom_site_label
_atom_site_type_symbol
_atom_type_description
_atom_site_fract_x
_atom_site_fract_y
_atom_site_fract_z
_atom_type_partial_charge
C1    C     C_R   0.761380 0.523499 0.639303 0.535372
C2    C     C_3   0.252968 0.056720 0.563335 0.068421
C3    C     C_R   0.737093 0.027216 0.149015 0.540774
C4    C     C_R   0.773399 0.131225 0.857933 0.535669
C5    C     C_R   0.226601 0.131226 0.142067 0.535671
C6    C     C_R   0.273399 0.631225 0.857933 0.535668
C7    C     C_R   0.726601 0.631225 0.142067 0.535667
C8    C     C_R   0.966334 0.353988 0.854747 0.551296
C9    C     C_R   0.033665 0.353987 0.145253 0.551307
C10   C     C_R   0.466335 0.853987 0.854747 0.551306
C11   C     C_R   0.533664 0.853987 0.145253 0.551309
C12   C     C_3   0.687520 0.131498 0.465449 -0.234936
C13   C     C_3   0.247032 0.556720 0.436665 0.068421
C14   C     C_3   0.312480 0.131498 0.534551 -0.234936
C15   C     C_3   0.187520 0.631498 0.465449 -0.234936
C16   C     C_3   0.812480 0.631498 0.534551 -0.234936
C17   C     C_3   0.693131 0.145245 0.546632 -0.230824
C18   C     C_3   0.306869 0.145245 0.453368 -0.230824
C19   C     C_3   0.193131 0.645246 0.546632 -0.230824
C20   C     C_3   0.806869 0.645246 0.453368 -0.230824
C21   C     C_3   0.756398 0.939879 0.480581 -0.214988
C22   C     C_3   0.243602 0.939879 0.519419 -0.214988
C23   C     C_3   0.256398 0.439879 0.480581 -0.214988
C24   C     C_3   0.752968 0.556720 0.563335 0.068421
C25   C     C_3   0.743602 0.439879 0.519419 -0.214988
C26   C     C_3   0.638487 0.274762 0.138848 -0.282735
C27   C     C_3   0.361510 0.274765 0.861150 -0.282731
C28   C     C_3   0.138491 0.774753 0.138855 -0.282726
C29   C     C_3   0.861511 0.774758 0.861150 -0.282727
C30   C     C_3   0.911039 0.170835 0.165008 -0.293530
C31   C     C_3   0.088957 0.170835 0.834991 -0.293476
C32   C     C_3   0.411043 0.670825 0.165008 -0.293510
C33   C     C_3   0.588959 0.670831 0.834992 -0.293521
C34   C     C_3   0.760336 0.090711 0.574175 0.067607
C35   C     C_3   0.239664 0.090711 0.425824 0.067607
C36   C     C_3   0.260336 0.590711 0.574175 0.067607
C37   C     C_3   0.739664 0.590711 0.425824 0.067607
C38   C     C_3   0.753729 0.958858 0.561959 -0.263083
C39   C     C_3   0.246271 0.958858 0.438041 -0.263083
C40   C     C_3   0.253729 0.458857 0.561959 -0.263083
C41   C     C_R   0.238620 0.523499 0.360697 0.535370
C42   C     C_3   0.746271 0.458857 0.438041 -0.263083
C43   C     C_3   0.822857 0.133660 0.529649 -0.214151
C44   C     C_3   0.177143 0.133660 0.470351 -0.214151
C45   C     C_3   0.322857 0.633660 0.529649 -0.214151
C46   C     C_3   0.677143 0.633660 0.470351 -0.214151
C47   C     C_3   0.004072 0.205605 0.458979 -0.232704
C48   C     C_3   0.995928 0.205605 0.541021 -0.232704
C49   C     C_3   0.504072 0.705605 0.458979 -0.232704
C50   C     C_3   0.495928 0.705605 0.541021 -0.232704
C51   C     C_3   0.064390 0.405536 0.474210 -0.210230
C52   C     C_R   0.261380 0.023499 0.639303 0.535372
C53   C     C_3   0.935610 0.405536 0.525789 -0.210230
C54   C     C_3   0.564390 0.905536 0.474210 -0.210230
C55   C     C_3   0.435610 0.905536 0.525789 -0.210230
C56   C     C_3   0.941818 0.390129 0.444643 -0.264203
C57   C     C_3   0.058182 0.390129 0.555357 -0.264203
C58   C     C_3   0.441818 0.890129 0.444643 -0.264202
C59   C     C_3   0.558182 0.890129 0.555357 -0.264203
C60   C     C_3   0.010503 0.333286 0.430881 0.067610
C61   C     C_3   0.989497 0.333285 0.569119 0.067610
C62   C     C_3   0.510503 0.833286 0.430881 0.067611
C63   C     C_R   0.738620 0.023499 0.360697 0.535373
C64   C     C_3   0.489497 0.833285 0.569119 0.067610
C65   C     C_3   0.812428 0.022493 0.043561 -0.292730
C66   C     C_3   0.187571 0.022493 0.956439 -0.292727
C67   C     C_3   0.312429 0.522493 0.043561 -0.292731
C68   C     C_3   0.687571 0.522492 0.956439 -0.292729
C69   C     C_R   0.774309 0.121315 0.649509 0.535738
C70   C     C_R   0.225691 0.121315 0.350490 0.535739
C71   C     C_R   0.274309 0.621315 0.649509 0.535738
C72   C     C_R   0.725691 0.621315 0.350490 0.535738
C73   C     C_3   0.813642 0.019273 0.963743 -0.267472
C74   C     C_3   0.810513 0.130546 0.448663 -0.261423
C75   C     C_3   0.186358 0.019273 0.036257 -0.267475
C76   C     C_3   0.313642 0.519273 0.963743 -0.267473
C77   C     C_3   0.686358 0.519273 0.036257 -0.267473
C78   C     C_3   0.687817 0.999954 0.026420 -0.214254
C79   C     C_3   0.312182 0.999956 0.973579 -0.214252
C80   C     C_3   0.187817 0.499958 0.026421 -0.214247
C81   C     C_3   0.812182 0.499955 0.973580 -0.214251
C82   C     C_3   0.731351 0.193860 0.058539 0.023050
C83   C     C_3   0.268648 0.193861 0.941461 0.023047
C84   C     C_3   0.231353 0.693862 0.058539 0.023043
C85   C     C_3   0.189486 0.130546 0.551336 -0.261422
C86   C     C_3   0.768649 0.693860 0.941462 0.023047
C87   C     C_3   0.741897 0.062000 0.072241 0.080486
C88   C     C_3   0.258103 0.062001 0.927759 0.080484
C89   C     C_3   0.241898 0.562002 0.072242 0.080491
C90   C     C_3   0.758103 0.562000 0.927759 0.080486
C91   C     C_3   0.756768 0.099549 0.933852 0.044344
C92   C     C_3   0.243231 0.099550 0.066148 0.044345
C93   C     C_3   0.256768 0.599550 0.933852 0.044344
C94   C     C_3   0.743232 0.599548 0.066148 0.044343
C95   C     C_3   0.690392 0.034695 0.945639 -0.254675
C96   C     C_3   0.310513 0.630546 0.448663 -0.261423
C97   C     C_3   0.309608 0.034697 0.054361 -0.254674
C98   C     C_3   0.190391 0.534698 0.945640 -0.254675
C99   C     C_3   0.809608 0.534695 0.054361 -0.254675
C100  C     C_3   0.752005 0.212838 0.979455 -0.203838
C101  C     C_3   0.247994 0.212839 0.020545 -0.203837
C102  C     C_3   0.252007 0.712839 0.979454 -0.203838
C103  C     C_3   0.747994 0.712838 0.020546 -0.203837
C104  C     C_3   0.001272 0.480342 0.040417 -0.276830
C105  C     C_3   0.998728 0.480342 0.959583 -0.276830
C106  C     C_3   0.501272 0.980342 0.040417 -0.276834
C107  C     C_3   0.689486 0.630546 0.551336 -0.261423
C108  C     C_3   0.498729 0.980341 0.959583 -0.276832
C109  C     C_3   0.065657 0.283042 0.024365 -0.188254
C110  C     C_3   0.934342 0.283042 0.975635 -0.188253
C111  C     C_3   0.565657 0.783041 0.024366 -0.188251
C112  C     C_3   0.434342 0.783044 0.975635 -0.188259
C113  C     C_3   0.943925 0.291203 0.058323 -0.000846
C114  C     C_3   0.056075 0.291202 0.941677 -0.000855
C115  C     C_3   0.443925 0.791203 0.058323 -0.000843
C116  C     C_3   0.556074 0.791201 0.941678 -0.000849
C117  C     C_R   0.969061 0.342238 0.645132 0.529123
C118  C     C_3   0.747032 0.056720 0.436665 0.068420
C119  C     C_R   0.030939 0.342238 0.354868 0.529124
C120  C     C_R   0.469061 0.842238 0.645132 0.529123
C121  C     C_R   0.530939 0.842238 0.354868 0.529123
C122  C     C_3   0.011351 0.352111 0.069259 0.069993
C123  C     C_3   0.988649 0.352112 0.930741 0.069992
C124  C     C_3   0.511350 0.852111 0.069259 0.070001
C125  C     C_3   0.488650 0.852111 0.930741 0.069994
C126  C     C_R   0.762907 0.527217 0.850984 0.540770
C127  C     C_R   0.237093 0.527218 0.149016 0.540766
C128  C     C_R   0.262907 0.027217 0.850984 0.540767
Cr1   Cr    Cr6+3 0.885690 0.492860 0.745310 0.971759
Cr2   Cr    Cr6+3 0.111880 0.178590 0.246990 0.974952
Cr3   Cr    Cr6+3 0.388120 0.678590 0.753010 0.974953
Cr4   Cr    Cr6+3 0.611880 0.678590 0.246990 0.974957
Cr5   Cr    Cr6+3 0.114310 0.492860 0.254690 0.971761
Cr6   Cr    Cr6+3 0.385690 0.992860 0.745310 0.971762
Cr7   Cr    Cr6+3 0.614310 0.992860 0.254690 0.971761
Cr8   Cr    Cr6+3 0.729880 0.332270 0.748190 0.979723
Cr9   Cr    Cr6+3 0.270120 0.332270 0.251810 0.979723
Cr10  Cr    Cr6+3 0.229880 0.832270 0.748190 0.979725
Cr11  Cr    Cr6+3 0.770120 0.832270 0.251810 0.979723
Cr12  Cr    Cr6+3 0.888120 0.178590 0.753010 0.974956
H1    H     H_    0.638867 0.094015 0.451207 0.131094
H2    H     H_    0.191537 0.909167 0.530808 0.125726
H3    H     H_    0.546547 0.016816 0.938449 0.107129
H4    H     H_    0.611760 0.823622 0.040012 0.073587
H5    H     H_    0.388240 0.823629 0.959989 0.073590
H6    H     H_    0.111760 0.323626 0.040011 0.073590
H7    H     H_    0.888239 0.323624 0.959989 0.073588
H8    H     H_    0.597565 0.845672 0.919590 0.125142
H9    H     H_    0.402436 0.845672 0.080413 0.125138
H10   H     H_    0.097564 0.345672 0.919588 0.125140
H11   H     H_    0.902436 0.345675 0.080411 0.125143
H12   H     H_    0.930962 0.190478 0.959214 0.138942
H13   H     H_    0.308462 0.409167 0.469192 0.125726
H14   H     H_    0.069038 0.190478 0.040786 0.138942
H15   H     H_    0.430960 0.690479 0.959213 0.138937
H16   H     H_    0.569035 0.690476 0.040787 0.138953
H17   H     H_    0.649331 0.102284 0.572951 0.106203
H18   H     H_    0.350669 0.102284 0.427048 0.106203
H19   H     H_    0.149331 0.602284 0.572951 0.106203
H20   H     H_    0.850669 0.602284 0.427048 0.106203
H21   H     H_    0.721705 0.870421 0.464056 0.108965
H22   H     H_    0.278294 0.870421 0.535944 0.108965
H23   H     H_    0.221705 0.370421 0.464056 0.108965
H24   H     H_    0.691538 0.409167 0.530808 0.125726
H25   H     H_    0.778294 0.370421 0.535944 0.108965
H26   H     H_    0.705691 0.925020 0.584755 0.102402
H27   H     H_    0.294309 0.925020 0.415245 0.102402
H28   H     H_    0.205691 0.425020 0.584755 0.102401
H29   H     H_    0.794309 0.425020 0.415245 0.102402
H30   H     H_    0.854711 0.090763 0.420989 0.120638
H31   H     H_    0.145289 0.090763 0.579010 0.120638
H32   H     H_    0.354711 0.590763 0.420989 0.120638
H33   H     H_    0.645289 0.590763 0.579010 0.120638
H34   H     H_    0.803911 0.220461 0.427048 0.102134
H35   H     H_    0.795777 0.910935 0.588535 0.118013
H36   H     H_    0.196089 0.220461 0.572952 0.102133
H37   H     H_    0.303911 0.720461 0.427048 0.102133
H38   H     H_    0.696089 0.720461 0.572952 0.102133
H39   H     H_    0.841089 0.219698 0.547108 0.112745
H40   H     H_    0.158911 0.219698 0.452892 0.112745
H41   H     H_    0.341089 0.719698 0.547108 0.112745
H42   H     H_    0.658911 0.719698 0.452892 0.112745
H43   H     H_    0.624647 0.215790 0.031593 0.243813
H44   H     H_    0.612384 0.360172 0.131598 0.130143
H45   H     H_    0.681459 0.287181 0.176367 0.154895
H46   H     H_    0.204223 0.910935 0.411464 0.118013
H47   H     H_    0.600957 0.213308 0.162316 0.172897
H48   H     H_    0.375352 0.215795 0.968406 0.243812
H49   H     H_    0.387610 0.360179 0.868399 0.130145
H50   H     H_    0.318539 0.287177 0.823630 0.154895
H51   H     H_    0.399044 0.213314 0.837684 0.172892
H52   H     H_    0.124650 0.715808 0.031593 0.243811
H53   H     H_    0.112413 0.860187 0.131617 0.130160
H54   H     H_    0.181459 0.787114 0.176385 0.154913
H55   H     H_    0.100940 0.713316 0.162303 0.172867
H56   H     H_    0.875352 0.715794 0.968407 0.243813
H57   H     H_    0.295777 0.410935 0.588535 0.118013
H58   H     H_    0.887608 0.860177 0.868396 0.130147
H59   H     H_    0.818540 0.787159 0.823626 0.154899
H60   H     H_    0.899049 0.713307 0.837689 0.172889
H61   H     H_    0.977355 0.113937 0.081762 0.254001
H62   H     H_    0.910559 0.078135 0.183472 0.157509
H63   H     H_    0.858130 0.202840 0.162952 0.119973
H64   H     H_    0.937914 0.224481 0.205202 0.174136
H65   H     H_    0.022644 0.113936 0.918240 0.253998
H66   H     H_    0.089398 0.078139 0.816506 0.157488
H67   H     H_    0.141881 0.202776 0.837055 0.119982
H68   H     H_    0.704223 0.410935 0.411464 0.118013
H69   H     H_    0.062103 0.224546 0.794808 0.174107
H70   H     H_    0.477345 0.613920 0.081744 0.253977
H71   H     H_    0.410568 0.578123 0.183470 0.157500
H72   H     H_    0.358133 0.702824 0.162954 0.119970
H73   H     H_    0.437917 0.724472 0.205202 0.174136
H74   H     H_    0.522644 0.613935 0.918241 0.253997
H75   H     H_    0.589433 0.578131 0.816526 0.157505
H76   H     H_    0.641870 0.702828 0.837049 0.119974
H77   H     H_    0.562087 0.724485 0.794800 0.174132
H78   H     H_    0.046912 0.152249 0.442557 0.131615
H79   H     H_    0.953088 0.152249 0.557443 0.131615
H80   H     H_    0.546912 0.652249 0.442557 0.131615
H81   H     H_    0.361133 0.094015 0.548793 0.131094
H82   H     H_    0.453088 0.652249 0.557443 0.131615
H83   H     H_    0.959949 0.161712 0.434114 0.104358
H84   H     H_    0.040051 0.161712 0.565886 0.104358
H85   H     H_    0.459949 0.661712 0.434114 0.104358
H86   H     H_    0.540051 0.661712 0.565886 0.104358
H87   H     H_    0.616048 0.889937 0.455609 0.112641
H88   H     H_    0.383952 0.889937 0.544391 0.112641
H89   H     H_    0.116048 0.389937 0.455609 0.112641
H90   H     H_    0.883952 0.389937 0.544391 0.112641
H91   H     H_    0.599790 0.834894 0.576435 0.101535
H92   H     H_    0.138867 0.594015 0.451207 0.131094
H93   H     H_    0.400210 0.834894 0.423565 0.101535
H94   H     H_    0.099790 0.334894 0.576435 0.101535
H95   H     H_    0.900210 0.334894 0.423565 0.101535
H96   H     H_    0.938393 0.476910 0.417697 0.120971
H97   H     H_    0.061607 0.476910 0.582303 0.120970
H98   H     H_    0.438393 0.976910 0.417697 0.120971
H99   H     H_    0.561607 0.976910 0.582303 0.120971
H100  H     H_    0.947436 0.499104 0.536205 0.129991
H101  H     H_    0.052565 0.499104 0.463795 0.129991
H102  H     H_    0.447435 0.999104 0.536205 0.129991
H103  H     H_    0.861133 0.594015 0.548793 0.131094
H104  H     H_    0.552565 0.999104 0.463795 0.129991
H105  H     H_    0.832697 0.938010 0.063355 0.147423
H106  H     H_    0.167303 0.938009 0.936645 0.147424
H107  H     H_    0.332698 0.438010 0.063356 0.147422
H108  H     H_    0.667302 0.438009 0.936645 0.147424
H109  H     H_    0.687507 0.219278 0.439788 0.105566
H110  H     H_    0.312492 0.219278 0.560212 0.105566
H111  H     H_    0.187507 0.719278 0.439788 0.105565
H112  H     H_    0.812492 0.719278 0.560212 0.105566
H113  H     H_    0.847643 0.088628 0.059456 0.177790
H114  H     H_    0.863564 0.068968 0.539979 0.125921
H115  H     H_    0.152355 0.088627 0.940544 0.177787
H116  H     H_    0.347644 0.588629 0.059455 0.177780
H117  H     H_    0.652356 0.588628 0.940544 0.177789
H118  H     H_    0.865870 0.040629 0.946817 0.141593
H119  H     H_    0.134129 0.040629 0.053184 0.141593
H120  H     H_    0.365870 0.540627 0.946816 0.141591
H121  H     H_    0.634129 0.540629 0.053183 0.141595
H122  H     H_    0.803512 0.929516 0.945836 0.176862
H123  H     H_    0.196488 0.929516 0.054163 0.176860
H124  H     H_    0.303511 0.429515 0.945837 0.176860
H125  H     H_    0.136436 0.068968 0.460021 0.125920
H126  H     H_    0.696487 0.429515 0.054163 0.176861
H127  H     H_    0.700995 0.910670 0.030722 0.096882
H128  H     H_    0.299005 0.910672 0.969277 0.096882
H129  H     H_    0.200994 0.410672 0.030724 0.096880
H130  H     H_    0.799005 0.410670 0.969276 0.096882
H131  H     H_    0.688592 0.955750 0.910886 0.089205
H132  H     H_    0.311408 0.955752 0.089113 0.089206
H133  H     H_    0.188591 0.455752 0.910887 0.089203
H134  H     H_    0.811407 0.455749 0.089113 0.089204
H135  H     H_    0.765300 0.246748 0.093357 0.104913
H136  H     H_    0.363564 0.568968 0.539979 0.125921
H137  H     H_    0.234699 0.246751 0.906643 0.104908
H138  H     H_    0.265304 0.746750 0.093357 0.104914
H139  H     H_    0.734699 0.746749 0.906643 0.104912
H140  H     H_    0.803803 0.239227 0.982801 0.088152
H141  H     H_    0.196196 0.239228 0.017199 0.088152
H142  H     H_    0.303805 0.739227 0.982799 0.088153
H143  H     H_    0.696196 0.739226 0.017200 0.088152
H144  H     H_    0.719376 0.278127 0.953271 0.138937
H145  H     H_    0.280623 0.278128 0.046729 0.138936
H146  H     H_    0.219378 0.778128 0.953271 0.138933
H147  H     H_    0.636436 0.568968 0.460021 0.125920
H148  H     H_    0.780623 0.778127 0.046729 0.138937
H149  H     H_    0.637901 0.012253 0.049309 0.144899
H150  H     H_    0.362098 0.012257 0.950690 0.144902
H151  H     H_    0.137902 0.512260 0.049311 0.144906
H152  H     H_    0.862099 0.512255 0.950690 0.144901
H153  H     H_    0.688491 0.237351 0.561614 0.138236
H154  H     H_    0.311509 0.237351 0.438386 0.138236
H155  H     H_    0.188491 0.737351 0.561614 0.138236
H156  H     H_    0.811508 0.737351 0.438386 0.138236
H157  H     H_    0.647672 0.093211 0.931229 0.117206
H158  H     H_    0.808462 0.909167 0.469192 0.125726
H159  H     H_    0.352328 0.093214 0.068770 0.117206
H160  H     H_    0.147672 0.593215 0.931231 0.117206
H161  H     H_    0.852328 0.593211 0.068771 0.117206
H162  H     H_    0.038085 0.546402 0.058475 0.139032
H163  H     H_    0.961915 0.546402 0.941525 0.139032
H164  H     H_    0.538085 0.046402 0.058475 0.139033
H165  H     H_    0.461915 0.046401 0.941525 0.139034
H166  H     H_    0.953454 0.516817 0.061551 0.107128
H167  H     H_    0.046546 0.516817 0.938449 0.107130
H168  H     H_    0.453454 0.016817 0.061551 0.107129
N1    N     N_2   0.661025 0.230824 0.069997 -0.547734
N2    N     N_2   0.338974 0.230826 0.930002 -0.547732
N3    N     N_2   0.161028 0.730829 0.070000 -0.547738
N4    N     N_2   0.838974 0.730826 0.930003 -0.547735
N5    N     N_2   0.942380 0.177684 0.094474 -0.556536
N6    N     N_2   0.057619 0.177683 0.905527 -0.556534
N7    N     N_2   0.442382 0.677683 0.094472 -0.556521
N8    N     N_2   0.557619 0.677682 0.905527 -0.556535
O1    O     O_R   0.957210 0.449410 0.665480 -0.534857
O2    O     O_R   0.167480 0.095300 0.164000 -0.540590
O3    O     O_R   0.332520 0.595300 0.836000 -0.540589
O4    O     O_R   0.667480 0.595300 0.164000 -0.540586
O5    O     O_R   0.946380 0.253940 0.826940 -0.504047
O6    O     O_R   0.053620 0.253940 0.173060 -0.504057
O7    O     O_R   0.446380 0.753940 0.826940 -0.504055
O8    O     O_R   0.553620 0.753940 0.173060 -0.504046
O9    O     O_3   0.834560 0.334570 0.748840 -0.273111
O10   O     O_3   0.165440 0.334570 0.251160 -0.273110
O11   O     O_3   0.334560 0.834570 0.748840 -0.273111
O12   O     O_R   0.042790 0.449410 0.334520 -0.534855
O13   O     O_3   0.665440 0.834570 0.251160 -0.273113
O14   O     O_R   0.820730 0.541240 0.668250 -0.518426
O15   O     O_R   0.179270 0.541240 0.331750 -0.518427
O16   O     O_R   0.320730 0.041240 0.668250 -0.518426
O17   O     O_R   0.679270 0.041240 0.331750 -0.518425
O18   O     O_R   0.714240 0.455060 0.663710 -0.535813
O19   O     O_R   0.285760 0.455060 0.336290 -0.535813
O20   O     O_R   0.214240 0.955060 0.663710 -0.535812
O21   O     O_R   0.785760 0.955060 0.336290 -0.535812
O22   O     O_R   0.736780 0.204870 0.675910 -0.515159
O23   O     O_R   0.457210 0.949410 0.665480 -0.534856
O24   O     O_R   0.263220 0.204870 0.324090 -0.515159
O25   O     O_R   0.236780 0.704870 0.675910 -0.515160
O26   O     O_R   0.763220 0.704870 0.324090 -0.515159
O27   O     O_R   0.833070 0.087590 0.673490 -0.533108
O28   O     O_R   0.166930 0.087590 0.326510 -0.533108
O29   O     O_R   0.333070 0.587590 0.673490 -0.533108
O30   O     O_R   0.666930 0.587590 0.326510 -0.533108
O31   O     O_R   0.946890 0.246800 0.676300 -0.518867
O32   O     O_R   0.053110 0.246800 0.323700 -0.518872
O33   O     O_R   0.446890 0.746800 0.676300 -0.518871
O34   O     O_R   0.542790 0.949410 0.334520 -0.534856
O35   O     O_R   0.553110 0.746800 0.323700 -0.518873
O36   O     O_R   0.956650 0.457120 0.827980 -0.545848
O37   O     O_R   0.043350 0.457120 0.172020 -0.545844
O38   O     O_R   0.456650 0.957120 0.827980 -0.545845
O39   O     O_R   0.543350 0.957120 0.172020 -0.545848
O40   O     O_R   0.820220 0.548390 0.818890 -0.503181
O41   O     O_R   0.179780 0.548390 0.181110 -0.503179
O42   O     O_R   0.320220 0.048390 0.818890 -0.503178
O43   O     O_R   0.679780 0.048390 0.181110 -0.503180
O44   O     O_R   0.713680 0.462770 0.826210 -0.547986
O45   O     O_R   0.736260 0.212010 0.826560 -0.512769
O46   O     O_R   0.286320 0.462770 0.173790 -0.547986
O47   O     O_R   0.213680 0.962770 0.826210 -0.547978
O48   O     O_R   0.786320 0.962770 0.173790 -0.547987
O49   O     O_R   0.263740 0.212010 0.173440 -0.512769
O50   O     O_R   0.236260 0.712010 0.826560 -0.512770
O51   O     O_R   0.763740 0.712010 0.173440 -0.512770
O52   O     O_R   0.832520 0.095300 0.836000 -0.540589

loop_
_geom_bond_atom_site_label_1
_geom_bond_atom_site_label_2
_ccdc_geom_bond_type
C15   H92   S    
C72   O30   A    
C113  H11   S    
C120  O23   A    
C16   H112  S    
C76   H120  S    
C77   H121  S    
Cr1   O36   S    
C33   N8    S    
C110  H12   S    
C89   C127  S    
C26   H45   S    
C40   H57   S    
C25   H24   S    
C82   C87   S    
Cr8   O44   S    
C28   H55   S    
C105  C123  S    
C10   O38   A    
C37   C42   S    
C9    O37   A    
C113  C122  S    
C29   H59   S    
C112  H15   S    
C114  N6    S    
C2    C22   S    
C68   C90   S    
C56   H95   S    
C51   C57   S    
C91   C100  S    
C10   C125  S    
C99   H161  S    
C36   C71   S    
C83   C88   S    
Cr7   O13   S    
C95   H157  S    
Cr8   O9    S    
Cr7   O39   S    
C53   H100  S    
C104  C105  S    
C65   C87   S    
Cr5   O12   S    
C30   H62   S    
C75   H123  S    
C86   C90   S    
C63   C118  S    
C127  O46   A    
C128  O42   A    
C81   C99   S    
C52   O20   A    
C12   H109  S    
C25   C42   S    
C121  O34   A    
C31   H67   S    
C110  C123  S    
C31   H69   S    
C16   C20   S    
C70   O28   A    
C100  H144  S    
C90   C126  S    
C27   N2    S    
C101  H145  S    
C97   H132  S    
C24   C107  S    
C10   O7    A    
C109  H14   S    
C34   C69   S    
C112  C125  S    
C2    C52   S    
C105  H167  S    
C81   C90   S    
C106  H168  S    
C23   H13   S    
Cr6   O11   S    
C50   H86   S    
C17   C34   S    
C114  H10   S    
C30   N5    S    
C115  C124  S    
Cr9   O10   S    
C66   H106  S    
C68   C77   S    
Cr4   O8    S    
C47   H83   S    
C9    O6    A    
C50   H82   S    
C49   C62   S    
C111  C124  S    
C79   C97   S    
C83   H137  S    
C126  O44   A    
C8    C123  S    
C57   C61   S    
C44   H125  S    
C33   H77   S    
C45   H136  S    
C64   C120  S    
C113  N5    S    
Cr3   O33   S    
C116  N8    S    
Cr4   O13   S    
C81   H130  S    
C28   N3    S    
Cr5   O37   S    
C77   H126  S    
C2    C14   S    
C81   H152  S    
C54   H87   S    
Cr12  O52   S    
C20   H20   S    
C106  C124  S    
Cr6   O23   S    
C57   H97   S    
Cr2   O6    S    
C48   H79   S    
C78   C87   S    
C55   H102  S    
C41   O15   A    
C84   C102  S    
C11   C124  S    
C58   H93   S    
C59   H91   S    
C33   H75   S    
C17   H153  S    
C67   H116  S    
C68   H108  S    
C85   H31   S    
C19   H155  S    
C74   H34   S    
Cr6   O42   S    
C66   C88   S    
C104  C122  S    
C119  O12   A    
C26   N1    S    
C77   C94   S    
C112  H5    S    
C13   C23   S    
C60   C119  S    
C105  H163  S    
Cr11  O48   S    
C106  H164  S    
C67   H107  S    
C21   C38   S    
C83   N2    S    
C84   H138  S    
C72   O26   A    
C29   N4    S    
C17   H17   S    
C18   C35   S    
C53   H90   S    
C4    C91   S    
Cr8   O45   S    
C76   H124  S    
C55   C64   S    
C22   H2    S    
C5    O49   A    
Cr1   O14   S    
C99   H134  S    
C7    O51   A    
C92   C97   S    
C54   C59   S    
C74   C118  S    
C13   C96   S    
Cr9   O19   S    
C32   H71   S    
C48   H84   S    
C65   H113  S    
C127  O41   A    
Cr7   O17   S    
C115  H9    S    
C79   H128  S    
Cr7   O43   S    
C109  C114  S    
C63   O21   A    
C114  C123  S    
C75   C92   S    
C31   N6    S    
C75   H119  S    
Cr4   O30   S    
C116  C125  S    
C55   C58   S    
C49   H85   S    
C44   C85   S    
Cr11  O13   S    
C53   C56   S    
H56   N4    S    
C83   C101  S    
C71   O25   A    
C34   C43   S    
Cr5   O15   S    
Cr3   O11   S    
Cr4   O35   S    
C70   O24   A    
C101  H141  S    
C78   H127  S    
C102  H146  S    
C82   H135  S    
C4    O52   A    
C20   C37   S    
C6    O50   A    
C82   N1    S    
C106  C108  S    
C22   C39   S    
H48   N2    S    
C79   H150  S    
C91   C95   S    
C1    C24   S    
C29   H58   S    
C56   H96   S    
C51   C60   S    
Cr11  O51   S    
C84   N3    S    
C126  O40   A    
C58   C62   S    
Cr6   O16   S    
Cr3   O3    S    
C51   H89   S    
Cr12  O5    S    
Cr4   O4    S    
C14   H81   S    
C71   O29   A    
Cr3   O29   S    
C44   H40   S    
C13   C41   S    
C57   H94   S    
C45   H41   S    
C15   C19   S    
C30   H63   S    
C43   H39   S    
C46   H147  S    
Cr10  O50   S    
C68   H117  S    
C22   H22   S    
C23   C40   S    
C85   H36   S    
C2    C85   S    
C80   H129  S    
C63   O17   A    
C3    O43   A    
C80   C89   S    
C14   C18   S    
Cr2   O10   S    
C39   H46   S    
C12   C17   S    
C41   O19   A    
C42   H68   S    
C111  C116  S    
C27   H50   S    
C96   H37   S    
C4    O45   A    
C18   H154  S    
Cr11  O21   S    
C51   H101  S    
Cr8   O22   S    
Cr6   O38   S    
C79   C88   S    
C5    O2    A    
C119  O32   A    
C47   H78   S    
C7    O4    A    
C61   C117  S    
C116  H8    S    
C73   H118  S    
C54   C62   S    
C25   H25   S    
C104  H166  S    
C56   C60   S    
C35   C39   S    
Cr2   O28   S    
C21   C118  S    
C18   H18   S    
C42   H29   S    
C76   C93   S    
C78   C95   S    
C29   H60   S    
C9    C122  S    
Cr10  O47   S    
C120  O33   A    
C92   C101  S    
C12   C118  S    
C1    O14   A    
C43   H114  S    
C108  H165  S    
Cr9   O49   S    
C20   H156  S    
C40   H28   S    
C78   H149  S    
C11   O39   A    
C38   H26   S    
C7    C94   S    
C65   H105  S    
C69   O22   A    
C80   C98   S    
Cr1   O9    S    
C93   C102  S    
C95   H131  S    
C14   H110  S    
Cr11  O26   S    
C19   H19   S    
C121  O35   A    
C8    O5    A    
Cr2   O32   S    
C46   H42   S    
C38   H35   S    
C66   C75   S    
C103  H148  S    
H74   N8    S    
C37   C72   S    
Cr7   O34   S    
Cr12  O27   S    
C37   C46   S    
C108  H3    S    
Cr3   O7    S    
Cr1   O1    S    
C6    O3    A    
H65   N6    S    
C50   C64   S    
C102  H142  S    
C109  H6    S    
C97   H159  S    
C98   H160  S    
C128  O47   A    
C12   H1    S    
C86   N4    S    
C59   C64   S    
C15   H111  S    
C117  O31   A    
C19   C36   S    
C32   H72   S    
C109  C122  S    
Cr9   O24   S    
C67   C89   S    
C65   C73   S    
C11   O8    A    
C46   C107  S    
C47   C60   S    
C27   H51   S    
Cr2   O2    S    
C35   C70   S    
C52   O16   A    
C8    O36   A    
Cr12  O9    S    
Cr10  O25   S    
C3    O48   A    
C115  N7    S    
C111  H16   S    
Cr12  O31   S    
H70   N7    S    
C6    C93   S    
C43   C74   S    
C16   C24   S    
C100  H140  S    
C53   C61   S    
C86   C103  S    
C103  H143  S    
C33   H76   S    
C23   H23   S    
C21   H21   S    
C49   H80   S    
C3    C87   S    
C21   H158  S    
C36   C40   S    
C24   C25   S    
C73   C91   S    
C31   H66   S    
C107  H33   S    
C32   N7    S    
C28   H54   S    
C54   H104  S    
C55   H88   S    
C59   H99   S    
C98   H133  S    
C26   H47   S    
H61   N5    S    
C47   C48   S    
Cr10  O11   S    
C28   H53   S    
H43   N1    S    
C36   C45   S    
C86   H139  S    
Cr8   O18   S    
C35   C44   S    
C110  C113  S    
C111  H4    S    
C32   H73   S    
C49   C50   S    
C13   C15   S    
C107  H38   S    
C108  C125  S    
Cr5   O41   S    
C84   C89   S    
C110  H7    S    
C73   H122  S    
Cr1   O40   S    
Cr10  O20   S    
C104  H162  S    
Cr9   O46   S    
C34   C38   S    
H52   N3    S    
C82   C100  S    
C94   C103  S    
C80   H151  S    
Cr5   O10   S    
C30   H64   S    
C69   O27   A    
C88   C128  S    
C1    O18   A    
C48   C61   S    
C117  O1    A    
C94   C99   S    
C62   C121  S    
C39   H27   S    
C74   H30   S    
C5    C92   S    
C16   H103  S    
C66   H115  S    
C96   H32   S    
C67   C76   S    
C27   H49   S    
C58   H98   S    
C45   C96   S    
C93   C98   S    
C112  C115  S    
C26   H44   S    
