data_mof_unit_64798.cif
_audit_creation_date              2012-12-10T18:38:28-0500
_audit_creation_method            fapswitch 2.2
_symmetry_space_group_name_H-M    P1
_symmetry_Int_Tables_number       1
_space_group_crystal_system       triclinic
_cell_length_a                    30.209611
_cell_length_b                    31.837182
_cell_length_c                    21.33493
_cell_angle_alpha                 89.982014
_cell_angle_beta                  135.115641
_cell_angle_gamma                 90.354726
_cell_volume                      14479.7847547

loop_
_atom_site_label
_atom_site_type_symbol
_atom_type_description
_atom_site_fract_x
_atom_site_fract_y
_atom_site_fract_z
_atom_type_partial_charge
Br1   Br    Br    0.438072 0.912407 0.239250 -0.479650
Br2   Br    Br    0.973536 0.714772 0.615757 -0.382450
Br3   Br    Br    0.638878 0.716053 0.670275 -0.440131
Br4   Br    Br    0.568756 0.284405 0.697422 -0.418641
Br5   Br    Br    0.134370 0.216167 0.680996 -0.442031
Br6   Br    Br    0.110618 0.785174 0.706513 -0.433958
Br7   Br    Br    0.455868 0.715305 0.317001 -0.472327
Br8   Br    Br    0.582860 0.284946 0.462207 -0.530111
Br9   Br    Br    0.971764 0.215133 0.328634 -0.469911
Br10  Br    Br    0.030504 0.785175 0.389783 -0.514819
Br11  Br    Br    0.197304 0.488176 0.339251 -0.526115
Br12  Br    Br    0.914318 0.421423 0.214591 -0.480235
Br13  Br    Br    0.696479 0.000261 0.339047 -0.537097
Br14  Br    Br    0.540571 0.908029 0.738100 -0.455517
Br15  Br    Br    0.595053 0.074589 0.794496 -0.465580
Br16  Br    Br    0.087932 0.423529 0.787367 -0.456514
Br17  Br    Br    0.046072 0.591256 0.739674 -0.474602
Br18  Br    Br    0.540910 0.784543 0.679036 -0.385254
Br19  Br    Br    0.422245 0.215078 0.541876 -0.408423
Br20  Br    Br    0.024528 0.284773 0.665884 -0.403394
C1    C     C_R   0.378439 0.499831 0.378306 0.925062
C2    C     C_3   0.001609 0.708737 0.501724 -0.041720
C3    C     C_3   0.000112 0.499759 0.310827 -0.061350
C4    C     C_3   0.516640 0.962614 0.745989 0.156269
C5    C     C_3   0.540005 0.030421 0.770207 0.130469
C6    C     C_3   0.035645 0.468491 0.765839 0.199118
C7    C     C_3   0.022742 0.537323 0.752670 0.100299
C8    C     C_3   0.058006 0.505280 0.829463 0.467063
C9    C     C_3   0.556477 0.992030 0.827136 0.464697
C10   C     C_3   0.998761 0.499743 0.809663 -0.201774
C11   C     C_3   0.498727 0.000238 0.809577 -0.193188
C12   C     C_3   0.976293 0.462434 0.746777 -0.329475
C13   C     C_3   0.555493 0.736483 0.568363 0.215002
C14   C     C_3   0.962887 0.531877 0.733271 -0.299281
C15   C     C_3   0.458055 0.970614 0.728154 -0.349418
C16   C     C_3   0.481630 0.039014 0.752557 -0.274917
C17   C     C_3   0.442395 0.009246 0.671847 0.503517
C18   C     C_3   0.941749 0.494647 0.671202 0.502814
C19   C     C_3   0.499960 0.000997 0.688850 -0.243459
C20   C     C_3   0.000227 0.500213 0.689327 -0.233515
C21   C     C_3   0.457775 0.736079 0.499725 0.397274
C22   C     C_3   0.444719 0.263610 0.440489 0.423269
C23   C     C_3   0.953099 0.236079 0.489655 0.399776
C24   C     C_3   0.529629 0.263775 0.582119 0.215598
C25   C     C_3   0.946278 0.763239 0.465245 0.415762
C26   C     C_1   0.498907 0.625676 0.498780 -0.149412
C27   C     C_1   0.501447 0.374337 0.501402 -0.144222
C28   C     C_1   0.998868 0.125675 0.498653 -0.149394
C29   C     C_1   0.000375 0.874329 0.500523 -0.150194
C30   C     C_1   0.499010 0.874257 0.498780 -0.106412
C31   C     C_1   0.500944 0.125760 0.500427 -0.134567
C32   C     C_1   0.998976 0.374254 0.498364 -0.116084
C33   C     C_1   0.000870 0.625752 0.500812 -0.130353
C34   C     C_3   0.480599 0.736135 0.423451 0.286156
C35   C     C_3   0.053541 0.236519 0.572328 0.218221
C36   C     C_3   0.535613 0.264024 0.485904 0.273896
C37   C     C_3   0.987058 0.236083 0.427798 0.284165
C38   C     C_3   0.013255 0.764044 0.455846 0.275288
C39   C     C_3   0.497923 0.708620 0.497238 -0.050695
C40   C     C_3   0.503474 0.291418 0.503195 -0.053250
C41   C     C_3   0.997888 0.208616 0.496758 -0.051180
C42   C     C_3   0.001741 0.791407 0.502330 -0.047712
C43   C     C_3   0.375645 0.748648 0.485010 0.102061
C44   C     C_3   0.338259 0.730183 0.502158 -0.308201
C45   C     C_3   0.291933 0.761935 0.481973 -0.924417
C46   C     C_3   0.046240 0.764069 0.585830 0.214805
C47   C     C_3   0.338648 0.250703 0.315969 0.135237
C48   C     C_3   0.314868 0.259375 0.225734 -0.378256
C49   C     C_3   0.264760 0.227494 0.155902 -0.902596
C50   C     C_3   0.863322 0.248471 0.456825 0.100419
C51   C     C_3   0.820742 0.230392 0.465161 -0.309029
C52   C     C_3   0.771247 0.262006 0.435647 -0.915963
C53   C     C_3   0.842734 0.748401 0.388514 0.141303
C54   C     C_3   0.791960 0.754545 0.287869 -0.395264
C55   C     C_3   0.740402 0.721225 0.241616 -0.906449
C56   C     C_3   0.752475 0.530243 0.911447 0.079729
C57   C     C_3   0.515288 0.763902 0.571665 0.221189
C58   C     C_3   0.760919 0.576779 0.935780 -0.343887
C59   C     C_3   0.713208 0.590965 0.936645 -0.897946
C60   C     C_3   0.253465 0.007817 0.918015 0.087039
C61   C     C_3   0.262919 0.051444 0.956177 -0.354506
C62   C     C_3   0.216445 0.059287 0.962556 -0.907304
C63   C     C_3   0.749100 0.580505 0.635810 0.134043
C64   C     C_3   0.743594 0.567883 0.561425 -0.395715
C65   C     C_3   0.695843 0.594837 0.479075 -0.881991
C66   C     C_3   0.743232 0.392064 0.703879 0.084082
C67   C     C_3   0.745704 0.360637 0.760567 -0.348454
C68   C     C_3   0.470122 0.235999 0.519066 0.223831
C69   C     C_3   0.694348 0.327183 0.703047 -0.846118
C70   C     C_3   0.248064 0.094172 0.660997 0.135243
C71   C     C_3   0.244584 0.091097 0.586107 -0.402945
C72   C     C_3   0.195305 0.120645 0.510045 -0.857302
C73   C     C_3   0.242285 0.901469 0.665826 0.070774
C74   C     C_3   0.241592 0.862109 0.706295 -0.340493
C75   C     C_3   0.188773 0.832021 0.634260 -0.848979
C76   C     C_3   0.156367 0.537848 0.939260 0.103596
C77   C     C_3   0.186190 0.529022 0.905114 -0.360944
C78   C     C_3   0.231513 0.564144 0.931824 -0.876920
C79   C     C_3   0.008593 0.263940 0.565931 0.221324
C80   C     C_3   0.662102 0.981302 0.914092 0.145529
C81   C     C_3   0.712318 0.950034 0.983943 -0.317082
C82   C     C_3   0.765296 0.948169 0.989137 -0.941353
C83   C     C_3   0.334294 0.012447 0.577557 0.090294
C84   C     C_3   0.300217 0.972048 0.523705 -0.321852
C85   C     C_3   0.246463 0.961635 0.514316 -0.983552
C86   C     C_3   0.836115 0.481153 0.584452 0.078917
C87   C     C_3   0.814849 0.435274 0.558303 -0.325686
C88   C     C_3   0.764354 0.425109 0.556020 -0.960194
C89   C     C_3   0.248353 0.415463 0.141052 0.097920
C90   C     C_3   0.990237 0.735911 0.548859 0.225486
C91   C     C_3   0.240814 0.426390 0.064105 -0.306604
C92   C     C_3   0.287732 0.402766 0.070677 -0.907680
C93   C     C_3   0.256753 0.602490 0.193202 0.085054
C94   C     C_3   0.258232 0.639825 0.239826 -0.360074
C95   C     C_3   0.311717 0.670246 0.277787 -0.858681
C96   C     C_3   0.738741 0.894994 0.182665 0.110511
C97   C     C_3   0.802191 0.896004 0.211972 -0.425312
C98   C     C_3   0.837651 0.855031 0.256626 -0.876269
C99   C     C_3   0.756759 0.097359 0.177337 0.113768
C100  C     C_3   0.756044 0.137008 0.217232 -0.376642
C101  C     C_1   0.498231 0.663169 0.497884 0.110462
C102  C     C_3   0.811098 0.166200 0.256918 -0.854415
C103  C     C_R   0.878483 0.000165 0.378456 0.918520
C104  C     C_1   0.502540 0.336855 0.502391 0.111749
C105  C     C_1   0.998175 0.163165 0.497572 0.112947
C106  C     C_1   0.000930 0.836842 0.501351 0.103286
C107  C     C_1   0.498284 0.836735 0.497896 0.092079
C108  C     C_1   0.501662 0.163289 0.500832 0.075315
C109  C     C_1   0.998193 0.336731 0.497183 0.086786
C110  C     C_1   0.001346 0.663278 0.501292 0.074811
C111  C     C_3   0.270225 0.462962 0.292765 -0.241841
C112  C     C_3   0.272009 0.532104 0.308053 -0.244840
C113  C     C_3   0.770773 0.965428 0.300568 -0.279248
C114  C     C_3   0.538622 0.764420 0.494518 -0.216045
C115  C     C_3   0.771621 0.035123 0.301509 -0.249862
C116  C     C_3   0.229707 0.495218 0.287551 0.238190
C117  C     C_3   0.729467 0.000265 0.287545 0.240813
C118  C     C_3   0.189201 0.500669 0.188261 -0.169898
C119  C     C_3   0.689304 0.000376 0.187557 -0.175810
C120  C     C_3   0.229567 0.469315 0.193150 0.475269
C121  C     C_3   0.231374 0.536677 0.208099 0.462548
C122  C     C_3   0.730400 0.966230 0.199972 0.478767
C123  C     C_3   0.731330 0.034405 0.201209 0.468859
C124  C     C_R   0.499770 0.581231 0.499743 0.881521
C125  C     C_3   0.562501 0.235937 0.565575 -0.233484
C126  C     C_R   0.500245 0.418772 0.500237 0.882628
C127  C     C_R   0.999766 0.081230 0.499728 0.880599
C128  C     C_R   0.999936 0.918770 0.499949 0.885873
C129  C     C_3   0.271217 0.505458 0.210519 -0.369437
C130  C     C_3   0.771684 0.000399 0.210873 -0.330309
C131  C     C_3   0.311115 0.499955 0.310512 -0.166462
C132  C     C_3   0.811229 0.000321 0.311180 -0.166403
C133  C     C_3   0.730016 0.538820 0.746412 -0.327538
C134  C     C_3   0.728416 0.470803 0.770796 -0.314824
C135  C     C_3   0.230120 0.035678 0.758304 -0.330692
C136  C     C_3   0.043224 0.264405 0.503424 -0.219721
C137  C     C_3   0.228413 0.965479 0.760103 -0.305530
C138  C     C_3   0.770601 0.509235 0.826979 0.466621
C139  C     C_3   0.270741 0.000971 0.828284 0.466357
C140  C     C_3   0.810767 0.499179 0.810047 -0.155865
C141  C     C_3   0.310752 0.999378 0.809102 -0.157624
C142  C     C_3   0.769870 0.527550 0.728572 0.450924
C143  C     C_3   0.768308 0.461560 0.752353 0.450538
C144  C     C_3   0.269781 0.033008 0.737884 0.453127
C145  C     C_3   0.268140 0.964892 0.739667 0.452713
C146  C     C_3   0.727987 0.489661 0.669417 -0.345393
C147  C     C_3   0.058396 0.736272 0.539709 -0.240532
C148  C     C_3   0.227776 0.998531 0.667022 -0.353220
C149  C     C_3   0.688853 0.500038 0.689149 -0.176607
C150  C     C_3   0.188838 0.000126 0.689062 -0.177975
C151  C     C_R   0.500032 0.000044 0.378287 0.898233
C152  C     C_R   0.000026 0.499891 0.378276 0.894684
C153  C     C_R   0.499740 0.918750 0.499676 0.928228
C154  C     C_R   0.500265 0.081256 0.500137 0.900464
C155  C     C_R   0.999735 0.418749 0.499592 0.918651
C156  C     C_R   0.000259 0.581253 0.500223 0.906843
C157  C     C_R   0.621557 0.500189 0.621653 0.930606
C158  C     C_3   0.497684 0.791278 0.497220 -0.045602
C159  C     C_R   0.121551 0.000192 0.621649 0.931364
C160  C     C_R   0.499985 0.000586 0.621472 0.994525
C161  C     C_R   0.000026 0.499907 0.621584 0.993683
C162  C     C_R   0.000265 0.499983 0.122058 0.917713
C163  C     C_R   0.500290 0.999996 0.122086 0.921740
C164  C     C_R   0.121787 0.500207 0.120716 0.979990
C165  C     C_R   0.621811 0.000145 0.120119 0.983252
C166  C     C_R   0.998954 0.499958 0.877151 0.972800
C167  C     C_R   0.499369 0.000031 0.877539 0.973962
C168  C     C_R   0.878203 0.499770 0.877557 0.945253
C169  C     C_3   0.502365 0.208755 0.501452 -0.041840
C170  C     C_R   0.378207 0.999807 0.876827 0.944906
C171  C     C_3   0.466460 0.032695 0.236862 -0.225422
C172  C     C_3   0.559681 0.003405 0.330493 -0.162371
C173  C     C_3   0.976428 0.536266 0.246962 -0.218927
C174  C     C_3   0.059421 0.495557 0.330201 -0.162796
C175  C     C_3   0.035785 0.532081 0.265327 -0.119084
C176  C     C_3   0.526003 0.036140 0.255462 -0.123983
C177  C     C_3   0.000284 0.499890 0.189522 -0.032968
C178  C     C_3   0.500375 0.999971 0.189627 -0.031399
C179  C     C_3   0.940906 0.504101 0.169761 -0.185539
C180  C     C_3   0.997543 0.291271 0.496349 -0.044142
C181  C     C_3   0.024016 0.463311 0.253285 -0.164012
C182  C     C_3   0.440783 0.996531 0.169657 -0.186459
C183  C     C_3   0.534150 0.967229 0.263564 -0.159954
C184  C     C_3   0.474816 0.964210 0.245007 0.299888
C185  C     C_3   0.965040 0.467877 0.235053 0.300115
C186  C     C_3   0.439172 0.763758 0.424596 -0.342265
C187  C     C_3   0.476004 0.236089 0.421328 -0.333191
C188  C     C_3   0.941011 0.263719 0.419237 -0.342471
C189  C     C_3   0.956573 0.735785 0.416882 -0.330975
C190  C     C_3   0.500145 0.000006 0.310878 -0.059201
H1    H     H_    0.289970 0.510102 0.181287 0.157245
H2    H     H_    0.547211 0.065626 0.258320 0.171982
H3    H     H_    0.287258 0.845789 0.747617 0.242666
H4    H     H_    0.235195 0.871077 0.749735 0.237190
H5    H     H_    0.142448 0.847057 0.594717 0.273425
H6    H     H_    0.190683 0.803251 0.665484 0.289123
H7    H     H_    0.193798 0.822777 0.589365 0.269849
H8    H     H_    0.194684 0.540471 0.012815 0.168387
H9    H     H_    0.131868 0.568442 0.916200 0.188664
H10   H     H_    0.212044 0.498898 0.933073 0.237382
H11   H     H_    0.149338 0.525986 0.831646 0.262108
H12   H     H_    0.206360 0.594480 0.903306 0.296127
H13   H     H_    0.438918 0.059415 0.227715 0.156546
H14   H     H_    0.252339 0.556952 0.906286 0.270996
H15   H     H_    0.269932 0.567054 0.005321 0.252150
H16   H     H_    0.683848 0.013069 0.932828 0.181767
H17   H     H_    0.644472 0.972152 0.849051 0.166376
H18   H     H_    0.731984 0.959639 0.049614 0.243719
H19   H     H_    0.690845 0.918275 0.967486 0.266097
H20   H     H_    0.746906 0.937666 0.924513 0.287646
H21   H     H_    0.801216 0.925493 0.041140 0.271669
H22   H     H_    0.787857 0.979553 0.006553 0.268001
H23   H     H_    0.301016 0.038906 0.539787 0.166005
H24   H     H_    0.608298 0.006279 0.397529 0.193756
H25   H     H_    0.348384 0.011207 0.642084 0.131874
H26   H     H_    0.281325 0.975869 0.456542 0.237192
H27   H     H_    0.333550 0.945442 0.556680 0.228928
H28   H     H_    0.265020 0.957225 0.580994 0.275476
H29   H     H_    0.222893 0.932102 0.475565 0.276753
H30   H     H_    0.211524 0.987316 0.479358 0.264685
H31   H     H_    0.795162 0.501332 0.533340 0.163806
H32   H     H_    0.851466 0.488517 0.648732 0.133819
H33   H     H_    0.795905 0.429167 0.491590 0.239012
H34   H     H_    0.855423 0.414256 0.606631 0.226648
H35   H     H_    0.957153 0.566051 0.246246 0.156381
H36   H     H_    0.782890 0.430779 0.622466 0.284865
H37   H     H_    0.750191 0.391580 0.537767 0.277944
H38   H     H_    0.722461 0.444965 0.506269 0.261269
H39   H     H_    0.240309 0.381178 0.139066 0.169555
H40   H     H_    0.297595 0.421894 0.205830 0.125050
H41   H     H_    0.192437 0.418203 0.000172 0.286168
H42   H     H_    0.248011 0.460651 0.064570 0.217077
H43   H     H_    0.336479 0.411244 0.133324 0.261814
H44   H     H_    0.280781 0.411327 0.013739 0.282864
H45   H     H_    0.280744 0.368322 0.068851 0.274349
H46   H     H_    0.107905 0.492117 0.397062 0.193975
H47   H     H_    0.247221 0.614289 0.135586 0.167304
H48   H     H_    0.304066 0.587728 0.239073 0.129775
H49   H     H_    0.212921 0.656746 0.191658 0.242884
H50   H     H_    0.264375 0.628389 0.294767 0.223001
H51   H     H_    0.357646 0.654331 0.328491 0.272357
H52   H     H_    0.310804 0.697234 0.309747 0.267704
H53   H     H_    0.306611 0.682327 0.224104 0.283342
H54   H     H_    0.710314 0.868827 0.134210 0.179812
H55   H     H_    0.744431 0.887373 0.238896 0.134735
H56   H     H_    0.794285 0.901045 0.153187 0.238296
H57   H     H_    0.892557 0.507371 0.102652 0.184900
H58   H     H_    0.832054 0.922040 0.259817 0.230391
H59   H     H_    0.847096 0.849701 0.316663 0.284572
H60   H     H_    0.883212 0.856748 0.277194 0.287060
H61   H     H_    0.810006 0.828224 0.209828 0.262084
H62   H     H_    0.748632 0.106579 0.119640 0.182815
H63   H     H_    0.804306 0.082917 0.226504 0.124342
H64   H     H_    0.711364 0.153979 0.164635 0.245491
H65   H     H_    0.758635 0.128291 0.270140 0.224844
H66   H     H_    0.856292 0.150312 0.311853 0.270351
H67   H     H_    0.808628 0.194855 0.283936 0.268379
H68   H     H_    0.043233 0.433428 0.254224 0.190452
H69   H     H_    0.809470 0.175698 0.205217 0.282737
H70   H     H_    0.392400 0.993353 0.102483 0.186690
H71   H     H_    0.561555 0.940411 0.272679 0.188340
H72   H     H_    0.391811 0.775603 0.365236 0.183576
H73   H     H_    0.790959 0.000858 0.181901 0.163865
H74   H     H_    0.454503 0.223914 0.355947 0.177319
H75   H     H_    0.895293 0.275546 0.356209 0.184519
H76   H     H_    0.920045 0.723555 0.347812 0.178332
H77   H     H_    0.957770 0.432271 0.746887 0.192418
H78   H     H_    0.932347 0.557039 0.721276 0.197557
H79   H     H_    0.425319 0.946507 0.714332 0.189528
H80   H     H_    0.466186 0.069793 0.755707 0.205090
H81   H     H_    0.571882 0.776708 0.492150 0.200910
H82   H     H_    0.611187 0.223977 0.617124 0.197336
H83   H     H_    0.080319 0.276683 0.508866 0.200094
H84   H     H_    0.712019 0.570231 0.741436 0.154850
H85   H     H_    0.104672 0.724595 0.570273 0.192250
H86   H     H_    0.288098 0.432650 0.328837 0.174976
H87   H     H_    0.291629 0.557629 0.357432 0.165431
H88   H     H_    0.790280 0.938287 0.346085 0.169898
H89   H     H_    0.791078 0.062835 0.346095 0.164648
H90   H     H_    0.342208 0.757628 0.413824 0.129080
H91   H     H_    0.401225 0.777176 0.527366 0.178263
H92   H     H_    0.312029 0.701870 0.459640 0.228110
H93   H     H_    0.371049 0.720590 0.572857 0.247726
H94   H     H_    0.317311 0.790126 0.525216 0.272805
H95   H     H_    0.708925 0.448381 0.786121 0.159054
H96   H     H_    0.265331 0.747492 0.494627 0.275751
H97   H     H_    0.258172 0.771590 0.411259 0.267434
H98   H     H_    0.298769 0.253671 0.309138 0.186640
H99   H     H_    0.355135 0.217596 0.336328 0.137469
H100  H     H_    0.294756 0.291458 0.203559 0.235840
H101  H     H_    0.354558 0.257989 0.231916 0.230758
H102  H     H_    0.284318 0.195262 0.175813 0.262067
H103  H     H_    0.248328 0.234790 0.091274 0.281733
H104  H     H_    0.224049 0.228807 0.147477 0.271527
H105  H     H_    0.833909 0.256446 0.385971 0.131252
H106  H     H_    0.212138 0.064510 0.763018 0.156489
H107  H     H_    0.886310 0.277553 0.498145 0.172094
H108  H     H_    0.796947 0.201577 0.423431 0.229200
H109  H     H_    0.849559 0.221704 0.535447 0.249078
H110  H     H_    0.794024 0.290759 0.477700 0.269806
H111  H     H_    0.741049 0.247885 0.442300 0.281371
H112  H     H_    0.741258 0.270679 0.365072 0.266286
H113  H     H_    0.821118 0.751666 0.413936 0.187495
H114  H     H_    0.861130 0.715708 0.404257 0.141628
H115  H     H_    0.770863 0.786128 0.272394 0.234768
H116  H     H_    0.813271 0.752733 0.261825 0.229399
H117  H     H_    0.209002 0.938494 0.767463 0.157994
H118  H     H_    0.760172 0.689403 0.254388 0.266176
H119  H     H_    0.704173 0.726767 0.168872 0.274506
H120  H     H_    0.717832 0.722784 0.265835 0.270834
H121  H     H_    0.760036 0.511467 0.962241 0.172347
H122  H     H_    0.703089 0.524022 0.846803 0.150521
H123  H     H_    0.809042 0.582249 0.002597 0.232900
H124  H     H_    0.755223 0.595906 0.886911 0.238553
H125  H     H_    0.664749 0.586631 0.869856 0.271396
H126  H     H_    0.720794 0.624765 0.954894 0.279773
H127  H     H_    0.718667 0.572674 0.986105 0.261241
H128  H     H_    0.708377 0.481451 0.603145 0.163924
H129  H     H_    0.260966 0.983849 0.962590 0.176892
H130  H     H_    0.203892 0.003927 0.852191 0.151132
H131  H     H_    0.311458 0.054311 0.023526 0.229106
H132  H     H_    0.256651 0.075788 0.913171 0.234346
H133  H     H_    0.167557 0.057398 0.895639 0.270616
H134  H     H_    0.224613 0.091120 0.990536 0.272946
H135  H     H_    0.222708 0.035758 0.006737 0.265807
H136  H     H_    0.763515 0.614072 0.652912 0.182177
H137  H     H_    0.702004 0.578099 0.611233 0.135072
H138  H     H_    0.790094 0.571475 0.585012 0.237048
H139  H     H_    0.207510 0.997605 0.598880 0.166552
H140  H     H_    0.728668 0.534461 0.543351 0.210209
H141  H     H_    0.648717 0.591115 0.453427 0.269400
H142  H     H_    0.693024 0.584821 0.426473 0.266188
H143  H     H_    0.710169 0.628447 0.495042 0.274412
H144  H     H_    0.750788 0.374726 0.666971 0.176782
H145  H     H_    0.695383 0.405935 0.652709 0.135100
H146  H     H_    0.792199 0.345100 0.807543 0.245252
H147  H     H_    0.739870 0.377348 0.799964 0.231358
H148  H     H_    0.647324 0.341945 0.656387 0.273315
H149  H     H_    0.697354 0.304945 0.746017 0.288778
H150  H     H_    0.064893 0.558384 0.276047 0.171160
H151  H     H_    0.700197 0.309283 0.664669 0.283271
H152  H     H_    0.260814 0.126926 0.686837 0.183969
H153  H     H_    0.200657 0.087892 0.633828 0.131366
H154  H     H_    0.291109 0.099217 0.612372 0.242541
H155  H     H_    0.232391 0.058404 0.560223 0.210706
H156  H     H_    0.148176 0.112487 0.481625 0.269342
H157  H     H_    0.194060 0.117656 0.456958 0.268745
H158  H     H_    0.206933 0.153718 0.533934 0.278204
H159  H     H_    0.251183 0.891710 0.625598 0.168957
H160  H     H_    0.194954 0.916240 0.618770 0.139327
O1    O     O_R   0.406950 0.500000 0.354430 -0.634962
O2    O     O_R   0.052480 0.500000 0.645470 -0.612993
O3    O     O_R   0.000050 0.534770 0.093010 -0.629082
O4    O     O_R   0.000050 0.465230 0.093010 -0.620734
O5    O     O_R   0.500050 0.034770 0.093010 -0.629848
O6    O     O_R   0.500050 0.965230 0.093010 -0.620507
O7    O     O_R   0.093030 0.534780 0.092960 -0.597706
O8    O     O_R   0.093030 0.465220 0.092960 -0.585950
O9    O     O_R   0.593030 0.034780 0.092960 -0.594854
O10   O     O_R   0.593030 0.965220 0.092960 -0.597355
O11   O     O_R   0.999950 0.534800 0.906860 -0.617729
O12   O     O_R   0.906950 0.000000 0.354430 -0.638401
O13   O     O_R   0.999950 0.465200 0.906860 -0.615142
O14   O     O_R   0.499950 0.034800 0.906860 -0.624092
O15   O     O_R   0.499950 0.965200 0.906860 -0.603675
O16   O     O_R   0.906980 0.534790 0.906910 -0.599271
O17   O     O_R   0.906980 0.465210 0.906910 -0.600574
O18   O     O_R   0.406980 0.034790 0.906910 -0.599554
O19   O     O_R   0.406980 0.965210 0.906910 -0.599540
O20   O     O_R   0.407010 0.500000 0.459520 -0.602703
O21   O     O_R   0.907010 0.000000 0.459520 -0.600657
O22   O     O_R   0.499970 0.561610 0.447450 -0.614333
O23   O     O_R   0.552530 0.938390 0.552510 -0.604689
O24   O     O_R   0.499970 0.438390 0.447450 -0.615850
O25   O     O_R   0.999970 0.061610 0.447450 -0.614340
O26   O     O_R   0.999970 0.938390 0.447450 -0.615150
O27   O     O_R   0.500030 0.561620 0.552540 -0.609740
O28   O     O_R   0.500030 0.438380 0.552540 -0.601383
O29   O     O_R   0.000030 0.061620 0.552540 -0.607039
O30   O     O_R   0.000030 0.938380 0.552540 -0.603071
O31   O     O_R   0.593000 0.500000 0.540480 -0.627862
O32   O     O_R   0.093000 0.000000 0.540480 -0.628943
O33   O     O_R   0.593060 0.500000 0.645570 -0.629569
O34   O     O_R   0.552530 0.061610 0.552510 -0.603235
O35   O     O_R   0.093060 0.000000 0.645570 -0.628519
O36   O     O_R   0.447530 0.000000 0.354370 -0.609885
O37   O     O_R   0.947530 0.500000 0.354370 -0.603517
O38   O     O_R   0.552560 0.000000 0.459510 -0.630704
O39   O     O_R   0.052560 0.500000 0.459510 -0.632809
O40   O     O_R   0.447490 0.938400 0.447370 -0.612486
O41   O     O_R   0.447490 0.061600 0.447370 -0.619120
O42   O     O_R   0.947490 0.438400 0.447370 -0.609701
O43   O     O_R   0.947490 0.561600 0.447370 -0.622986
O44   O     O_3   0.417566 0.718065 0.504743 -0.616494
O45   O     O_R   0.052530 0.438390 0.552510 -0.600495
O46   O     O_3   0.384221 0.281266 0.378181 -0.617793
O47   O     O_3   0.908071 0.218071 0.485099 -0.614423
O48   O     O_3   0.889029 0.780221 0.428695 -0.628968
O49   O     O_3   0.798434 0.518364 0.913353 -0.651046
O50   O     O_3   0.298880 0.001366 0.916347 -0.652949
O51   O     O_3   0.796407 0.556504 0.712492 -0.637163
O52   O     O_3   0.792358 0.421987 0.759465 -0.622302
O53   O     O_3   0.295877 0.067555 0.731513 -0.627336
O54   O     O_3   0.291913 0.928620 0.734138 -0.622665
O55   O     O_3   0.117215 0.504391 0.918937 -0.632711
O56   O     O_R   0.052530 0.561610 0.552510 -0.606892
O57   O     O_3   0.614703 0.981805 0.912773 -0.611067
O58   O     O_3   0.384554 0.020418 0.586515 -0.603579
O59   O     O_3   0.881764 0.489733 0.583927 -0.605392
O60   O     O_3   0.202243 0.436656 0.130035 -0.602447
O61   O     O_3   0.207295 0.574689 0.160307 -0.619001
O62   O     O_3   0.704413 0.932369 0.139267 -0.615241
O63   O     O_3   0.707324 0.069946 0.145954 -0.606252
O64   O     O_R   0.447440 0.000000 0.540340 -0.581456
O65   O     O_R   0.947440 0.500000 0.540340 -0.574913
O66   O     O_R   0.552480 0.000000 0.645470 -0.610461
Zn1   Zn    Zn3+2 0.499970 0.500000 0.429830 0.967344
Zn2   Zn    Zn3+2 0.000000 0.453550 0.999940 1.058261
Zn3   Zn    Zn3+2 0.500000 0.046450 0.999940 1.043538
Zn4   Zn    Zn3+2 0.500000 0.953550 0.999940 1.056278
Zn5   Zn    Zn3+2 0.999970 0.000000 0.429830 0.969603
Zn6   Zn    Zn3+2 0.500040 0.500000 0.570170 1.003700
Zn7   Zn    Zn3+2 0.000040 0.000000 0.570170 1.004051
Zn8   Zn    Zn3+2 0.429870 0.000000 0.429720 1.025727
Zn9   Zn    Zn3+2 0.929870 0.500000 0.429720 1.035062
Zn10  Zn    Zn3+2 0.570140 0.000000 0.570120 1.028247
Zn11  Zn    Zn3+2 0.070140 0.500000 0.570120 1.023859
Zn12  Zn    Zn3+2 0.000000 0.546450 0.999940 1.043740

loop_
_geom_bond_atom_site_label_1
_geom_bond_atom_site_label_2
_ccdc_geom_bond_type
C25   O48   S    
C113  C117  S    
C111  C131  S    
C12   H77   S    
C164  O7    A    
Br8   C36   S    
C94   C95   S    
C73   H159  S    
C9    O57   S    
O14   Zn3   S    
C89   H39   S    
C43   H90   S    
C59   H125  S    
C168  O17   A    
C23   C79   S    
C134  C138  S    
C76   O55   S    
C51   H108  S    
C119  C122  S    
C134  H95   S    
C86   C87   S    
C34   C114  S    
C50   O47   S    
C88   H36   S    
C147  H85   S    
C179  C185  S    
C166  O11   A    
C67   H146  S    
C177  C179  S    
C171  C176  S    
C111  C120  S    
C95   H51   S    
C159  O32   A    
C28   C105  T    
C144  O53   S    
C137  H117  S    
C139  C141  S    
O33   Zn6   S    
C118  C164  S    
C97   H56   S    
C148  H139  S    
C34   C39   S    
C98   H59   S    
C55   H119  S    
C27   C126  S    
C180  C188  S    
C2    C110  S    
C82   H22   S    
C87   H33   S    
C50   H105  S    
C62   H134  S    
C84   C85   S    
O1    Zn1   S    
C19   C160  S    
C53   H113  S    
C45   H94   S    
C5    C9    S    
C68   C169  S    
O28   Zn6   S    
C74   H4    S    
C140  C143  S    
C8    O55   S    
C144  C148  S    
C114  H81   S    
C54   C55   S    
C69   H151  S    
C42   C106  S    
C10   C14   S    
C139  O50   S    
C92   H45   S    
C64   H140  S    
C47   H99   S    
C173  C179  S    
C174  C181  S    
C61   H131  S    
C80   H17   S    
C96   H54   S    
C181  H68   S    
C1    O1    A    
C22   C187  S    
C46   C90   S    
C37   C41   S    
C63   O51   S    
C32   C155  S    
C172  C190  S    
C118  C120  S    
O35   Zn7   S    
C67   C69   S    
C160  O64   A    
C93   H48   S    
O26   Zn5   S    
C86   H31   S    
C171  H13   S    
C23   C41   S    
C20   C161  S    
C115  C117  S    
C128  O30   A    
C103  C132  S    
C60   O50   S    
C189  H76   S    
C23   C188  S    
C107  C158  S    
O29   Zn7   S    
C118  C121  S    
C26   C124  S    
C100  H64   S    
C47   O46   S    
C165  O9    A    
C88   H38   S    
Br12  C185  S    
O66   Zn10  S    
Br11  C116  S    
C80   O57   S    
C154  O41   A    
C36   C187  S    
C152  O39   A    
C158  C186  S    
C3    C174  S    
C75   H7    S    
O11   Zn12  S    
C130  H73   S    
C97   H58   S    
C155  O42   A    
C5    C16   S    
C176  H2    S    
O8    Zn2   S    
C70   H152  S    
C11   C167  S    
C82   H20   S    
C11   C16   S    
C186  H72   S    
C122  O62   S    
C30   C107  T    
Br1   C184  S    
C141  C145  S    
C119  C165  S    
C6    C12   S    
C53   O48   S    
C91   C92   S    
O7    Zn12  S    
C77   C78   S    
C27   C104  T    
C29   C106  T    
Br20  C79   S    
C113  C122  S    
C136  H83   S    
C31   C108  T    
C23   O47   S    
C16   C17   S    
Br10  C38   S    
C56   C58   S    
C145  O54   S    
O41   Zn8   S    
C89   C91   S    
C83   O58   S    
Br15  C5    S    
C152  O37   A    
C115  C132  S    
C170  O18   A    
C1    O20   A    
C126  O28   A    
C162  O3    A    
Br14  C4    S    
C36   C125  S    
O24   Zn1   S    
O9    Zn3   S    
C51   H109  S    
C119  C123  S    
C71   H154  S    
C52   H110  S    
C14   H78   S    
C79   C180  S    
C178  C182  S    
C87   C88   S    
C160  O66   A    
C48   H101  S    
C45   H97   S    
C94   H49   S    
C54   H115  S    
O64   Zn8   S    
C115  C123  S    
C157  O31   A    
C3    C185  S    
C44   H93   S    
C75   H6    S    
C162  C177  S    
C156  O56   A    
C149  C157  S    
C135  H106  S    
C37   C136  S    
C77   H10   S    
C42   C46   S    
C135  C139  S    
Br17  C7    S    
C49   H103  S    
C120  O60   S    
C111  C116  S    
C137  C145  S    
C71   C72   S    
C121  O61   S    
C127  O29   A    
C34   C186  S    
C91   H42   S    
O40   Zn8   S    
C25   C189  S    
C29   C128  S    
C140  C142  S    
C31   C154  S    
C125  H82   S    
C115  H89   S    
C69   H148  S    
C156  O43   A    
C92   H44   S    
C63   C64   S    
O37   Zn9   S    
C7    C20   S    
C112  C116  S    
C24   C125  S    
C85   H29   S    
C58   H123  S    
C146  H128  S    
C80   H16   S    
C163  O6    A    
C65   H142  S    
C83   C84   S    
C38   C189  S    
C112  C121  S    
C83   H25   S    
O2    Zn11  S    
C159  O35   A    
C141  C170  S    
C164  O8    A    
C172  H24   S    
C133  H84   S    
C150  C159  S    
C51   C52   S    
C97   C98   S    
C13   C57   S    
C15   H79   S    
C78   H12   S    
C80   C81   S    
C174  H46   S    
C111  H86   S    
C1    C131  S    
O43   Zn9   S    
C56   H121  S    
C45   H96   S    
C96   O62   S    
C43   C44   S    
C84   H26   S    
C157  O33   A    
C137  C139  S    
C35   C79   S    
C59   H127  S    
C181  C185  S    
C18   O59   S    
O25   Zn5   S    
C91   H41   S    
C120  C129  S    
C175  C177  S    
C38   C42   S    
C56   H122  S    
C81   C82   S    
C53   C54   S    
O20   Zn6   S    
O32   Zn5   S    
C66   H145  S    
C117  C119  S    
C37   C188  S    
C182  C184  S    
C30   C153  S    
C32   C109  T    
C172  C176  S    
O10   Zn4   S    
O36   Zn8   S    
Br3   C13   S    
C28   C127  S    
O31   Zn1   S    
C52   H111  S    
C4    C19   S    
C21   C186  S    
C63   H136  S    
C4    C9    S    
C142  C146  S    
C13   C114  S    
C48   C49   S    
C2    C90   S    
C72   H157  S    
C50   C51   S    
C78   H15   S    
C71   H155  S    
C148  C150  S    
C174  C175  S    
C13   C39   S    
C83   H23   S    
C67   H147  S    
C55   H118  S    
C138  C140  S    
C48   H100  S    
C113  C132  S    
C93   H47   S    
C86   H32   S    
C66   H144  S    
O21   Zn7   S    
O16   Zn12  S    
C73   H160  S    
O4    Zn2   S    
Br16  C6    S    
C84   H27   S    
C89   H40   S    
C163  C178  S    
C65   H143  S    
C44   H92   S    
C47   C48   S    
C143  C146  S    
C64   C65   S    
C50   H107  S    
C176  C178  S    
Br19  C68   S    
C151  C190  S    
C66   C67   S    
C167  O15   A    
C99   O63   S    
C43   O44   S    
O56   Zn11  S    
C59   H126  S    
C134  C149  S    
C95   H52   S    
C70   O53   S    
C183  H71   S    
O19   Zn4   S    
O65   Zn9   S    
C161  O2    A    
C3    C173  S    
C17   O58   S    
C114  C158  S    
C2    C147  S    
C46   C147  S    
C55   H120  S    
C70   H153  S    
C82   H21   S    
C11   C15   S    
C87   H34   S    
C62   H133  S    
C10   C166  S    
C141  C144  S    
C15   C17   S    
C127  O25   A    
C93   C94   S    
O39   Zn11  S    
C53   H114  S    
Br2   C90   S    
C74   H3    S    
C153  O40   A    
C125  C169  S    
C25   C90   S    
O12   Zn5   S    
C151  O38   A    
C129  H1    S    
C99   C100  S    
C76   H9    S    
Br4   C24   S    
C61   H132  S    
C133  C142  S    
C93   O61   S    
C44   C45   S    
C122  C130  S    
C129  C131  S    
C17   C19   S    
C18   C20   S    
C135  C150  S    
C182  H70   S    
C70   C71   S    
C169  C187  S    
C60   H129  S    
C170  O19   A    
C172  C183  S    
C162  O4    A    
Br18  C57   S    
C74   C75   S    
O23   Zn10  S    
C36   C40   S    
C133  C149  S    
C178  C183  S    
C112  C131  S    
C173  H35   S    
C103  O12   A    
C81   H19   S    
Br7   C34   S    
C94   H50   S    
C5    C19   S    
C54   H116  S    
O30   Zn7   S    
C39   C101  S    
C183  C184  S    
C73   C74   S    
C24   C40   S    
C142  O51   S    
C75   H5    S    
C25   C42   S    
C102  H69   S    
C61   C62   S    
C92   H43   S    
C121  C129  S    
C165  O10   A    
C16   H80   S    
C99   H62   S    
C88   H37   S    
C138  O49   S    
C81   H18   S    
C161  O65   A    
O3    Zn12  S    
O18   Zn3   S    
C21   C57   S    
C137  C150  S    
O17   Zn2   S    
C168  O16   A    
C2    C189  S    
C35   C41   S    
C133  C138  S    
C96   C97   S    
C108  C169  S    
C40   C104  S    
C187  H74   S    
C123  C130  S    
C22   O46   S    
C3    C152  S    
C173  C175  S    
O38   Zn10  S    
C85   H28   S    
C58   H124  S    
C26   C101  T    
C177  C181  S    
C171  C182  S    
C12   C18   S    
O34   Zn10  S    
C63   H137  S    
C60   H130  S    
O42   Zn9   S    
C163  O5    A    
C65   H141  S    
C72   H156  S    
C136  C180  S    
C151  O36   A    
C86   O59   S    
C100  C102  S    
C47   H98   S    
C7    C14   S    
C52   H112  S    
C35   C136  S    
C4    C15   S    
C112  H87   S    
C21   O44   S    
C124  O22   A    
O45   Zn11  S    
C134  C143  S    
C21   C39   S    
C116  C118  S    
C96   H55   S    
C22   C40   S    
C58   C59   S    
C56   O49   S    
C179  H57   S    
C64   H138  S    
C78   H14   S    
Br13  C117  S    
O22   Zn1   S    
C102  H66   S    
C99   H63   S    
C66   O52   S    
C113  H88   S    
C76   C77   S    
C128  O26   A    
C124  O27   A    
C166  O13   A    
O5    Zn3   S    
C38   C147  S    
O6    Zn4   S    
C62   H135  S    
C95   H53   S    
O15   Zn4   S    
C175  H150  S    
C43   H91   S    
C145  C148  S    
C130  C132  S    
C22   C68   S    
C140  C168  S    
C102  H67   S    
C100  H65   S    
C98   H61   S    
C167  O14   A    
C14   C18   S    
C49   H104  S    
Br5   C35   S    
C73   O54   S    
C60   C61   S    
C154  O34   A    
C33   C110  T    
C135  C144  S    
C6    C8    S    
C57   C158  S    
C8    C10   S    
C9    C11   S    
C155  O45   A    
C69   H149  S    
C10   C12   S    
C6    C20   S    
C188  H75   S    
C76   H8    S    
C153  O23   A    
C85   H30   S    
C77   H11   S    
Br9   C37   S    
C109  C180  S    
C171  C190  S    
Br6   C46   S    
C143  O52   S    
C146  C149  S    
C123  O63   S    
C184  C190  S    
C7    C8    S    
C126  O24   A    
O13   Zn2   S    
C89   O60   S    
C72   H158  S    
C41   C105  S    
O27   Zn6   S    
C49   H102  S    
C98   H60   S    
C24   C68   S    
C33   C156  S    
C103  O21   A    
