data_mof_unit_54677.cif
_audit_creation_date              2013-03-05T15:42:15-0500
_audit_creation_method            fapswitch 2.2
_symmetry_space_group_name_H-M    P1
_symmetry_Int_Tables_number       1
_space_group_crystal_system       triclinic
_cell_length_a                    11.564604
_cell_length_b                    11.461458
_cell_length_c                    19.497536
_cell_angle_alpha                 90.539588
_cell_angle_beta                  89.985398
_cell_angle_gamma                 60.257834
_cell_volume                      2243.76430364

loop_
_atom_site_label
_atom_site_type_symbol
_atom_site_description
_atom_site_fract_x
_atom_site_fract_y
_atom_site_fract_z
_atom_type_partial_charge
O1    O     O_R   0.267740 0.231960 0.575440 -0.479908
O2    O     O_R   0.527280 0.186640 0.570530 -0.511399
C1    C     C_R   0.640325 0.117848 0.599103 0.550963
O3    O     O_R   0.728090 0.003450 0.576380 -0.477681
O4    O     O_R   0.682970 0.789190 0.570490 -0.486359
C2    C     C_R   0.612194 0.745867 0.598528 0.548761
O5    O     O_R   0.499290 0.771880 0.575530 -0.502363
O6    O     O_R   0.285330 0.030870 0.569730 -0.462379
C3    C     C_R   0.298503 0.120027 0.605448 0.556873
O7    O     O_R   0.270980 0.227080 0.423890 -0.505415
O8    O     O_R   0.530280 0.182120 0.430050 -0.542582
C4    C     C_R   0.649704 0.114231 0.404236 0.553693
O9    O     O_R   0.731330 0.998570 0.424830 -0.463743
O10   O     O_R   0.685970 0.784660 0.430010 -0.487593
C5    C     C_R   0.581819 0.799994 0.394919 0.527814
O11   O     O_R   0.502530 0.767000 0.423990 -0.523827
O12   O     O_R   0.288330 0.026350 0.429250 -0.486701
C6    C     C_R   0.297320 0.118915 0.393320 0.525743
Cr1   Cr    Cr6+3 0.404720 0.198220 0.499960 1.027760
Cr2   Cr    Cr6+3 0.698290 0.897110 0.500380 1.089432
Cr3   Cr    Cr6+3 0.396970 0.904720 0.499610 1.068687
O13   O     O_3   0.499990 0.000020 0.499980 -0.328192
C7    C     C_1   0.670512 0.647265 0.860316 0.005548
C8    C     C_1   0.654325 0.683978 0.728453 -0.028559
C9    C     C_1   0.663345 0.667405 0.799791 -0.029664
C10   C     C_1   0.640643 0.703867 0.667928 0.007288
C11   C     C_1   0.147336 0.188032 0.863389 -0.000066
C12   C     C_1   0.228393 0.144434 0.735817 -0.026527
C13   C     C_1   0.188694 0.163730 0.805304 -0.028192
C14   C     C_1   0.259521 0.132479 0.676116 0.003117
C15   C     C_1   0.678780 0.190152 0.860992 0.004279
C16   C     C_1   0.658032 0.167521 0.729080 -0.028503
C17   C     C_1   0.665517 0.180251 0.800477 -0.029683
C18   C     C_1   0.652426 0.150450 0.668553 0.008140
H1    H     H_    0.810334 0.703981 0.325519 0.163287
C19   C     C_R   0.646894 0.704994 0.182591 -0.006832
C20   C     C_R   0.514809 0.771818 0.206775 0.029979
C21   C     C_R   0.492661 0.784108 0.278106 0.013496
C22   C     C_R   0.726468 0.721947 0.293743 -0.139621
C23   C     C_R   0.751247 0.682905 0.225995 -0.148981
C24   C     C_R   0.406694 0.808954 0.161563 -0.079995
C25   C     C_R   0.287551 0.823360 0.185582 -0.119854
C26   C     C_R   0.271361 0.813709 0.255244 -0.147571
C27   C     C_R   0.367988 0.803045 0.301382 -0.106589
C28   C     C_R   0.599392 0.768182 0.321631 -0.007473
H2    H     H_    0.417854 0.816216 0.106854 0.121620
H3    H     H_    0.853822 0.625866 0.209012 0.148622
H4    H     H_    0.207830 0.842315 0.150393 0.119293
H5    H     H_    0.178727 0.826909 0.274498 0.139141
H6    H     H_    0.338908 0.809364 0.354022 0.187769
H7    H     H_    0.132360 0.049634 0.333915 0.189852
C29   C     C_R   0.160218 0.188961 0.187194 0.000945
C30   C     C_R   0.241086 0.241655 0.209445 0.024317
C31   C     C_R   0.270919 0.236935 0.279850 0.023224
C32   C     C_R   0.164337 0.102240 0.299909 -0.130653
C33   C     C_R   0.119130 0.123805 0.233269 -0.140404
C34   C     C_R   0.281307 0.311001 0.164217 -0.090847
C35   C     C_R   0.312816 0.405128 0.189563 -0.120910
C36   C     C_R   0.319188 0.419725 0.259776 -0.139747
C37   C     C_R   0.311850 0.328475 0.303907 -0.092392
C38   C     C_R   0.246976 0.150028 0.323082 0.000839
H8    H     H_    0.279516 0.300141 0.109104 0.128780
H9    H     H_    0.049288 0.091195 0.218196 0.150161
H10   H     H_    0.331503 0.467213 0.154864 0.120939
H11   H     H_    0.340227 0.495622 0.279873 0.117923
H12   H     H_    0.332510 0.339440 0.356348 0.172789
H13   H     H_    0.548052 0.362177 0.345568 0.129391
C39   C     C_R   0.678934 0.186797 0.197183 0.001977
C40   C     C_R   0.755169 0.056570 0.224960 -0.010511
C41   C     C_R   0.782853 0.045438 0.295477 0.021197
C42   C     C_R   0.611510 0.278181 0.312328 -0.152866
C43   C     C_R   0.614927 0.297661 0.242058 -0.140577
C44   C     C_R   0.815887 0.939420 0.183462 -0.095973
C45   C     C_R   0.920673 0.820994 0.208368 -0.182172
C46   C     C_R   0.963214 0.815658 0.275386 -0.149636
C47   C     C_R   0.900433 0.929018 0.318672 0.228906
C48   C     C_R   0.688652 0.150042 0.339144 0.035969
H14   H     H_    0.785916 0.940341 0.130767 0.137263
H15   H     H_    0.565199 0.399263 0.222676 0.148602
H16   H     H_    0.971732 0.734027 0.174897 0.123088
H17   H     H_    0.049034 0.724074 0.292580 0.147255
O14   O     O_R   0.821500 0.119340 0.952830 -0.507647
O15   O     O_R   0.037130 0.162530 0.957360 -0.494523
C49   C     C_R   0.084835 0.229415 0.929404 0.543142
O16   O     O_R   0.056440 0.344740 0.951340 -0.508956
O17   O     O_R   0.797900 0.560360 0.957470 -0.495430
C50   C     C_R   0.683920 0.604861 0.929664 0.538500
O18   O     O_R   0.596130 0.579390 0.952730 -0.510096
O19   O     O_R   0.639060 0.321160 0.958670 -0.493727
C51   C     C_R   0.708473 0.206096 0.930299 0.542720
O20   O     O_R   0.821240 0.124200 0.104370 -0.522091
O21   O     O_R   0.036890 0.167040 0.097840 -0.507073
C52   C     C_R   0.087203 0.233599 0.123477 0.534842
O22   O     O_R   0.056180 0.349610 0.102880 -0.522004
O23   O     O_R   0.797660 0.564870 0.097950 -0.505766
C53   C     C_R   0.679457 0.619956 0.122077 0.535141
O24   O     O_R   0.595880 0.584250 0.104270 -0.520864
O25   O     O_R   0.638830 0.325670 0.099150 -0.502356
C54   C     C_R   0.707983 0.210485 0.127124 0.534786
Cr4   Cr    Cr6+3 0.926180 0.151990 0.028120 1.018718
Cr5   Cr    Cr6+3 0.921330 0.451820 0.027470 1.018711
Cr6   Cr    Cr6+3 0.626260 0.446870 0.028710 1.016434
O26   O     O_3   0.824590 0.350230 0.028100 -0.242701
N1    N     N_R   0.966450 0.930654 0.381170 0.079449
O27   O     O_R   0.054477 0.818693 0.409020 -0.361985
O28   O     O_R   0.946755 0.043799 0.407672 -0.339006

loop_
_geom_bond_atom_site_label_1
_geom_bond_atom_site_label_2
_geom_bond_distance
_ccdc_geom_bond_type
C47   N1    1.443043 S    
C23   H3    1.081886 S    
C50   O18   1.270647 A    
C52   O22   1.262849 A    
O19   Cr6   1.927170 S    
C11   C13   1.204385 T    
C24   C25   1.384748 A    
O23   C53   1.275253 A    
C32   C33   1.378694 A    
N1    O28   1.301858 A    
C34   H8    1.081987 S    
O4    Cr2   1.918107 S    
C31   C37   1.424229 A    
C30   C31   1.410488 A    
O8    Cr1   1.931027 S    
O11   Cr3   2.049156 S    
C11   C49   1.432465 S    
C8    C10   1.199569 T    
C43   H15   1.083299 S    
O4    C2    1.274158 A    
C5    O11   1.285642 A    
C44   C45   1.388305 A    
C21   C28   1.434192 A    
C39   C40   1.417128 A    
O22   Cr5   2.046248 S    
O6    C3    1.301355 A    
C24   H2    1.083358 S    
C15   C17   1.201408 T    
C40   C44   1.412220 A    
O20   Cr4   2.043531 S    
H13   C42   1.082794 S    
O24   Cr6   2.044577 S    
C22   C28   1.399161 A    
C37   H12   1.070431 S    
C36   C37   1.395123 A    
Cr5   O26   1.974913 S    
C45   H16   1.082438 S    
Cr3   O13   1.975740 S    
C53   O24   1.269719 A    
C41   C48   1.425995 A    
Cr6   O26   1.991662 S    
N1    O27   1.301977 A    
O6    Cr3   1.932941 S    
C35   H10   1.082742 S    
O1    Cr1   2.050629 S    
C45   C46   1.387492 A    
O10   Cr2   1.926889 S    
C19   C23   1.392153 A    
Cr1   O13   1.972572 S    
O1    C3    1.294667 A    
C8    C9    1.402507 S    
C22   C23   1.374268 A    
C30   C34   1.416152 A    
O17   C50   1.276735 A    
C46   H17   1.082766 S    
C1    C18   1.426626 S    
C35   C36   1.384028 A    
O25   Cr6   1.916437 S    
C44   H14   1.082855 S    
Cr4   O26   1.973384 S    
O12   Cr3   1.924306 S    
C16   C18   1.201427 T    
H1    C22   1.082345 S    
C46   C47   1.403789 A    
C21   C27   1.420974 A    
C20   C21   1.407126 A    
C19   C53   1.448376 S    
O15   C49   1.271416 A    
O7    Cr1   2.050403 S    
C39   C43   1.404829 A    
C15   C51   1.426606 S    
C4    C48   1.474790 S    
O12   C6    1.323080 A    
C33   H9    1.084445 S    
C29   C52   1.449828 S    
C25   H4    1.082726 S    
C49   O16   1.263531 A    
C3    C14   1.433249 S    
Cr2   O13   1.991662 S    
O15   Cr4   1.928828 S    
C26   C27   1.392824 A    
C41   C47   1.430179 A    
C25   C26   1.383957 A    
C5    C28   1.460352 S    
C1    O3    1.270451 A    
C42   C48   1.393163 A    
O16   Cr5   2.052500 S    
C29   C30   1.408281 A    
O21   Cr4   1.931955 S    
C27   H6    1.070515 S    
C12   C13   1.410159 S    
O9    Cr2   2.034937 S    
O2    Cr1   1.933268 S    
O14   Cr4   2.049518 S    
C26   H5    1.072090 S    
O18   Cr6   2.034830 S    
O8    C4    1.300850 A    
C6    C38   1.464639 S    
C2    O5    1.269397 A    
C31   C38   1.438307 A    
O14   C51   1.268544 A    
C16   C17   1.405491 S    
C12   C14   1.204635 T    
O2    C1    1.275559 A    
C39   C54   1.466179 S    
C42   C43   1.393940 A    
O5    Cr3   2.040893 S    
C36   H11   1.083072 S    
C34   C35   1.385981 A    
C2    C10   1.423473 S    
O7    C6    1.263438 A    
C32   C38   1.390116 A    
O21   C52   1.266389 A    
H7    C32   1.080988 S    
C7    C9    1.199557 T    
C20   C24   1.414612 A    
C40   C41   1.404336 A    
O3    Cr2   2.045247 S    
O23   Cr5   1.933786 S    
C4    O9    1.256281 A    
C19   C20   1.405085 A    
O25   C54   1.283036 A    
O10   C5    1.319994 A    
C7    C50   1.423445 S    
O20   C54   1.263567 A    
O19   C51   1.274858 A    
O17   Cr5   1.928462 S    
C29   C33   1.398215 A    
