data_mof_unit_28733.cif
_audit_creation_date              2013-03-05T16:11:19-0500
_audit_creation_method            fapswitch 2.2
_symmetry_space_group_name_H-M    P1
_symmetry_Int_Tables_number       1
_space_group_crystal_system       triclinic
_cell_length_a                    10.818295
_cell_length_b                    9.847892
_cell_length_c                    10.838274
_cell_angle_alpha                 90.279194
_cell_angle_beta                  91.425181
_cell_angle_gamma                 90.399722
_cell_volume                      1154.28154823

loop_
_atom_site_label
_atom_site_type_symbol
_atom_site_description
_atom_site_fract_x
_atom_site_fract_y
_atom_site_fract_z
_atom_type_partial_charge
O1    O     O_R   0.316750 0.614620 0.499990 -0.603753
O2    O     O_R   0.316750 0.385380 0.499990 -0.599078
C1    C     C_R   0.259867 0.499480 0.503770 0.977468
O3    O     O_R   0.499970 0.614670 0.314790 -0.625777
O4    O     O_R   0.499970 0.385330 0.314790 -0.583264
C2    C     C_R   0.504881 0.500094 0.257858 0.994607
Zn1   Zn    Zn3+2 0.499980 0.653120 0.500000 1.094104
Zn2   Zn    Zn3+2 0.499980 0.346880 0.500000 1.083195
O5    O     O_R   0.683220 0.614710 0.500010 -0.563758
O6    O     O_R   0.683220 0.385290 0.500010 -0.556360
O7    O     O_R   0.500010 0.614660 0.685200 -0.541849
O8    O     O_R   0.500010 0.385340 0.685200 -0.595041
C3    C     C_R   0.740001 0.500185 0.501752 1.106532
C4    C     C_R   0.508939 0.500053 0.742055 1.028944
C5    C     C_3   0.413705 0.607087 0.066039 0.446093
C6    C     C_3   0.474673 0.351113 0.070311 0.563921
C7    C     C_3   0.433304 0.616112 0.925183 0.155758
C8    C     C_3   0.459093 0.363082 0.928529 0.060186
H1    H     H_    0.340996 0.597809 0.879461 0.210808
H2    H     H_    0.358228 0.375159 0.908420 0.213678
C9    C     C_3   0.657306 0.537433 0.080635 0.194633
C10   C     C_3   0.515801 0.500222 0.121841 -0.442362
C11   C     C_3   0.521065 0.499979 0.878542 -0.436063
C12   C     C_3   0.663478 0.517201 0.929577 0.306436
C13   C     C_R   0.062022 0.376560 0.485414 0.294429
C14   C     C_R   0.065417 0.617507 0.545384 0.307741
C15   C     C_R   0.934390 0.380680 0.472057 0.326229
C16   C     C_R   0.936877 0.614617 0.551638 0.320846
C17   C     C_R   0.872512 0.499277 0.507232 -0.195778
C18   C     C_R   0.127232 0.497909 0.511709 -0.221472
C19   C     C_R   0.590301 0.073074 0.562349 -0.080347
C20   C     C_R   0.590809 0.929319 0.561486 -0.050665
H3    H     H_    0.662630 0.128305 0.612177 0.216407
H4    H     H_    0.664045 0.876247 0.609837 0.245013
N1    N     N_R   0.499970 0.857200 0.499970 -0.184731
N2    N     N_R   0.499970 0.142800 0.499970 -0.187622
C21   C     C_R   0.408418 0.927652 0.438677 0.544753
C22   C     C_R   0.409455 0.070062 0.437137 0.538019
N3    N     N_R   0.406263 0.747451 0.117722 0.214465
O9    O     O_R   0.498840 0.813941 0.167270 -0.303754
O10   O     O_R   0.305421 0.815639 0.095496 -0.233826
N4    N     N_R   0.559688 0.238973 0.107098 0.277806
O11   O     O_R   0.658143 0.210106 0.046601 -0.283133
O12   O     O_R   0.525874 0.151475 0.189587 -0.277696
O13   O     O_3   0.313906 0.863325 0.374186 -0.645192
H5    H     H_    0.343049 0.773193 0.350296 0.379712
O14   O     O_3   0.319526 0.131635 0.365929 -0.623092
H6    H     H_    0.347312 0.224180 0.348103 0.407254
O15   O     O_3   0.294314 0.551229 0.080909 -0.691483
H7    H     H_    0.275122 0.556061 0.170025 0.366087
O16   O     O_3   0.357519 0.316417 0.117190 -0.713096
H8    H     H_    0.330061 0.228886 0.079061 0.404724
O17   O     O_3   0.464452 0.747302 0.884227 -0.628072
H9    H     H_    0.531825 0.784255 0.936814 0.418929
O18   O     O_3   0.482972 0.238417 0.868862 -0.667442
H10   H     H_    0.570611 0.232237 0.848398 0.418748
N5    N     N_R   0.688950 0.677707 0.125430 0.252382
O19   O     O_R   0.711305 0.780471 0.054378 -0.260487
O20   O     O_R   0.717397 0.694840 0.242055 -0.288946
N6    N     N_R   0.753163 0.453528 0.144153 0.252677
O21   O     O_R   0.868153 0.493460 0.138850 -0.241974
O22   O     O_R   0.727077 0.372369 0.233888 -0.325524
N7    N     N_R   0.733136 0.631065 0.874597 0.248899
O23   O     O_R   0.686268 0.713141 0.793141 -0.345508
O24   O     O_R   0.851550 0.640885 0.898445 -0.244768
N8    N     N_R   0.733857 0.395718 0.888114 0.208596
O25   O     O_R   0.731853 0.367928 0.770593 -0.431054
O26   O     O_R   0.832841 0.354910 0.946836 -0.211988
O27   O     O_3   0.123813 0.255510 0.470787 -0.670775
H11   H     H_    0.071063 0.180096 0.500279 0.369108
O28   O     O_3   0.131769 0.734263 0.574857 -0.681871
H12   H     H_    0.082060 0.814145 0.549657 0.371771
O29   O     O_3   0.869045 0.269940 0.424902 -0.666193
H13   H     H_    0.921543 0.219723 0.366734 0.394955
O30   O     O_3   0.872693 0.721729 0.601694 -0.697640
H14   H     H_    0.926246 0.769122 0.663951 0.385522

loop_
_geom_bond_atom_site_label_1
_geom_bond_atom_site_label_2
_geom_bond_distance
_ccdc_geom_bond_type
C4    C11   1.481837 S    
O1    C1    1.287644 A    
O4    Zn2   2.044567 S    
N8    O26   1.299170 A    
O30   H14   0.991199 S    
C19   H3    1.081636 S    
C9    N5    1.496587 S    
C21   C22   1.402591 A    
C6    N4    1.491520 S    
C13   C15   1.385639 A    
O29   H13   0.991589 S    
C14   C16   1.394016 A    
C19   C20   1.415724 A    
C6    O16   1.417359 S    
C12   N8    1.495796 S    
Zn2   O8    2.040846 S    
N7    O24   1.303366 A    
O18   H10   0.981288 S    
N2    C22   1.374055 A    
O2    C1    1.285843 A    
N5    O19   1.299660 A    
O13   H5    0.979800 S    
O28   H12   0.991623 S    
N3    O10   1.303004 A    
O1    Zn1   2.015568 S    
C9    C10   1.644686 S    
Zn1   O7    2.044474 S    
C14   O28   1.383062 S    
C5    N3    1.492389 S    
C22   O14   1.373035 S    
C7    C11   1.580605 S    
N4    O12   1.301907 A    
C8    O18   1.413203 S    
O3    Zn1   2.040941 S    
C1    C18   1.439587 S    
N6    O22   1.297076 A    
C16   C17   1.404861 A    
N1    C21   1.372946 A    
C5    C10   1.637806 S    
O8    C4    1.286065 A    
N8    O25   1.301109 A    
C12   N7    1.482360 S    
C8    H2    1.114714 S    
O27   H11   0.992397 S    
C5    O15   1.413547 S    
O4    C2    1.291696 A    
O7    C4    1.291589 A    
N5    O20   1.303367 A    
O3    C2    1.285449 A    
C13   O27   1.381164 S    
N4    O11   1.297057 A    
C11   C12   1.631395 S    
C21   O13   1.373462 S    
N7    O23   1.296230 A    
C2    C10   1.481850 S    
C20   N1    1.366653 A    
C7    O17   1.409484 S    
N3    O9    1.296480 A    
O16   H8    0.994441 S    
C15   C17   1.405975 A    
C9    N6    1.487979 S    
C6    C8    1.546880 S    
O15   H7    0.993949 S    
Zn2   N2    2.009755 S    
C9    C12   1.651371 S    
C3    C17   1.433387 S    
C13   C18   1.407804 A    
C5    C7    1.549403 S    
Zn1   O5    2.020698 S    
C19   N2    1.365497 A    
O5    C3    1.288014 A    
C7    H1    1.116823 S    
C15   O29   1.384237 S    
C16   O30   1.382934 S    
Zn1   N1    2.009760 S    
O6    C3    1.283530 A    
Zn2   O6    2.015513 S    
O2    Zn2   2.020764 S    
C8    C11   1.604077 S    
O17   H9    0.980882 S    
C6    C10   1.623772 S    
N6    O21   1.304771 A    
O14   H6    0.979312 S    
C14   C18   1.409444 A    
C20   H4    1.078559 S    
