data_mof_unit_22397.cif
_audit_creation_date              2012-12-11T17:09:35-0500
_audit_creation_method            fapswitch 2.2
_symmetry_space_group_name_H-M    P1
_symmetry_Int_Tables_number       1
_space_group_crystal_system       monoclinic
_cell_length_a                    14.773929
_cell_length_b                    7.147215
_cell_length_c                    13.761954
_cell_angle_alpha                 90.0
_cell_angle_beta                  100.331188
_cell_angle_gamma                 90.0
_cell_volume                      1429.59916052

loop_
_atom_site_label
_atom_site_type_symbol
_atom_type_description
_atom_site_fract_x
_atom_site_fract_y
_atom_site_fract_z
_atom_type_partial_charge
O1    O     O_R   0.586930 0.505770 0.416350 -0.518702
O2    O     O_R   0.413070 0.005770 0.583650 -0.518702
O3    O     O_R   0.397900 0.173100 0.389630 -0.541599
O4    O     O_R   0.602100 0.673100 0.610370 -0.541599
C1    C     C_R   0.364011 0.345027 0.364292 0.708900
C2    C     C_R   0.635989 0.845027 0.635708 0.708900
O5    O     O_R   0.585280 0.175870 0.404330 -0.568272
O6    O     O_R   0.414720 0.675870 0.595670 -0.568272
O7    O     O_R   0.601790 0.008380 0.598460 -0.534429
O8    O     O_R   0.398210 0.508380 0.401540 -0.534430
C3    C     C_R   0.615035 0.344268 0.384159 0.735198
C4    C     C_R   0.384965 0.844269 0.615841 0.735198
O9    O     O_3   0.505200 0.340120 0.563670 -0.384803
O10   O     O_3   0.494800 0.840120 0.436330 -0.384803
V1    V     V_3+5 0.499040 0.064180 0.488190 1.373995
V2    V     V_3+5 0.500960 0.564180 0.511810 1.373995
C5    C     C_R   0.262523 0.014652 0.687768 -0.048125
C6    C     C_R   0.737477 0.514652 0.312232 -0.048125
C7    C     C_R   0.313464 0.853224 0.680918 -0.081292
C8    C     C_R   0.686536 0.353224 0.319082 -0.081292
C9    C     C_R   0.299976 0.708845 0.745750 -0.317016
C10   C     C_R   0.700024 0.208845 0.254250 -0.317016
H1    H     H_    0.332881 0.581248 0.741441 0.118498
H2    H     H_    0.667118 0.081248 0.258559 0.118498
C11   C     C_R   0.242121 0.727687 0.817074 0.374320
C12   C     C_R   0.757879 0.227687 0.182926 0.374321
C13   C     C_R   0.181371 0.878064 0.813261 -0.196456
C14   C     C_R   0.818628 0.378064 0.186739 -0.196456
C15   C     C_R   0.198574 0.024768 0.752312 -0.089781
C16   C     C_R   0.801426 0.524768 0.247688 -0.089781
C17   C     C_3   0.229255 0.219087 0.781190 0.486633
C18   C     C_3   0.770745 0.719087 0.218810 0.486634
C19   C     C_3   0.301940 0.203178 0.713797 0.230368
C20   C     C_3   0.698060 0.703178 0.286203 0.230367
H3    H     H_    0.292158 0.295666 0.647557 0.015558
H4    H     H_    0.707842 0.795666 0.352443 0.015558
C21   C     C_1   0.787348 0.875529 0.778402 -0.194050
C22   C     C_1   0.212652 0.375529 0.221598 -0.194051
C23   C     C_1   0.718763 0.858948 0.713455 -0.186233
C24   C     C_1   0.281236 0.358948 0.286545 -0.186232
O11   O     O_R   0.101720 0.231700 0.098560 -0.535599
O12   O     O_R   0.898280 0.731700 0.901440 -0.535599
O13   O     O_R   0.914700 0.558980 0.095690 -0.537819
O14   O     O_R   0.085300 0.058980 0.904310 -0.537819
C25   C     C_R   0.886417 0.390189 0.117424 0.716073
C26   C     C_R   0.113582 0.890189 0.882576 0.716073
O15   O     O_R   0.102080 0.561590 0.110390 -0.536234
O16   O     O_R   0.897920 0.061590 0.889610 -0.536235
O17   O     O_R   0.086950 0.728940 0.916330 -0.514302
O18   O     O_R   0.913050 0.228940 0.083670 -0.514302
C27   C     C_R   0.132403 0.391276 0.140525 0.711974
C28   C     C_R   0.867597 0.891276 0.859475 0.711974
O19   O     O_3   0.994770 0.394510 0.936380 -0.378159
O20   O     O_3   0.005230 0.894510 0.063620 -0.378159
V3    V     V_3+5 0.000970 0.670520 0.011800 1.458909
V4    V     V_3+5 0.999030 0.170520 0.988200 1.458909
O21   O     O_3   0.244019 0.599130 0.891316 -0.535647
C29   C     C_3   0.325265 0.616703 0.961771 0.176469
H5    H     H_    0.350592 0.759625 0.975531 0.039929
H6    H     H_    0.380737 0.537033 0.938678 0.141417
C30   C     C_3   0.306815 0.540560 0.058126 -0.657858
H7    H     H_    0.372078 0.503231 0.106848 0.163489
H8    H     H_    0.269769 0.647075 0.094720 0.198558
H9    H     H_    0.265030 0.412155 0.044036 0.255944
O22   O     O_3   0.755981 0.099130 0.108685 -0.535647
C31   C     C_3   0.674735 0.116703 0.038229 0.176469
H10   H     H_    0.649408 0.259625 0.024469 0.039929
H11   H     H_    0.619263 0.037033 0.061322 0.141417
C32   C     C_3   0.693185 0.040560 0.941874 -0.657859
H12   H     H_    0.627922 0.003231 0.893152 0.163489
H13   H     H_    0.730231 0.147075 0.905280 0.198558
H14   H     H_    0.734970 0.912155 0.955964 0.255944
O23   O     O_3   0.269896 0.252480 0.883191 -0.530748
C33   C     C_3   0.319982 0.101385 0.934985 0.185676
H15   H     H_    0.345362 0.002119 0.885159 0.156566
H16   H     H_    0.274758 0.029835 0.979477 0.097541
C34   C     C_3   0.406725 0.159803 0.006196 -0.770585
H17   H     H_    0.390453 0.204103 0.078033 0.201468
H18   H     H_    0.452388 0.036567 0.022469 0.156322
H19   H     H_    0.446424 0.266536 0.974009 0.229673
O24   O     O_3   0.730104 0.752480 0.116808 -0.530748
C35   C     C_3   0.680018 0.601385 0.065015 0.185676
H20   H     H_    0.654638 0.502119 0.114841 0.156566
H21   H     H_    0.725242 0.529835 0.020523 0.097541
C36   C     C_3   0.593275 0.659803 0.993804 -0.770586
H22   H     H_    0.609547 0.704103 0.921967 0.201469
H23   H     H_    0.547612 0.536567 0.977531 0.156322
H24   H     H_    0.553576 0.766536 0.025991 0.229673
C37   C     C_3   0.147392 0.355486 0.742202 -0.319887
C38   C     C_3   0.065412 0.277432 0.668372 -0.845116
H25   H     H_    0.088863 0.220341 0.602011 0.227260
H26   H     H_    0.029141 0.166957 0.703271 0.239860
H27   H     H_    0.015469 0.391717 0.644234 0.226585
H28   H     H_    0.118522 0.409621 0.805706 0.257542
H29   H     H_    0.172299 0.472496 0.702360 0.163495
C39   C     C_3   0.852608 0.855486 0.257797 -0.319886
C40   C     C_3   0.934588 0.777432 0.331628 -0.845117
H30   H     H_    0.911137 0.720341 0.397989 0.227260
H31   H     H_    0.970859 0.666957 0.296729 0.239860
H32   H     H_    0.984531 0.891717 0.355766 0.226585
H33   H     H_    0.881478 0.909621 0.194294 0.257542
H34   H     H_    0.827701 0.972496 0.297640 0.163495
O25   O     O_3   0.394385 0.177644 0.764738 -0.553655
C41   C     C_3   0.449200 0.337556 0.762713 0.132655
H35   H     H_    0.440437 0.432677 0.822732 0.096287
H36   H     H_    0.432947 0.408596 0.691695 0.167389
C42   C     C_3   0.550252 0.288655 0.781058 -0.683604
H37   H     H_    0.561111 0.149448 0.750062 0.244509
H38   H     H_    0.589865 0.395470 0.747733 0.195812
H39   H     H_    0.575637 0.291857 0.861335 0.175100
O26   O     O_3   0.605615 0.677644 0.235262 -0.553655
C43   C     C_3   0.550800 0.837557 0.237287 0.132656
H40   H     H_    0.559563 0.932677 0.177268 0.096287
H41   H     H_    0.567053 0.908595 0.308305 0.167389
C44   C     C_3   0.449748 0.788655 0.218942 -0.683604
H42   H     H_    0.438889 0.649448 0.249938 0.244509
H43   H     H_    0.410134 0.895470 0.252267 0.195812
H44   H     H_    0.424363 0.791857 0.138665 0.175100

loop_
_geom_bond_atom_site_label_1
_geom_bond_atom_site_label_2
_ccdc_geom_bond_type
C31   H11   S    
C37   H29   S    
C39   H34   S    
C13   C15   A    
C5    C15   A    
O23   C33   S    
O19   V3    S    
O26   C43   S    
O1    C3    A    
O2    C4    A    
C2    O7    A    
C41   H36   S    
O24   C35   S    
O21   C29   S    
C36   H22   S    
O5    C3    A    
C18   O24   S    
C26   O17   A    
C33   H16   S    
C10   H2    S    
C7    C9    A    
C17   O23   S    
C31   C32   S    
C29   H6    S    
C44   H42   S    
C30   H8    S    
C37   H28   S    
C32   H13   S    
C41   H35   S    
C19   H3    S    
C44   H43   S    
C33   C34   S    
C42   H37   S    
C17   C19   S    
C6    C16   A    
C16   C18   S    
C6    C8    A    
C34   H17   S    
C29   C30   S    
O5    V1    S    
C31   H10   S    
O6    V2    S    
C39   H33   S    
C20   O26   S    
C42   H38   S    
C30   H7    S    
C11   O21   S    
C43   H41   S    
C43   H40   S    
C40   H31   S    
O14   C26   A    
C40   H30   S    
C34   H18   S    
C3    C8    S    
O20   V4    S    
C14   C25   S    
C33   H15   S    
C36   H23   S    
O4    C2    A    
C21   C28   S    
O15   C27   A    
C22   C27   S    
C17   C37   S    
C29   H5    S    
O17   V3    S    
O18   V4    S    
C18   C20   S    
O4    V2    S    
C30   H9    S    
O11   V4    S    
O12   V3    S    
O13   C25   A    
O14   V4    S    
C38   H26   S    
O10   V1    S    
O6    C4    A    
C44   H44   S    
C39   C40   S    
C5    C19   S    
O1    V2    S    
O2    V1    S    
C6    C20   S    
C13   C26   S    
O13   V3    S    
C18   C39   S    
C8    C10   A    
O22   C31   S    
C35   H21   S    
C9    H1    S    
C42   H39   S    
O10   V2    S    
O9    V2    S    
C40   H32   S    
O3    V1    S    
C36   H24   S    
C38   H27   S    
O15   V3    S    
O19   V4    S    
O16   V4    S    
C9    C11   A    
O20   V3    S    
C19   O25   S    
C12   O22   S    
C32   H14   S    
O3    C1    A    
C11   C13   A    
C35   C36   S    
C12   C14   A    
O9    V1    S    
O7    V1    S    
C1    O8    A    
C21   C23   T    
O8    V2    S    
C22   C24   T    
C34   H19   S    
C38   H25   S    
C25   O18   A    
C4    C7    S    
C14   C16   A    
C5    C7    A    
C20   H4    S    
C41   C42   S    
C32   H12   S    
O16   C28   A    
C15   C17   S    
C35   H20   S    
C10   C12   A    
C1    C24   S    
O25   C41   S    
C2    C23   S    
C37   C38   S    
O11   C27   A    
C43   C44   S    
O12   C28   A    
