data_mof_unit_28083.cif
_audit_creation_date              2012-10-26T19:52:46-0400
_audit_creation_method            fapswitch 2.2
_symmetry_space_group_name_H-M    P1
_symmetry_Int_Tables_number       1
_space_group_crystal_system       triclinic
_cell_length_a                    15.058536
_cell_length_b                    10.845933
_cell_length_c                    9.572357
_cell_angle_alpha                 90.172537
_cell_angle_beta                  91.463534
_cell_angle_gamma                 90.370336
_cell_volume                      1562.84387179

loop_
_atom_site_label
_atom_site_type_symbol
_atom_type_description
_atom_site_fract_x
_atom_site_fract_y
_atom_site_fract_z
_atom_type_partial_charge
C1    C     C_R   0.502671 0.262431 0.499675 0.593039
C2    C     C_R   0.182739 0.444949 0.387130 -0.142499
C3    C     C_R   0.231600 0.496606 0.499298 -0.014481
C4    C     C_R   0.328620 0.498637 0.499002 0.552988
C5    C     C_R   0.187628 0.542842 0.615767 -0.149185
C6    C     C_R   0.508610 0.063870 0.624794 0.020875
C7    C     C_R   0.511853 0.129132 0.498859 0.056403
C8    C     C_R   0.525140 0.062539 0.373495 0.053301
C9    C     C_R   0.522386 0.933886 0.375719 -0.161484
C10   C     C_R   0.506720 0.870528 0.500237 -0.020977
C11   C     C_R   0.504137 0.936940 0.624702 -0.058517
C12   C     C_R   0.909028 0.537849 0.621831 0.008918
C13   C     C_3   0.438006 0.932811 0.738667 -0.193046
C14   C     C_3   0.445947 0.073325 0.744078 0.355725
C15   C     C_R   0.573002 0.539747 0.076591 0.200509
C16   C     C_R   0.500057 0.737489 0.500147 0.544019
C17   C     C_R   0.433569 0.443890 0.068123 0.188213
C18   C     C_R   0.433998 0.445081 0.920733 0.028194
C19   C     C_R   0.572779 0.540065 0.929575 0.111432
C20   C     C_3   0.615819 0.663976 0.925576 -0.227457
C21   C     C_3   0.616779 0.663375 0.084715 0.134744
C22   C     C_R   0.671219 0.498923 0.501432 0.536067
C23   C     C_R   0.948551 0.398712 0.272198 -0.132179
C24   C     C_R   0.816423 0.538161 0.621210 -0.145829
C25   C     C_R   0.767910 0.495140 0.503907 -0.020841
C26   C     C_R   0.811838 0.448876 0.387674 -0.126895
C27   C     C_R   0.904250 0.446088 0.387444 0.006899
C28   C     C_R   0.953131 0.491834 0.504388 0.056903
C29   C     C_3   0.305457 0.137251 0.813058 0.021065
C30   C     C_3   0.224472 0.211987 0.765583 -0.259568
C31   C     C_3   0.157748 0.225086 0.881952 -0.492357
C32   C     C_3   0.722954 0.745636 0.241755 0.022040
C33   C     C_3   0.742857 0.870111 0.173199 -0.287370
C34   C     C_R   0.041115 0.397132 0.272373 -0.136588
C35   C     C_3   0.772032 0.966155 0.282139 -0.485061
C36   C     C_R   0.090241 0.444427 0.387033 0.012970
C37   C     C_R   0.046199 0.492104 0.503559 0.060761
C38   C     C_R   0.095166 0.540032 0.619204 0.008897
C39   C     C_R   0.050874 0.584943 0.735751 -0.140610
C40   C     C_R   0.958259 0.583491 0.737248 -0.137312
Cu1   Cu    Cu3+1 0.500000 0.499980 0.640670 0.934916
Cu2   Cu    Cu3+1 0.500000 0.500020 0.359330 0.959484
H1    H     H_    0.782200 0.573996 0.710678 0.120018
H2    H     H_    0.911628 0.362959 0.182069 0.113583
H3    H     H_    0.074273 0.360190 0.182355 0.107779
H4    H     H_    0.216140 0.402411 0.301516 0.112892
H5    H     H_    0.225394 0.581299 0.703713 0.120651
H6    H     H_    0.087840 0.621368 0.825480 0.108434
H7    H     H_    0.925136 0.618832 0.828097 0.116567
H8    H     H_    0.334083 0.180860 0.909614 0.176272
H9    H     H_    0.283791 0.041465 0.836821 0.123940
H10   H     H_    0.246395 0.305407 0.733358 0.183906
H11   H     H_    0.191601 0.166159 0.673818 0.172140
H12   H     H_    0.528885 0.884708 0.278319 0.119646
H13   H     H_    0.133876 0.132877 0.915178 0.146787
H14   H     H_    0.099944 0.279506 0.843407 0.157489
H15   H     H_    0.188752 0.273900 0.973214 0.154841
H16   H     H_    0.549541 0.072682 0.891589 0.196365
H17   H     H_    0.508000 0.212571 0.856595 0.262754
H18   H     H_    0.377119 0.332911 0.212983 0.288795
H19   H     H_    0.314885 0.457864 0.153923 0.238393
H20   H     H_    0.782940 0.716600 0.302758 0.160581
H21   H     H_    0.668785 0.753836 0.318120 0.141754
H22   H     H_    0.796541 0.858446 0.096795 0.174861
H23   H     H_    0.372081 0.898286 0.700187 0.128421
H24   H     H_    0.682676 0.903967 0.116200 0.138575
H25   H     H_    0.719784 0.978423 0.360703 0.156541
H26   H     H_    0.783790 0.055961 0.230130 0.149527
H27   H     H_    0.834611 0.937134 0.336103 0.151755
H28   H     H_    0.486285 0.095964 0.173559 0.244291
H29   H     H_    0.597558 0.094680 0.202081 0.221410
H30   H     H_    0.464092 0.886357 0.834227 0.101867
H31   H     H_    0.379472 0.403401 0.861685 0.151360
H32   H     H_    0.682997 0.660574 0.880494 0.143711
H33   H     H_    0.571642 0.735253 0.879356 0.101657
H34   H     H_    0.774054 0.414368 0.297651 0.151330
H35   H     H_    0.573169 0.734847 0.129789 0.089500
N1    N     N_R   0.500570 0.500930 0.147930 -0.244831
N2    N     N_R   0.500570 0.500890 0.852020 -0.272730
N3    N     N_3   0.490350 0.120519 0.872285 -0.646459
N4    N     N_3   0.358203 0.387393 0.128083 -0.670216
N5    N     N_3   0.537438 0.123778 0.242799 -0.598821
O1    O     O_R   0.500000 0.319640 0.618810 -0.492482
O2    O     O_3   0.704584 0.653451 0.140203 -0.569580
O3    O     O_R   0.500010 0.319680 0.381230 -0.475607
O4    O     O_R   0.370250 0.499950 0.618800 -0.513476
O5    O     O_R   0.370260 0.499990 0.381220 -0.517599
O6    O     O_R   0.499990 0.680320 0.618770 -0.500704
O7    O     O_R   0.500000 0.680360 0.381190 -0.520577
O8    O     O_R   0.629740 0.500010 0.618780 -0.508440
O9    O     O_R   0.629750 0.500050 0.381200 -0.483527
O10   O     O_3   0.367504 0.137720 0.704709 -0.549450

loop_
_geom_bond_atom_site_label_1
_geom_bond_atom_site_label_2
_ccdc_geom_bond_type
Cu1   Cu2   S    
C19   C20   S    
C7    C8    A    
C4    O5    A    
C13   H23   S    
C2    H4    S    
C15   C19   A    
Cu1   O4    S    
C5    H5    S    
C26   C27   A    
C29   C30   S    
C12   C28   A    
C8    N5    S    
C28   C37   A    
C36   C37   A    
C30   C31   S    
C15   N1    A    
C4    O4    A    
C40   H7    S    
Cu1   O1    S    
Cu2   O9    S    
C18   N2    A    
C22   C25   S    
C26   H34   S    
C22   O9    A    
C23   C27   A    
C31   H14   S    
C9    C10   A    
C17   N4    S    
H16   N3    S    
H29   N5    S    
Cu1   O8    S    
C16   O7    A    
C5    C38   A    
C33   H24   S    
C29   H8    S    
C1    O3    A    
C32   O2    S    
C30   H11   S    
C24   C25   A    
C39   C40   A    
Cu2   O3    S    
C8    C9    A    
C25   C26   A    
C23   H2    S    
C20   H33   S    
C12   C40   A    
C37   C38   A    
C6    C14   S    
H18   N4    S    
C21   O2    S    
C35   H25   S    
C23   C34   A    
C17   C18   A    
C22   O8    A    
C20   H32   S    
C34   H3    S    
C19   N2    A    
C14   O10   S    
Cu2   N1    S    
C18   H31   S    
C14   N3    S    
C3    C4    S    
C6    C11   A    
C29   H9    S    
C2    C36   A    
Cu1   O6    S    
C30   H10   S    
C1    C7    S    
C32   H21   S    
C3    C5    A    
H17   N3    S    
Cu1   N2    S    
C6    C7    A    
C9    H12   S    
C13   H30   S    
C1    O1    A    
C12   C24   A    
Cu2   O7    S    
C32   C33   S    
C31   H15   S    
C2    C3    A    
C32   H20   S    
C10   C16   S    
C11   C13   S    
C38   C39   A    
C35   H26   S    
C33   H22   S    
C17   N1    A    
C33   C35   S    
C34   C36   A    
H28   N5    S    
C10   C11   A    
C15   C21   S    
C20   C21   S    
C35   H27   S    
C21   H35   S    
C27   C28   A    
C16   O6    A    
C24   H1    S    
H19   N4    S    
Cu2   O5    S    
C31   H13   S    
C13   C14   S    
C29   O10   S    
C39   H6    S    
