data_mof_unit_18983.cif
_audit_creation_date              2012-12-11T14:49:45-0500
_audit_creation_method            fapswitch 2.2
_symmetry_space_group_name_H-M    P1
_symmetry_Int_Tables_number       1
_space_group_crystal_system       triclinic
_cell_length_a                    11.122138
_cell_length_b                    11.276766
_cell_length_c                    18.827125
_cell_angle_alpha                 89.684445
_cell_angle_beta                  89.997118
_cell_angle_gamma                 119.556067
_cell_volume                      2054.01745126

loop_
_atom_site_label
_atom_site_type_symbol
_atom_type_description
_atom_site_fract_x
_atom_site_fract_y
_atom_site_fract_z
_atom_type_partial_charge
C1    C     C_R   0.530402 0.459555 0.644939 0.604963
C2    C     C_R   0.464141 0.531232 0.354267 0.515748
C3    C     C_R   0.470303 0.937435 0.145990 0.510264
C4    C     C_R   0.066663 0.535795 0.354213 0.524062
C5    C     C_R   0.386643 0.955475 0.543921 -0.064377
C6    C     C_R   0.652555 0.591126 0.969724 -0.128225
C7    C     C_R   0.043269 0.430252 0.543246 -0.060176
C8    C     C_R   0.379554 0.000640 0.962673 -0.024587
C9    C     C_R   0.565865 0.611738 0.543569 -0.061795
C10   C     C_R   0.012314 0.381264 0.959802 -0.122629
C11   C     C_R   0.061571 0.409024 0.030237 -0.128902
C12   C     C_R   0.937206 0.468358 0.853158 0.530465
C13   C     C_R   0.574613 0.629555 0.470130 -0.076894
C14   C     C_R   0.379265 0.000058 0.037580 -0.023718
C15   C     C_R   0.051959 0.421750 0.469805 -0.079354
C16   C     C_R   0.631081 0.618875 0.040169 -0.123894
C17   C     C_R   0.368482 0.945220 0.470462 -0.081862
C18   C     C_R   0.485321 0.988319 0.425521 -0.061299
C19   C     C_R   0.530081 0.511910 0.082057 -0.055716
C20   C     C_R   0.009367 0.495936 0.425227 -0.063906
C21   C     C_R   0.489167 0.998644 0.074344 -0.089341
C22   C     C_R   0.502193 0.514382 0.425745 -0.058483
C23   C     C_R   0.540401 0.071287 0.644642 0.601019
C24   C     C_R   0.088297 0.534625 0.061583 -0.054387
C25   C     C_R   0.018483 0.488262 0.917861 -0.054522
C26   C     C_R   0.511628 0.480469 0.571063 0.018967
C27   C     C_R   0.490947 0.002241 0.925918 -0.092392
C28   C     C_R   0.967149 0.487117 0.570644 0.015543
C29   C     C_R   0.553597 0.465527 0.938374 -0.054111
C30   C     C_R   0.519581 0.032095 0.570777 0.021044
C31   C     C_R   0.619784 0.062686 0.453178 0.258874
C32   C     C_R   0.473206 0.380604 0.057153 0.282113
C33   C     C_R   0.934323 0.555177 0.453221 0.260253
C34   C     C_R   0.552366 0.434741 0.861361 0.565013
C35   C     C_R   0.605908 0.018561 0.035761 0.287553
C36   C     C_R   0.443249 0.381706 0.454095 0.256848
C37   C     C_R   0.101949 0.638466 0.015752 0.257177
C38   C     C_R   0.093118 0.619618 0.942744 0.278963
C39   C     C_R   0.448806 0.364869 0.526396 0.272896
C40   C     C_R   0.587844 0.982524 0.964517 0.285492
C41   C     C_R   0.913450 0.550892 0.525702 0.273321
C42   C     C_R   0.463248 0.361736 0.984172 0.255231
C43   C     C_R   0.636803 0.084023 0.525563 0.274303
C44   C     C_1   0.272938 0.882602 0.593108 0.167966
C45   C     C_R   0.928376 0.469035 0.644746 0.592244
C46   C     C_1   0.773282 0.691635 0.931307 0.227080
C47   C     C_1   0.117038 0.388968 0.591766 0.172697
C48   C     C_1   0.262328 0.989934 0.923652 0.389951
C49   C     C_1   0.605148 0.724643 0.591754 0.173459
C50   C     C_1   0.965324 0.247789 0.929838 0.246375
C51   C     C_1   0.081915 0.308592 0.068627 0.226537
C52   C     C_1   0.670412 0.761932 0.440855 0.242562
C53   C     C_1   0.272472 0.010300 0.076606 0.390059
C54   C     C_1   0.087103 0.324466 0.440589 0.245105
C55   C     C_1   0.717738 0.752263 0.070193 0.244325
C56   C     C_R   0.533020 0.062855 0.854119 0.515497
C57   C     C_1   0.233996 0.906869 0.441403 0.234003
C58   C     C_3   0.756619 0.210850 0.366423 -0.085859
C59   C     C_3   0.511456 0.278479 0.152838 -0.112332
C60   C     C_3   0.786203 0.544114 0.365895 -0.087160
C61   C     C_3   0.772759 0.174272 0.109715 -0.064334
C62   C     C_3   0.454004 0.242704 0.369373 -0.083552
C63   C     C_3   0.987513 0.745070 0.053699 -0.047041
C64   C     C_3   0.231898 0.721340 0.846242 -0.091825
C65   C     C_3   0.253873 0.165462 0.558418 -0.022545
C66   C     C_3   0.597159 0.825220 0.891176 -0.059351
C67   C     C_R   0.468809 0.531697 0.146818 0.526892
C68   C     C_3   0.911077 0.745899 0.558448 -0.022707
C69   C     C_3   0.242245 0.255039 0.946120 -0.046253
C70   C     C_3   0.835966 0.084684 0.559095 -0.023984
C71   C     C_R   0.468766 0.933294 0.354330 0.522300
C72   C     C_R   0.117680 0.565300 0.138637 0.561874
Cr1   Cr    Cr6+3 0.776430 0.541680 0.750000 1.074430
Cr2   Cr    Cr6+3 0.765250 0.223570 0.750000 1.072612
Cr3   Cr    Cr6+3 0.458320 0.234750 0.750000 1.066478
Cr4   Cr    Cr6+3 0.541680 0.776430 0.250000 1.070955
Cr5   Cr    Cr6+3 0.223570 0.765250 0.250000 1.063823
Cr6   Cr    Cr6+3 0.234750 0.458320 0.250000 1.072732
H1    H     H_    0.762399 0.295799 0.397778 0.087575
H2    H     H_    0.696033 0.164449 0.149913 0.076661
H3    H     H_    0.798793 0.264207 0.075442 0.097489
H4    H     H_    0.862162 0.191663 0.142441 0.173923
H5    H     H_    0.533257 0.236088 0.401595 0.090451
H6    H     H_    0.503443 0.321902 0.327526 0.080641
H7    H     H_    0.391481 0.144503 0.341801 0.162616
H8    H     H_    0.978110 0.767800 0.109926 0.174694
H9    H     H_    0.897185 0.642700 0.042307 0.078692
H10   H     H_    0.982463 0.824840 0.021607 0.181012
H11   H     H_    0.174709 0.651483 0.802097 0.150408
H12   H     H_    0.674784 0.178816 0.325533 0.080845
H13   H     H_    0.302360 0.689412 0.870963 0.064781
H14   H     H_    0.295367 0.822924 0.821521 0.143996
H15   H     H_    0.209249 0.068898 0.529161 0.133313
H16   H     H_    0.204216 0.221877 0.536577 0.129874
H17   H     H_    0.223233 0.139830 0.614899 0.154996
H18   H     H_    0.529659 0.834706 0.851237 0.092614
H19   H     H_    0.533559 0.735880 0.925880 0.097697
H20   H     H_    0.668384 0.807051 0.858229 0.178197
H21   H     H_    0.861469 0.794200 0.528656 0.132063
H22   H     H_    0.017962 0.792065 0.537914 0.130016
H23   H     H_    0.855638 0.247485 0.337626 0.162871
H24   H     H_    0.914083 0.774538 0.614940 0.157506
H25   H     H_    0.254302 0.357447 0.957381 0.081007
H26   H     H_    0.157405 0.175342 0.978242 0.180190
H27   H     H_    0.210118 0.232086 0.889902 0.175470
H28   H     H_    0.779417 0.981141 0.536260 0.130040
H29   H     H_    0.855878 0.076432 0.616114 0.156022
H30   H     H_    0.937189 0.136182 0.532320 0.128697
H31   H     H_    0.529819 0.352458 0.195691 0.114247
H32   H     H_    0.611328 0.305238 0.126679 0.066629
H33   H     H_    0.471377 0.178128 0.179354 0.128601
H34   H     H_    0.821452 0.498212 0.324663 0.091253
H35   H     H_    0.748014 0.605115 0.337458 0.162260
H36   H     H_    0.700550 0.463211 0.396676 0.084481
N1    N     N_1   0.186087 0.825292 0.634535 -0.326808
N2    N     N_1   0.109669 0.243698 0.416011 -0.202216
N3    N     N_1   0.788658 0.857512 0.095276 -0.194153
N4    N     N_1   0.128752 0.881679 0.416935 -0.205894
N5    N     N_1   0.869074 0.771736 0.900141 -0.204189
N6    N     N_1   0.174996 0.358968 0.632725 -0.325023
N7    N     N_1   0.169183 0.980994 0.891781 -0.225198
N8    N     N_1   0.633723 0.811426 0.632106 -0.330011
N9    N     N_1   0.930799 0.142468 0.904802 -0.197718
N10   N     N_1   0.097770 0.228573 0.099756 -0.200140
N11   N     N_1   0.750280 0.865495 0.416343 -0.203281
N12   N     N_1   0.188097 0.018926 0.108492 -0.221086
O1    O     O_R   0.916700 0.566820 0.669930 -0.483699
O2    O     O_R   0.566820 0.916700 0.330070 -0.452966
O3    O     O_R   0.083300 0.650120 0.169930 -0.497007
O4    O     O_R   0.349880 0.433180 0.330070 -0.449245
O5    O     O_R   0.649840 0.534790 0.674920 -0.476006
O6    O     O_R   0.884950 0.350160 0.825080 -0.510680
O7    O     O_R   0.465210 0.115050 0.674920 -0.481200
O8    O     O_R   0.649840 0.534790 0.825080 -0.517106
O9    O     O_R   0.884950 0.350160 0.674920 -0.480828
O10   O     O_R   0.465210 0.115050 0.825080 -0.508648
O11   O     O_R   0.534790 0.649840 0.174920 -0.512515
O12   O     O_R   0.650120 0.083300 0.830070 -0.464075
O13   O     O_R   0.350160 0.884950 0.325080 -0.516265
O14   O     O_R   0.115050 0.465210 0.174920 -0.521177
O15   O     O_R   0.534790 0.649840 0.325080 -0.518584
O16   O     O_R   0.350160 0.884950 0.174920 -0.507733
O17   O     O_R   0.115050 0.465210 0.325080 -0.513675
O18   O     O_3   0.666667 0.333333 0.750000 -0.317058
O19   O     O_3   0.333333 0.666667 0.250000 -0.309148
O20   O     O_3   0.737074 0.103220 0.411734 -0.504830
O21   O     O_3   0.412118 0.271493 0.103294 -0.515230
O22   O     O_3   0.892643 0.630694 0.411939 -0.506149
O23   O     O_R   0.433180 0.349880 0.669930 -0.480588
O24   O     O_3   0.731678 0.056206 0.067942 -0.484613
O25   O     O_3   0.366178 0.266142 0.413492 -0.507020
O26   O     O_3   0.118408 0.757209 0.042415 -0.570345
O27   O     O_3   0.141086 0.728845 0.896655 -0.523058
O28   O     O_3   0.399929 0.233890 0.552709 -0.541553
O29   O     O_3   0.675192 0.943851 0.932398 -0.488006
O30   O     O_3   0.832118 0.602301 0.551991 -0.541775
O31   O     O_3   0.361005 0.242974 0.957504 -0.571672
O32   O     O_3   0.769627 0.163788 0.551388 -0.539984
O33   O     O_R   0.916700 0.566820 0.830070 -0.458416
O34   O     O_R   0.650120 0.083300 0.669930 -0.487679
O35   O     O_R   0.433180 0.349880 0.830070 -0.491595
O36   O     O_R   0.566820 0.916700 0.169930 -0.463478
O37   O     O_R   0.083300 0.650120 0.330070 -0.450776
O38   O     O_R   0.349880 0.433180 0.169930 -0.454283

loop_
_geom_bond_atom_site_label_1
_geom_bond_atom_site_label_2
_ccdc_geom_bond_type
Cr5   O37   S    
C62   H5    S    
Cr1   O5    S    
Cr6   O38   S    
Cr2   O6    S    
C63   H10   S    
C11   C24   A    
Cr4   O36   S    
C43   O32   S    
C4    O17   A    
C68   H22   S    
C72   O3    A    
C32   O21   S    
Cr4   O11   S    
Cr2   O12   S    
C24   C72   S    
C37   C38   A    
C31   C43   A    
C14   C21   A    
C68   H24   S    
C61   H4    S    
C66   O29   S    
C29   C42   A    
C26   C39   A    
C5    C17   A    
Cr3   O35   S    
C34   O8    A    
C61   H2    S    
C28   C41   A    
C59   H32   S    
C9    C13   A    
Cr5   O16   S    
Cr2   O18   S    
C3    O36   A    
C2    O4    A    
C31   O20   S    
C60   H36   S    
C67   O38   A    
C44   N1    T    
C54   N2    T    
C2    C22   S    
C69   O31   S    
C40   O29   S    
C1    O23   A    
C35   O24   S    
C12   O6    A    
C61   O24   S    
Cr6   O19   S    
C41   O30   S    
Cr4   O15   S    
C34   O35   A    
C65   H15   S    
Cr2   O9    S    
C51   N10   T    
C60   H35   S    
C3    O16   A    
C64   H11   S    
C67   O11   A    
C19   C32   A    
C56   O10   A    
C9    C26   A    
C17   C18   A    
C46   N5    T    
C69   H25   S    
C15   C20   A    
C62   H7    S    
C28   C45   S    
C45   O9    A    
C62   O25   S    
C23   O7    A    
C39   O28   S    
C23   C30   S    
C9    C49   S    
C15   C54   S    
C10   C11   A    
C48   N7    T    
C69   H27   S    
Cr3   O10   S    
C71   O13   A    
C1    O5    A    
Cr1   O1    S    
C64   O27   S    
C7    C28   A    
C45   O1    A    
C70   O32   S    
C7    C47   S    
C8    C48   S    
C65   O28   S    
C60   H34   S    
C33   O22   S    
C25   C38   A    
C13   C52   S    
C56   O12   A    
C59   H33   S    
C65   H17   S    
C27   C40   A    
C23   O34   A    
C6    C29   A    
Cr3   O7    S    
C24   C37   A    
C4    O37   A    
C53   N12   T    
C58   H23   S    
Cr5   O3    S    
C19   C67   S    
C58   H12   S    
C58   H1    S    
C20   C33   A    
C10   C25   A    
C65   H16   S    
C5    C44   S    
Cr4   O19   S    
C63   H8    S    
C70   H28   S    
C1    C26   S    
Cr4   O2    S    
C30   C43   A    
C3    C21   S    
C42   O31   S    
C64   H14   S    
C37   O26   S    
C10   C50   S    
Cr5   O19   S    
C66   H19   S    
C66   H18   S    
C5    C30   A    
C55   N3    T    
C69   H26   S    
C18   C71   S    
C8    C27   A    
C62   H6    S    
C47   N6    T    
C8    C14   A    
C6    C46   S    
C63   H9    S    
C27   C56   S    
C36   C39   A    
C50   N9    T    
Cr5   O13   S    
C68   O30   S    
Cr6   O14   S    
C52   N11   T    
C58   O20   S    
C36   O25   S    
C21   C35   A    
C22   C36   A    
Cr1   O33   S    
C64   H13   S    
Cr2   O34   S    
C12   C25   S    
C70   H29   S    
C33   C41   A    
C66   H20   S    
C35   C40   A    
Cr6   O4    S    
C16   C55   S    
C61   H3    S    
Cr6   O17   S    
Cr3   O23   S    
C16   C19   A    
C49   N8    T    
C29   C34   S    
C7    C15   A    
C59   H31   S    
C13   C22   A    
C12   O33   A    
C71   O2    A    
C63   O26   S    
C68   H21   S    
C11   C51   S    
Cr3   O18   S    
C6    C16   A    
C4    C20   S    
C72   O14   A    
C14   C53   S    
Cr1   O8    S    
C2    O15   A    
C32   C42   A    
C70   H30   S    
C18   C31   A    
C60   O22   S    
C38   O27   S    
C17   C57   S    
C57   N4    T    
Cr1   O18   S    
C59   O21   S    
