data_mof_unit_63397.cif
_audit_creation_date              2012-12-10T16:48:10-0500
_audit_creation_method            fapswitch 2.2
_symmetry_space_group_name_H-M    P1
_symmetry_Int_Tables_number       1
_space_group_crystal_system       triclinic
_cell_length_a                    18.826434
_cell_length_b                    18.865186
_cell_length_c                    18.774884
_cell_angle_alpha                 109.39045
_cell_angle_beta                  109.295696
_cell_angle_gamma                 109.49797
_cell_volume                      5147.63511614

loop_
_atom_site_label
_atom_site_type_symbol
_atom_type_description
_atom_site_fract_x
_atom_site_fract_y
_atom_site_fract_z
_atom_type_partial_charge
C1    C     C_R   0.383179 0.881302 0.002689 0.934173
C2    C     C_R   0.002453 0.383119 0.881109 0.934223
C3    C     C_R   0.118770 0.616875 0.997429 0.929715
C4    C     C_R   0.881230 0.383133 0.002577 0.939090
C5    C     C_2   0.993633 0.319197 0.740674 -0.153905
C6    C     C_2   0.078812 0.753365 0.258207 -0.154027
C7    C     C_2   0.011025 0.323696 0.817562 -0.334507
C8    C     C_2   0.006370 0.693706 0.182148 -0.331854
C9    C     C_2   0.004645 0.257885 0.679346 -0.160234
C10   C     C_2   0.078788 0.825758 0.319355 -0.153222
C11   C     C_2   0.988068 0.181803 0.675858 -0.324253
C12   C     C_R   0.616824 0.118696 0.997315 0.933847
C13   C     C_2   0.006533 0.813052 0.323846 -0.321759
C14   C     C_R   0.621425 0.002521 0.119327 0.966727
C15   C     C_R   0.378576 0.997480 0.880673 0.966602
C16   C     C_2   0.824545 0.001134 0.242766 0.485560
C17   C     C_2   0.175471 0.998893 0.757245 0.486454
C18   C     C_2   0.813168 0.988186 0.305210 -0.370167
C19   C     C_2   0.186836 0.011815 0.694785 -0.368345
C20   C     C_2   0.750444 0.989665 0.171114 -0.289685
C21   C     C_2   0.249573 0.010362 0.828894 -0.289140
C22   C     C_2   0.694710 0.012116 0.186930 -0.376188
C23   C     C_2   0.323976 0.818143 0.011808 -0.333222
C24   C     C_2   0.305293 0.987888 0.813072 -0.375924
C25   C     C_2   0.258668 0.680501 0.005772 -0.155623
C26   C     C_2   0.741280 0.319437 0.994129 -0.155600
C27   C     C_2   0.182098 0.676218 0.988572 -0.333139
C28   C     C_2   0.817894 0.323792 0.011434 -0.334168
C29   C     C_2   0.320032 0.741860 0.994822 -0.153583
C30   C     C_2   0.679916 0.258091 0.005089 -0.152705
C31   C     C_2   0.676037 0.181848 0.988202 -0.332489
C32   C     C_R   0.997288 0.118691 0.616780 0.934074
C33   C     C_R   0.002195 0.880822 0.383181 0.933425
C34   C     C_R   0.880800 0.997210 0.378218 0.970333
C35   C     C_R   0.119201 0.002790 0.621781 0.970129
C36   C     C_R   0.002086 0.621408 0.118834 0.933788
H1    H     H_    0.039522 0.287511 0.837889 0.160918
H2    H     H_    0.256554 0.034398 0.893429 0.173116
H3    H     H_    0.706662 0.044674 0.252933 0.155192
H4    H     H_    0.293331 0.955317 0.747066 0.155063
H5    H     H_    0.274844 0.636931 0.024504 0.167442
H6    H     H_    0.725063 0.362941 0.975301 0.166131
H7    H     H_    0.161965 0.712588 0.960174 0.159205
H8    H     H_    0.838047 0.287479 0.039908 0.158788
H9    H     H_    0.363811 0.725860 0.976136 0.167515
H10   H     H_    0.636081 0.274058 0.023691 0.167016
H11   H     H_    0.287410 0.838142 0.040153 0.157599
H12   H     H_    0.949823 0.701855 0.162075 0.159486
H13   H     H_    0.712655 0.161867 0.959927 0.157488
H14   H     H_    0.974804 0.362607 0.724269 0.168033
H15   H     H_    0.138575 0.750854 0.274106 0.166804
H16   H     H_    0.897663 0.027303 0.192498 0.327169
H17   H     H_    0.102370 0.972768 0.807540 0.326792
H18   H     H_    0.023119 0.273765 0.635282 0.168568
H19   H     H_    0.138424 0.887856 0.362650 0.165645
H20   H     H_    0.959898 0.161850 0.712650 0.161931
H21   H     H_    0.950194 0.748535 0.287885 0.156651
H22   H     H_    0.749134 0.962757 0.299055 0.112825
H23   H     H_    0.250864 0.037225 0.700924 0.111524
H24   H     H_    0.743474 0.965645 0.106584 0.173325
O1    O     O_R   0.409560 0.858470 0.948950 -0.616458
O2    O     O_R   0.590460 0.039390 0.948920 -0.626975
O3    O     O_R   0.590480 0.948940 0.039400 -0.620106
O4    O     O_R   0.409520 0.051060 0.960600 -0.620082
O5    O     O_R   0.590470 0.051080 0.141520 -0.624299
O6    O     O_R   0.409530 0.948920 0.858480 -0.624275
O7    O     O_R   0.051050 0.141530 0.590440 -0.624236
O8    O     O_R   0.948950 0.858470 0.409560 -0.631465
O9    O     O_R   0.948920 0.039390 0.590460 -0.614987
O10   O     O_R   0.051080 0.960610 0.409540 -0.607942
O11   O     O_R   0.960590 0.051060 0.409530 -0.563101
O12   O     O_R   0.590440 0.141530 0.051050 -0.616423
O13   O     O_R   0.039410 0.948940 0.590470 -0.560746
O14   O     O_R   0.858460 0.948920 0.409550 -0.643518
O15   O     O_R   0.141540 0.051080 0.590450 -0.645674
O16   O     O_R   0.051060 0.590470 0.141520 -0.615495
O17   O     O_R   0.948940 0.409530 0.858480 -0.615361
O18   O     O_3   0.902470 0.020187 0.243610 -0.741781
O19   O     O_3   0.097557 0.979869 0.756419 -0.744241
O20   O     O_R   0.948910 0.590450 0.039380 -0.625765
O21   O     O_R   0.051090 0.409550 0.960620 -0.625610
O22   O     O_R   0.141530 0.590470 0.051060 -0.619971
O23   O     O_R   0.858470 0.409530 0.948940 -0.615735
O24   O     O_R   0.039370 0.590450 0.948920 -0.625410
O25   O     O_R   0.960630 0.409550 0.051080 -0.621491
O26   O     O_R   0.409540 0.960610 0.051080 -0.626975
Zn1   Zn    Zn3+2 0.500010 0.931800 0.931810 0.955978
Zn2   Zn    Zn3+2 0.499990 0.068200 0.068190 0.956008
Zn3   Zn    Zn3+2 0.068190 0.068200 0.499990 0.988863
Zn4   Zn    Zn3+2 0.931810 0.931800 0.500010 0.992305
Zn5   Zn    Zn3+2 0.068210 0.500010 0.068200 0.958122
Zn6   Zn    Zn3+2 0.931790 0.499990 0.931800 0.958215

loop_
_geom_bond_atom_site_label_1
_geom_bond_atom_site_label_2
_ccdc_geom_bond_type
O17   Zn6   S    
C2    C7    S    
O7    Zn3   S    
O25   Zn5   S    
C13   C33   S    
O23   Zn6   S    
C35   O15   A    
C23   C29   D    
H17   O19   S    
O13   Zn4   S    
C30   C31   D    
O26   Zn2   S    
C13   H21   S    
C14   O3    A    
C17   O19   S    
C12   O2    A    
C8    C36   S    
O1    Zn1   S    
C4    C28   S    
C18   H22   S    
C21   H2    S    
O8    Zn4   S    
C15   O4    A    
C6    H15   S    
C20   H24   S    
C36   O16   A    
C12   O12   A    
C31   H13   S    
H16   O18   S    
O12   Zn2   S    
C25   C29   S    
C23   H11   S    
C36   O20   A    
C25   H5    S    
O6    Zn1   S    
C5    C7    D    
C17   C19   D    
C6    C8    D    
C4    O25   A    
C19   H23   S    
C15   O6    A    
C28   H8    S    
C17   C21   S    
O22   Zn5   S    
C29   H9    S    
O20   Zn6   S    
C8    H12   S    
C5    C9    S    
C9    C11   D    
O11   Zn3   S    
C16   C20   S    
C3    O22   A    
C7    H1    S    
C10   H19   S    
C18   C34   S    
C33   O10   A    
C34   O14   A    
C32   O7    A    
C15   C24   S    
C20   C22   D    
C11   C32   S    
C26   C30   S    
C12   C31   S    
C5    H14   S    
O10   Zn3   S    
O9    Zn4   S    
C26   H6    S    
O5    Zn2   S    
C1    O26   A    
C35   O13   A    
O3    Zn1   S    
C30   H10   S    
C10   C13   D    
C1    O1    A    
C6    C10   S    
C1    C23   S    
C32   O9    A    
C25   C27   D    
O2    Zn1   S    
C26   C28   D    
C14   C22   S    
C3    C27   S    
C2    O17   A    
C19   C35   S    
O14   Zn4   S    
C4    O23   A    
C22   H3    S    
C24   H4    S    
C14   O5    A    
C16   O18   S    
O15   Zn3   S    
O16   Zn5   S    
O21   Zn5   S    
C27   H7    S    
C16   C18   D    
C21   C24   D    
C3    O24   A    
C2    O21   A    
C9    H18   S    
O24   Zn6   S    
C34   O11   A    
O4    Zn2   S    
C11   H20   S    
C33   O8    A    
