data_mof_unit_57964.cif
_audit_creation_date              2012-12-10T18:49:19-0500
_audit_creation_method            fapswitch 2.2
_symmetry_space_group_name_H-M    P1
_symmetry_Int_Tables_number       1
_space_group_crystal_system       triclinic
_cell_length_a                    9.84713
_cell_length_b                    10.675775
_cell_length_c                    13.621897
_cell_angle_alpha                 90.365143
_cell_angle_beta                  83.223152
_cell_angle_gamma                 90.613406
_cell_volume                      1421.90666234

loop_
_atom_site_label
_atom_site_type_symbol
_atom_type_description
_atom_site_fract_x
_atom_site_fract_y
_atom_site_fract_z
_atom_type_partial_charge
C1    C     C_R   0.501018 0.740010 0.499146 0.937581
C2    C     C_R   0.917198 0.577591 0.563196 0.555611
C3    C     C_1   0.542493 0.501427 0.210485 -0.157030
C4    C     C_1   0.457237 0.495446 0.789379 -0.199113
C5    C     C_2   0.558482 0.503419 0.018870 -0.166236
C6    C     C_2   0.441371 0.489488 0.980846 -0.158885
C7    C     C_1   0.445137 0.492105 0.877068 -0.011034
C8    C     C_1   0.554536 0.502604 0.122723 0.013894
C9    C     C_R   0.614690 0.938199 0.450858 0.485064
C10   C     C_R   0.391189 0.062216 0.556597 0.474319
C11   C     C_R   0.609335 0.067139 0.450129 -0.376355
C12   C     C_R   0.499216 0.260173 0.500988 0.906022
C13   C     C_R   0.392065 0.933550 0.552649 -0.365692
C14   C     C_3   0.126091 0.216873 0.389874 0.088430
C15   C     C_3   0.228626 0.135146 0.327235 -0.764591
C16   C     C_3   0.882620 0.693327 0.710607 0.050242
C17   C     C_3   0.766506 0.747315 0.781257 -0.807404
C18   C     C_3   0.843647 0.896665 0.434251 0.126583
C19   C     C_3   0.955063 0.818069 0.377674 -0.781662
C20   C     C_3   0.312728 0.146815 0.705508 0.106365
C21   C     C_3   0.197580 0.222166 0.760957 -0.810589
C22   C     C_R   0.498958 0.127933 0.502779 -0.202389
C23   C     C_R   0.502842 0.872540 0.500163 -0.185013
C24   C     C_R   0.475733 0.499334 0.685760 0.882051
C25   C     C_R   0.524221 0.500118 0.314210 0.898777
C26   C     C_R   0.936882 0.422696 0.438154 -0.326176
C27   C     C_R   0.063293 0.578599 0.561082 -0.346130
C28   C     C_R   0.081260 0.419603 0.439605 0.558070
H1    H     H_    0.888270 0.364578 0.386914 0.165187
H2    H     H_    0.204652 0.034750 0.342520 0.204613
H3    H     H_    0.223685 0.153326 0.247554 0.242811
H4    H     H_    0.962550 0.767477 0.696265 0.137649
H5    H     H_    0.924078 0.611253 0.747149 0.138748
H6    H     H_    0.685387 0.675257 0.798883 0.258718
H7    H     H_    0.805556 0.777747 0.850907 0.206462
H8    H     H_    0.722119 0.829266 0.747100 0.246439
H9    H     H_    0.833904 0.869003 0.513513 0.175977
H10   H     H_    0.876515 0.996559 0.427633 0.110505
H11   H     H_    0.973845 0.849849 0.299736 0.245704
H12   H     H_    0.114360 0.642262 0.606920 0.154236
H13   H     H_    0.051324 0.828020 0.412233 0.201394
H14   H     H_    0.923618 0.717898 0.378727 0.265536
H15   H     H_    0.409280 0.202413 0.705124 0.121290
H16   H     H_    0.322349 0.057378 0.745703 0.134286
H17   H     H_    0.100226 0.167848 0.765536 0.245497
H18   H     H_    0.221684 0.243379 0.836962 0.206688
H19   H     H_    0.185074 0.311653 0.722000 0.267304
H20   H     H_    0.344205 0.476974 0.026827 0.163923
H21   H     H_    0.655592 0.516262 0.972857 0.157272
H22   H     H_    0.689600 0.119849 0.406699 0.173939
H23   H     H_    0.307557 0.881530 0.591962 0.178588
H24   H     H_    0.023599 0.195920 0.366957 0.109764
H25   H     H_    0.126642 0.190944 0.468900 0.187124
H26   H     H_    0.333871 0.155834 0.344465 0.258718
N1    N     N_R   0.142790 0.500030 0.500020 -0.117778
N2    N     N_R   0.857210 0.499970 0.499980 -0.122681
O1    O     O_R   0.385380 0.683250 0.500010 -0.638315
O2    O     O_3   0.831776 0.658760 0.621512 -0.583476
O3    O     O_3   0.719332 0.875946 0.393968 -0.598404
O4    O     O_3   0.281716 0.122871 0.608563 -0.615201
O5    O     O_R   0.614620 0.316750 0.499990 -0.641514
O6    O     O_R   0.614710 0.683220 0.500000 -0.542264
O7    O     O_R   0.385290 0.316780 0.500000 -0.551104
O8    O     O_R   0.368830 0.499990 0.640350 -0.627247
O9    O     O_R   0.631170 0.500010 0.359650 -0.615316
O10   O     O_R   0.598160 0.499960 0.640350 -0.570349
O11   O     O_R   0.401840 0.500040 0.359650 -0.563811
O12   O     O_3   0.162726 0.344251 0.374277 -0.581056
Zn1   Zn    Zn3+2 0.346870 0.500020 0.500000 0.990872
Zn2   Zn    Zn3+2 0.653130 0.499980 0.500000 0.994564

loop_
_geom_bond_atom_site_label_1
_geom_bond_atom_site_label_2
_ccdc_geom_bond_type
O5    Zn2   S    
C5    C8    S    
C10   O4    S    
C2    O2    S    
C15   H3    S    
C6    C7    S    
C17   H8    S    
C1    O1    A    
C16   H5    S    
C20   O4    S    
C11   C22   A    
C26   C28   A    
C25   O11   A    
C19   H14   S    
C24   O10   A    
C27   H12   S    
C2    C27   A    
O1    Zn1   S    
C1    O6    A    
N1    Zn1   S    
C18   H10   S    
C24   O8    A    
C11   H22   S    
C16   O2    S    
O8    Zn1   S    
C10   C22   A    
C12   O5    A    
C9    C11   A    
O6    Zn2   S    
C5    H21   S    
O10   Zn2   S    
C6    H20   S    
C15   H2    S    
C4    C7    T    
C19   H11   S    
C14   H24   S    
C28   O12   S    
C18   H9    S    
C1    C23   S    
N2    Zn2   S    
O7    Zn1   S    
C5    C6    D    
C4    C24   S    
C27   N1    A    
C20   H15   S    
C3    C8    T    
C16   H4    S    
C17   H6    S    
O9    Zn2   S    
C15   H26   S    
C12   C22   S    
C18   O3    S    
C3    C25   S    
C14   H25   S    
C25   O9    A    
C20   C21   S    
C13   C23   A    
C26   H1    S    
C21   H18   S    
O11   Zn1   S    
C12   O7    A    
C14   O12   S    
C14   C15   S    
C18   C19   S    
C2    N2    A    
C17   H7    S    
C20   H16   S    
C13   H23   S    
C9    O3    S    
C28   N1    A    
C9    C23   A    
C19   H13   S    
C21   H19   S    
C16   C17   S    
C21   H17   S    
C10   C13   A    
C26   N2    A    
