data_mof_unit_20500.cif
_audit_creation_date              2013-03-05T16:15:03-0500
_audit_creation_method            fapswitch 2.2
_symmetry_space_group_name_H-M    P1
_symmetry_Int_Tables_number       1
_space_group_crystal_system       triclinic
_cell_length_a                    8.39627
_cell_length_b                    17.321355
_cell_length_c                    19.14996
_cell_angle_alpha                 104.036219
_cell_angle_beta                  92.303292
_cell_angle_gamma                 98.305331
_cell_volume                      2665.35753061

loop_
_atom_site_label
_atom_site_type_symbol
_atom_site_description
_atom_site_fract_x
_atom_site_fract_y
_atom_site_fract_z
_atom_type_partial_charge
P1    P     P_3+3 0.038810 0.422920 0.331160 0.460722
O1    O     O_2   0.871520 0.445720 0.321500 -0.332098
O2    O     O_3   0.121030 0.451930 0.411150 -0.399100
O3    O     O_3   0.662190 0.593100 0.375060 -0.355817
O4    O     O_2   0.729294 0.516105 0.247441 -0.349577
O5    O     O_3   0.027263 0.318766 0.286558 -0.646495
O6    O     O_3   0.735156 0.666330 0.257387 -0.529675
H1    H     H_    0.773786 0.738557 0.360989 0.161644
C1    C     C_3   0.790979 0.809050 0.281211 -0.607265
H2    H     H_    0.912465 0.799894 0.263480 0.237984
P2    P     P_3+3 0.678260 0.686080 0.568600 0.467268
P3    P     P_3+3 0.127347 0.740390 0.433317 0.446558
O7    O     O_2   0.853880 0.696450 0.547730 -0.411515
O8    O     O_3   0.085100 0.636210 0.413950 -0.393933
O9    O     O_2   0.976189 0.772550 0.463956 -0.413147
O10   O     O_3   0.665912 0.709775 0.663253 -0.596313
O11   O     O_3   0.134331 0.768848 0.351795 -0.532602
C2    C     C_3   0.213926 0.715342 0.303623 0.314217
H3    H     H_    0.135443 0.655615 0.285137 0.129151
H4    H     H_    0.329127 0.707753 0.329560 0.001293
C3    C     C_3   0.249992 0.747576 0.237419 -0.776569
H5    H     H_    0.135627 0.742258 0.204038 0.237752
C4    C     C_3   0.260732 0.723627 0.652561 0.218450
H6    H     H_    0.375354 0.703224 0.636824 0.131425
H7    H     H_    0.173969 0.715164 0.605004 0.093003
C5    C     C_3   0.291259 0.812422 0.695632 -0.622814
H8    H     H_    0.359778 0.817675 0.747630 0.237994
H9    H     H_    0.174981 0.832679 0.709896 0.215188
Ba1   Ba    Ba6+2 0.853800 0.535410 0.467450 1.584322
C6    C     C_3   0.967799 0.252408 0.314196 0.186340
C7    C     C_3   0.047527 0.179416 0.273872 -0.611113
H10   H     H_    0.005501 0.125102 0.293708 0.232937
H11   H     H_    0.180407 0.193351 0.286024 0.201496
C8    C     C_3   0.788340 0.769436 0.706195 0.399348
C9    C     C_3   0.716094 0.808887 0.776338 -0.772012
H12   H     H_    0.627892 0.847216 0.765875 0.244981
H13   H     H_    0.813030 0.847488 0.816148 0.237757
H14   H     H_    0.653506 0.762166 0.800907 0.225363
P4    P     P_3+3 0.150900 0.577150 0.668860 0.485354
O12   O     O_2   0.318180 0.554310 0.678550 -0.352545
O13   O     O_3   0.068680 0.548140 0.588860 -0.385991
O14   O     O_3   0.527520 0.406960 0.624950 -0.368575
O15   O     O_3   0.194186 0.681898 0.700429 -0.561246
P5    P     P_3+3 0.058229 0.260489 0.580285 0.457710
O16   O     O_3   0.608500 0.402060 0.457050 -0.356579
O17   O     O_3   0.104610 0.363860 0.586060 -0.370096
O18   O     O_2   0.182112 0.220633 0.531890 -0.364271
O19   O     O_3   0.104160 0.234914 0.661489 -0.579455
Ba2   Ba    Ba6+2 0.336030 0.464660 0.532560 1.569279
P6    P     P_3+3 0.632605 0.582459 0.281589 0.444655
C10   C     C_3   0.714511 0.736942 0.307866 0.278494
H15   H     H_    0.585035 0.740437 0.313473 0.001394
H16   H     H_    0.715554 0.813848 0.233818 0.209670
O20   O     O_3   0.581210 0.598010 0.542960 -0.318293
C11   C     C_3   0.445571 0.337979 0.308213 0.498214
H17   H     H_    0.342708 0.361639 0.335564 0.121600
H18   H     H_    0.554017 0.385441 0.318314 0.160556
C12   C     C_3   0.396463 0.313049 0.227392 -0.925412
H19   H     H_    0.266658 0.289479 0.217358 0.218186
H20   H     H_    0.419050 0.366210 0.204318 0.233695
H21   H     H_    0.462911 0.265562 0.198743 0.326538
P7    P     P_3+3 0.512149 0.300837 0.427003 0.417574
O21   O     O_2   0.335820 0.303580 0.452320 -0.353133
O22   O     O_3   0.480432 0.271651 0.332537 -0.596282
H22   H     H_    0.329948 0.710569 0.204037 0.164322
C13   C     C_3   0.031803 0.274898 0.722589 0.469199
C14   C     C_3   0.038488 0.225147 0.779888 -0.734894
H23   H     H_    0.165910 0.226859 0.798868 0.181845
H24   H     H_    0.977199 0.252395 0.828169 0.198991
P8    P     P_3+3 0.562800 0.416856 0.717134 0.417110
C15   C     C_3   0.485663 0.262217 0.664860 0.342502
H25   H     H_    0.594893 0.262580 0.634489 0.039716
O23   O     O_2   0.435002 0.465193 0.754519 -0.410306
O24   O     O_3   0.511856 0.319948 0.731786 -0.593133
H26   H     H_    0.388701 0.275903 0.631638 0.194193
C16   C     C_3   0.432532 0.177396 0.675222 -0.553829
H27   H     H_    0.387551 0.135726 0.622018 0.195641
H28   H     H_    0.332035 0.177752 0.710825 0.239078
C17   C     C_R   0.984799 0.472878 0.045830 0.003453
C18   C     C_R   0.881619 0.441377 0.092456 -0.049330
C19   C     C_R   0.790306 0.422094 0.936498 -0.201579
C20   C     C_R   0.934657 0.469498 0.972051 0.073427
C21   C     C_R   0.731534 0.427490 0.869845 -0.182993
C22   C     C_R   0.824823 0.470213 0.828613 -0.016137
C23   C     C_R   0.981407 0.511087 0.857759 0.011948
C24   C     C_R   0.035424 0.510852 0.930417 0.036161
C25   C     C_R   0.769443 0.467387 0.757192 0.191733
C26   C     C_R   0.874870 0.498989 0.713021 -0.465715
C27   C     C_R   0.032162 0.537909 0.738124 0.227632
C28   C     C_R   0.084915 0.549243 0.813849 -0.076676
C29   C     C_R   0.144987 0.507503 0.073825 0.017925
C30   C     C_R   0.200820 0.506943 0.146194 0.032719
C31   C     C_R   0.099008 0.468070 0.190165 -0.123544
C32   C     C_R   0.945582 0.427527 0.156757 -0.055785
H29   H     H_    0.832575 0.493391 0.657594 0.181885
H30   H     H_    0.614244 0.393309 0.850143 0.195121
C33   C     C_R   0.233790 0.595538 0.849275 -0.015641
C34   C     C_R   0.284396 0.593441 0.919338 -0.214913
C35   C     C_R   0.191778 0.548864 0.959947 0.034814
C36   C     C_R   0.249867 0.543573 0.029932 0.069917
C37   C     C_R   0.411824 0.571928 0.056993 -0.182318
C38   C     C_R   0.362226 0.541645 0.172636 0.013456
C39   C     C_R   0.465448 0.571721 0.126370 -0.206885
C40   C     C_R   0.416487 0.546284 0.244652 0.078470
C41   C     C_R   0.307676 0.519134 0.290652 -0.498875
C42   C     C_R   0.153268 0.475196 0.265438 0.221240
H31   H     H_    0.590791 0.595367 0.142578 0.194098
H32   H     H_    0.722209 0.375785 0.956416 0.147727
H33   H     H_    0.396106 0.631750 0.942944 0.123793
H34   H     H_    0.502740 0.593422 0.025049 0.138371
C43   C     C_2   0.417001 0.724183 0.503074 -0.501508
C44   C     C_3   0.305498 0.784140 0.498277 0.201701
C45   C     C_2   0.391745 0.859036 0.482524 -0.160171
C46   C     C_2   0.553007 0.879716 0.497215 0.068987
C47   C     C_2   0.646717 0.819896 0.516755 -0.310430
C48   C     C_1   0.571817 0.749675 0.524284 0.284038
C49   C     C_R   0.789389 0.137877 0.532585 -0.267750
C50   C     C_R   0.851794 0.218312 0.538867 0.342713
C51   C     C_R   0.611773 0.233898 0.470806 0.126907
C52   C     C_R   0.550059 0.151406 0.461645 -0.204319
C53   C     C_R   0.636824 0.104624 0.496516 0.120464
C54   C     C_2   0.637699 0.960725 0.495682 -0.094318
C55   C     C_2   0.559850 0.024487 0.502118 -0.066749
C56   C     C_R   0.759338 0.266874 0.511336 -0.450869
H35   H     H_    0.432784 0.019045 0.511378 0.138900
H36   H     H_    0.774480 0.838387 0.531657 0.181001
H37   H     H_    0.857632 0.102292 0.558112 0.136472
H38   H     H_    0.766749 0.968214 0.490271 0.129438
H39   H     H_    0.318503 0.898255 0.464629 0.160535
H40   H     H_    0.360079 0.666219 0.509313 0.163757
H41   H     H_    0.807086 0.329908 0.518093 0.155459
C57   C     C_2   0.383279 0.868581 0.658244 0.523887
H42   H     H_    0.505765 0.862181 0.645814 0.080403
O25   O     O_2   0.323321 0.923618 0.643963 -0.562298
C58   C     C_2   0.788551 0.227365 0.298905 0.620164
H43   H     H_    0.719279 0.204329 0.337911 -0.008658
O26   O     O_2   0.722803 0.220988 0.239470 -0.538949
C59   C     C_2   0.007956 0.265895 0.392962 0.435921
H44   H     H_    0.012055 0.323815 0.430532 0.089382
O27   O     O_2   0.023273 0.207733 0.416171 -0.588406
C60   C     C_2   0.012902 0.156185 0.193004 0.770495
H45   H     H_    0.057831 0.196675 0.160708 -0.026393
O28   O     O_2   0.935240 0.090510 0.162766 -0.527312
C61   C     C_2   0.859434 0.835359 0.670836 0.467584
H46   H     H_    0.951344 0.824405 0.633149 0.040462
O29   O     O_2   0.817866 0.901863 0.684643 -0.580545
N1    N     N_3   0.916361 0.728526 0.725414 -0.198328
H47   H     H_    0.924574 0.682662 0.679667 0.156812
H48   H     H_    0.880407 0.697900 0.764485 0.122567
C62   C     C_2   0.809615 0.885622 0.339595 0.589847
H49   H     H_    0.884589 0.891796 0.388721 0.052240
O30   O     O_2   0.743816 0.941715 0.331821 -0.540026
N2    N     N_3   0.124485 0.355333 0.751935 -0.167670
H50   H     H_    0.082472 0.379588 0.801686 0.064731
H51   H     H_    0.242661 0.348470 0.764166 0.201993
N3    N     N_3   0.863388 0.281060 0.705430 -0.224892
H52   H     H_    0.860306 0.327153 0.679182 0.079393
H53   H     H_    0.810024 0.300072 0.753664 0.104901
C63   C     C_2   0.964276 0.138263 0.750527 0.692698
H54   H     H_    0.005925 0.102354 0.702108 0.064849
O31   O     O_2   0.858872 0.107001 0.781551 -0.555266
N4    N     N_3   0.563570 0.146445 0.706344 -0.141571
H55   H     H_    0.607871 0.186379 0.755777 0.197812
H56   H     H_    0.656365 0.143156 0.671505 0.144299
C64   C     C_2   0.863288 0.355905 0.175124 0.687714
H57   H     H_    0.920307 0.302783 0.166339 0.007674
O32   O     O_2   0.726726 0.353527 0.194223 -0.569111
C65   C     C_2   0.335752 0.656429 0.822342 0.623618
H58   H     H_    0.439065 0.641218 0.792886 0.039026
O33   O     O_2   0.314372 0.726543 0.839808 -0.576421
C66   C     C_2   0.354479 0.544369 0.367749 0.781162
H59   H     H_    0.351996 0.605614 0.394919 -0.062334
O34   O     O_2   0.415630 0.500936 0.398577 -0.547656
N5    N     N_3   0.709406 0.425544 0.076411 -0.210169
H60   H     H_    0.654100 0.456666 0.119770 0.184681
H61   H     H_    0.667471 0.363931 0.068169 0.121671
C67   C     C_2   0.400038 0.114367 0.413841 0.596761
H62   H     H_    0.314020 0.151122 0.401940 0.102752
O35   O     O_2   0.373017 0.042294 0.384768 -0.553793
C68   C     C_2   0.332509 0.833619 0.258906 0.818213
H63   H     H_    0.444844 0.849953 0.292711 0.018434
O36   O     O_2   0.273156 0.885781 0.239101 -0.516726

loop_
_geom_bond_atom_site_label_1
_geom_bond_atom_site_label_2
_geom_bond_distance
_ccdc_geom_bond_type
C13   N3    1.463627 S    
C66   H59   1.065857 S    
P6    C40   1.881239 S    
C31   C32   1.420000 A    
C6    C59   1.486232 S    
C2    C3    1.528446 S    
C16   N4    1.458022 S    
N1    H47   1.042314 S    
C1    C10   1.528637 S    
C22   C25   1.413886 A    
C11   H17   1.105756 S    
C19   C20   1.407741 A    
O2    Ba2   2.830538 S    
C58   H43   1.080691 S    
P4    O13   1.586646 S    
Ba1   Ba2   4.606432 S    
C51   C56   1.402492 A    
C52   C53   1.423793 A    
C66   O34   1.216887 D    
O17   Ba2   2.814470 S    
C8    C61   1.526197 S    
C5    H8    1.107104 S    
C64   H57   1.078349 S    
C47   H36   1.080083 S    
C45   H39   1.083406 S    
O1    Ba1   2.870768 S    
Ba2   O21   2.839831 S    
O7    Ba1   2.839651 S    
N3    H52   1.044210 S    
C9    H13   1.111901 S    
C16   H28   1.105713 S    
C8    C9    1.542470 S    
C60   O28   1.220831 D    
C15   C16   1.534977 S    
C55   H35   1.082973 S    
Ba1   O20   2.954224 S    
C12   H20   1.110304 S    
Ba2   O20   2.825401 S    
O16   P7    1.767236 S    
O14   P8    1.740691 S    
C4    O15   1.385932 S    
P1    O1    1.529029 D    
C8    N1    1.451821 S    
C4    C5    1.537970 S    
O2    Ba1   2.943322 S    
C49   C53   1.404464 A    
N5    H60   1.040124 S    
C40   C41   1.404754 A    
P7    O22   1.754376 S    
O10   C8    1.419075 S    
C3    C68   1.500616 S    
C63   H54   1.085378 S    
C68   O36   1.220511 D    
C57   H42   1.080004 S    
C67   O35   1.220996 D    
P3    O11   1.748103 S    
P8    O24   1.763523 S    
C4    H6    1.100831 S    
C7    H11   1.109633 S    
C43   C48   1.324530 D    
O16   Ba2   2.953371 S    
C29   C36   1.423942 A    
N2    H51   1.040400 S    
C1    H2    1.108765 S    
C28   C33   1.429730 A    
C17   C29   1.417432 A    
O3    Ba1   2.794697 S    
C29   C30   1.447786 A    
P5    O18   1.546599 D    
C30   C38   1.419917 A    
P1    C42   1.930312 S    
Ba1   O13   2.829940 S    
C12   H21   1.107761 S    
C65   O33   1.220572 D    
C13   C14   1.554820 S    
C26   H29   1.082593 S    
C64   O32   1.215541 D    
C34   H33   1.079363 S    
C3    H5    1.111628 S    
P8    C25   1.869092 S    
C32   C64   1.457318 S    
O13   Ba2   2.944175 S    
C44   C45   1.494780 S    
C19   C21   1.379141 A    
P5    O17   1.751830 S    
C33   C34   1.401522 A    
C36   C37   1.409209 A    
N4    H56   1.044790 S    
C1    C62   1.496777 S    
N1    H48   1.047278 S    
C53   C55   1.474656 S    
C10   H15   1.105555 S    
C9    H14   1.110921 S    
C16   H27   1.111419 S    
C61   O29   1.222500 D    
P4    O12   1.529326 D    
C2    H3    1.111979 S    
P4    O15   1.746231 S    
C37   H34   1.077700 S    
C23   C24   1.447160 A    
C14   H23   1.109934 S    
C56   H41   1.081848 S    
O3    P6    1.758025 S    
P1    O2    1.586481 S    
C9    H12   1.106338 S    
C7    C60   1.507458 S    
C52   C67   1.491732 S    
P7    O21   1.579889 D    
P2    C48   1.846412 S    
C31   C42   1.464688 A    
C15   O24   1.408208 S    
P2    O10   1.769545 S    
C43   H40   1.083935 S    
C21   C22   1.396529 A    
P3    O9    1.539772 D    
P5    C50   1.846537 S    
C51   C52   1.413560 A    
C11   O22   1.403000 S    
P8    O23   1.547732 D    
P1    Ba1   3.428548 S    
O11   C2    1.403684 S    
C50   C56   1.399646 A    
C22   C23   1.421862 A    
C38   C40   1.414609 A    
C24   C35   1.409516 A    
C49   H37   1.082996 S    
H1    C10   1.106740 S    
P7    C51   1.855594 S    
P2    O20   1.574038 S    
C59   O27   1.216157 D    
C67   H62   1.081132 S    
C57   O25   1.221098 D    
C65   H58   1.083212 S    
O5    C6    1.414582 S    
P3    O8    1.731940 S    
C6    C58   1.501109 S    
C11   H18   1.111217 S    
C62   O30   1.220669 D    
O4    P6    1.534704 D    
C1    H16   1.112304 S    
O8    Ba1   2.813851 S    
C18   C32   1.410520 A    
C33   C65   1.466238 S    
P3    C44   1.850649 S    
C5    C57   1.490298 S    
C68   H63   1.083385 S    
C45   C46   1.349500 D    
C14   H24   1.113159 S    
C58   O26   1.217910 D    
C41   C66   1.454625 S    
C43   C44   1.511207 S    
C3    H22   1.109184 S    
C7    H10   1.114499 S    
O6    P6    1.750427 S    
C61   H46   1.083063 S    
C17   C20   1.442841 A    
C14   C63   1.503244 S    
C23   C28   1.435804 A    
P4    Ba2   3.429239 S    
C46   C47   1.494214 S    
N4    H55   1.045318 S    
C13   N2    1.460938 S    
C41   C42   1.406962 A    
C5    H9    1.106707 S    
C35   C36   1.436111 A    
N3    H53   1.044365 S    
C63   O31   1.220363 D    
C12   H19   1.099090 S    
C18   N5    1.438484 S    
C15   H25   1.105614 S    
C20   C24   1.421539 A    
C49   C50   1.390273 A    
C15   H26   1.100460 S    
P2    O7    1.540121 D    
O12   Ba2   2.871384 S    
C6    C7    1.566969 S    
C21   H30   1.075199 S    
C30   C31   1.435186 A    
C2    H4    1.108766 S    
C4    H7    1.110240 S    
C54   H38   1.084693 S    
C38   C39   1.400957 A    
N5    H61   1.045531 S    
C19   H32   1.072034 S    
C59   H44   1.078531 S    
O14   Ba2   2.794195 S    
O6    C10   1.400598 S    
C17   C18   1.416845 A    
C46   C54   1.486212 S    
P5    O19   1.760256 S    
C26   C27   1.401536 A    
P2    Ba1   3.409404 S    
C25   C26   1.394078 A    
C37   C39   1.386552 A    
C34   C35   1.404311 A    
C11   C12   1.524786 S    
Ba1   O16   2.826015 S    
P1    O5    1.785787 S    
C54   C55   1.345828 D    
C62   H49   1.084842 S    
C39   H31   1.076669 S    
O19   C13   1.415419 S    
C27   C28   1.456972 A    
C60   H45   1.081387 S    
P4    C27   1.887622 S    
C47   C48   1.329325 D    
N2    H50   1.041297 S    
