data_mof_unit_59035.cif
_audit_creation_date              2013-03-05T15:40:19-0500
_audit_creation_method            fapswitch 2.2
_symmetry_space_group_name_H-M    P1
_symmetry_Int_Tables_number       1
_space_group_crystal_system       triclinic
_cell_length_a                    7.809625
_cell_length_b                    8.59322
_cell_length_c                    12.873083
_cell_angle_alpha                 89.763527
_cell_angle_beta                  88.960094
_cell_angle_gamma                 93.747662
_cell_volume                      861.908755629

loop_
_atom_site_label
_atom_site_type_symbol
_atom_site_description
_atom_site_fract_x
_atom_site_fract_y
_atom_site_fract_z
_atom_type_partial_charge
O1    O     O_R   0.609680 0.261530 0.506880 -0.555338
O2    O     O_R   0.390320 0.738470 0.493120 -0.586705
O3    O     O_R   0.323330 0.288220 0.488910 -0.591079
O4    O     O_R   0.676670 0.711780 0.511090 -0.589567
C1    C     C_R   0.457576 0.206055 0.488059 0.887881
C2    C     C_R   0.546895 0.793665 0.493849 0.871683
O5    O     O_R   0.619510 0.488830 0.661140 -0.541889
O6    O     O_R   0.380490 0.511170 0.338860 -0.541464
O7    O     O_R   0.333160 0.515520 0.643180 -0.634997
O8    O     O_R   0.666840 0.484480 0.356820 -0.637488
C3    C     C_R   0.465713 0.491494 0.699254 0.917507
C4    C     C_R   0.528625 0.482843 0.300814 0.918497
Zn1   Zn    Zn3+2 0.691200 0.482180 0.511990 1.103696
Zn2   Zn    Zn3+2 0.308800 0.517820 0.488010 1.084232
N1    N     N_2   0.054030 0.541640 0.471970 -0.146759
N2    N     N_2   0.945970 0.458360 0.528030 -0.136339
C5    C     C_R   0.535773 0.447500 0.190679 -0.208729
C6    C     C_R   0.442514 0.466677 0.809664 -0.196655
C7    C     C_R   0.269015 0.497123 0.963252 -0.061757
C8    C     C_R   0.707512 0.409575 0.037061 -0.049421
C9    C     C_R   0.292080 0.513370 0.857360 -0.197019
C10   C     C_R   0.694908 0.430350 0.143161 -0.181301
C11   C     C_R   0.571099 0.401724 0.869084 0.329005
C12   C     C_R   0.385266 0.434661 0.130855 0.435111
C13   C     C_R   0.561889 0.418631 0.976308 -0.028273
C14   C     C_R   0.403422 0.448955 0.023664 -0.013379
H1    H     H_    0.808427 0.430763 0.188788 0.260043
H2    H     H_    0.191560 0.561724 0.812877 0.212289
H3    H     H_    0.150955 0.533608 0.997896 0.198307
H4    H     H_    0.832919 0.398828 0.002067 0.227170
H5    H     H_    0.998921 0.618209 0.422977 0.248176
H6    H     H_    0.001171 0.381315 0.576610 0.252962
C15   C     C_2   0.442754 0.044886 0.460981 -0.005149
C16   C     C_2   0.577525 0.955989 0.476625 0.003879
S1    S     S_3+6 0.179015 0.377156 0.184438 0.027444
O9    O     O_2   0.096104 0.522433 0.217527 -0.349313
O10   O     O_2   0.070960 0.290945 0.105222 -0.296937
O11   O     O_3   0.195069 0.257638 0.286751 -0.480587
H7    H     H_    0.087017 0.266159 0.327089 0.412699
S2    S     S_3+6 0.720918 0.274527 0.814649 0.061204
O12   O     O_2   0.879803 0.368681 0.778373 -0.290749
O13   O     O_2   0.770297 0.157008 0.893739 -0.251305
O14   O     O_3   0.633482 0.176817 0.713916 -0.501069
H8    H     H_    0.528418 0.120613 0.742888 0.338717
N3    N     N_R   0.283997 0.983097 0.418250 0.238683
O15   O     O_R   0.140825 0.997098 0.468895 -0.285896
O16   O     O_R   0.283035 0.911332 0.329387 -0.310308
N4    N     N_R   0.752054 0.018338 0.483573 0.249471
O17   O     O_R   0.827529 0.087147 0.403270 -0.339329
O18   O     O_R   0.836322 0.001491 0.568730 -0.269855

loop_
_geom_bond_atom_site_label_1
_geom_bond_atom_site_label_2
_geom_bond_distance
_ccdc_geom_bond_type
C4    C5    1.452020 S    
O7    Zn2   2.010128 S    
C3    C6    1.442754 S    
N1    H5    1.029259 S    
N2    H6    1.029055 S    
C6    C9    1.398465 A    
C15   N3    1.436243 S    
C5    C10   1.391945 A    
O6    C4    1.286358 A    
O14   H8    0.990558 S    
S1    O11   1.678364 S    
N4    O18   1.301202 A    
C15   C16   1.357734 D    
C8    H4    1.080188 S    
N3    O15   1.296726 A    
O5    C3    1.290808 A    
O7    C3    1.299672 A    
C1    C15   1.427409 S    
O2    C2    1.282542 A    
O3    Zn2   1.983654 S    
O8    C4    1.308228 A    
C6    C11   1.415157 A    
O1    C1    1.278424 A    
N1    N2    1.280550 D    
S2    O13   1.503927 D    
N4    O17   1.301132 A    
S1    O10   1.502192 D    
C9    H2    1.083431 S    
C8    C10   1.380753 A    
C10   H1    1.072128 S    
N3    O16   1.301726 A    
O11   H7    0.989723 S    
O2    Zn2   1.962029 S    
C12   S1    1.779685 S    
O1    Zn1   1.962030 S    
C8    C13   1.398012 A    
C11   S2    1.788425 S    
C5    C12   1.415427 A    
C2    C16   1.415626 S    
O5    Zn1   1.992303 S    
C11   C13   1.389587 A    
C16   N4    1.436037 S    
O4    C2    1.292923 A    
Zn1   N2    2.027580 S    
O4    Zn1   1.983652 S    
C7    C14   1.400608 A    
Zn2   N1    2.027578 S    
S2    O12   1.502320 D    
O6    Zn2   1.992303 S    
C7    C9    1.377083 A    
C13   C14   1.409670 A    
S2    O14   1.678990 S    
S1    O9    1.503083 D    
C12   C14   1.388696 A    
O3    C1    1.301627 A    
O8    Zn1   2.010126 S    
C7    H3    1.082259 S    
