data_mof_unit_30488.cif
_audit_creation_date              2012-12-10T19:04:47-0500
_audit_creation_method            fapswitch 2.2
_symmetry_space_group_name_H-M    P1
_symmetry_Int_Tables_number       1
_space_group_crystal_system       triclinic
_cell_length_a                    15.837411
_cell_length_b                    10.924984
_cell_length_c                    9.585167
_cell_angle_alpha                 92.083559
_cell_angle_beta                  91.328678
_cell_angle_gamma                 91.769166
_cell_volume                      1656.0815904

loop_
_atom_site_label
_atom_site_type_symbol
_atom_type_description
_atom_site_fract_x
_atom_site_fract_y
_atom_site_fract_z
_atom_type_partial_charge
C1    C     C_R   0.497629 0.262123 0.496595 0.796764
C2    C     C_3   0.082669 0.492432 0.498661 0.165435
C3    C     C_3   0.976201 0.578902 0.594940 -0.195331
C4    C     C_3   0.917078 0.492982 0.504301 0.162888
C5    C     C_3   0.029687 0.603592 0.464977 -0.174163
C6    C     C_3   0.969734 0.516943 0.375719 0.140851
C7    C     C_1   0.174371 0.494122 0.496371 -0.055840
C8    C     C_1   0.825364 0.494654 0.505571 -0.092565
C9    C     C_R   0.528412 0.070973 0.609427 0.090880
C10   C     C_R   0.501407 0.128539 0.489023 -0.158403
C11   C     C_R   0.484318 0.053153 0.365490 0.085512
C12   C     C_R   0.339885 0.499142 0.498644 0.846599
C13   C     C_R   0.488723 0.925996 0.374682 -0.248192
C14   C     C_R   0.505544 0.870546 0.501263 -0.114966
C15   C     C_R   0.531220 0.945344 0.616113 0.061872
C16   C     C_3   0.506250 0.947919 0.765676 -0.515070
C17   C     C_3   0.502642 0.086746 0.758194 -0.084429
C18   C     C_R   0.569137 0.542396 0.078500 0.188712
C19   C     C_R   0.434562 0.447831 0.066310 0.310850
C20   C     C_R   0.435176 0.448338 0.919097 -0.122278
C21   C     C_R   0.570322 0.539949 0.931045 0.177989
C22   C     C_3   0.610238 0.665975 0.932765 -0.151486
C23   C     C_R   0.501520 0.737458 0.502044 0.799523
C24   C     C_3   0.606791 0.668788 0.091579 -0.496388
C25   C     C_R   0.660080 0.499495 0.501428 0.822902
C26   C     C_3   0.970235 0.381972 0.538113 -0.181892
C27   C     C_3   0.023889 0.405992 0.407876 -0.168987
C28   C     C_1   0.250037 0.496468 0.496117 -0.144257
C29   C     C_1   0.749791 0.496891 0.504480 -0.199756
C30   C     C_3   0.030804 0.467968 0.628815 -0.151578
Cu1   Cu    Cu3+1 0.500000 0.499980 0.640670 0.933599
Cu2   Cu    Cu3+1 0.500000 0.500020 0.359330 0.971669
H1    H     H_    0.044644 0.335520 0.330778 0.135137
H2    H     H_    0.557605 0.919907 0.836588 0.183287
H3    H     H_    0.437051 0.119340 0.767178 0.151927
H4    H     H_    0.382369 0.407653 0.858580 0.178650
H5    H     H_    0.566078 0.729027 0.883920 0.182643
H6    H     H_    0.668803 0.671127 0.148425 0.189984
H7    H     H_    0.561734 0.736329 0.132710 0.193749
H8    H     H_    0.944524 0.291433 0.568758 0.134426
H9    H     H_    0.055118 0.694331 0.434442 0.127009
H10   H     H_    0.956033 0.649754 0.671816 0.145038
H11   H     H_    0.057620 0.447225 0.733019 0.142950
H12   H     H_    0.473073 0.869510 0.281786 0.169496
H13   H     H_    0.443691 0.901975 0.780740 0.190745
N1    N     N_R   0.500530 0.500930 0.147930 -0.203199
N2    N     N_R   0.500530 0.500890 0.852020 -0.216643
O1    O     O_R   0.500000 0.319640 0.618810 -0.587552
O2    O     O_R   0.500010 0.319680 0.381230 -0.575424
O3    O     O_R   0.379070 0.499970 0.618770 -0.591793
O4    O     O_R   0.379080 0.500010 0.381190 -0.517387
O5    O     O_R   0.499990 0.680320 0.618770 -0.580095
O6    O     O_R   0.500000 0.680360 0.381190 -0.588419
O7    O     O_R   0.620920 0.499990 0.618810 -0.585713
O8    O     O_R   0.620930 0.500030 0.381230 -0.574751
C31   C     C_3   0.566769 0.159565 0.856618 -0.341136
C32   C     C_3   0.658762 0.162189 0.808188 -0.315905
C33   C     C_3   0.717019 0.232060 0.914532 -0.870721
H14   H     H_    0.697103 0.328266 0.928714 0.253060
H15   H     H_    0.715734 0.187147 0.016624 0.251604
H16   H     H_    0.782785 0.232965 0.876767 0.242363
H17   H     H_    0.680961 0.067326 0.793533 0.212603
H18   H     H_    0.662904 0.208386 0.707022 0.224180
H19   H     H_    0.545944 0.255245 0.867810 0.215385
H20   H     H_    0.564305 0.121128 0.961937 0.182913
Br1   Br    Br    0.334296 0.373375 0.136727 -0.595613
C34   C     C_3   0.701064 0.671739 0.876454 -0.343117
C35   C     C_3   0.719338 0.796075 0.812463 -0.367556
C36   C     C_3   0.806869 0.803600 0.750098 -0.870658
H21   H     H_    0.856286 0.792570 0.832006 0.251618
H22   H     H_    0.812444 0.731627 0.666421 0.259367
H23   H     H_    0.816948 0.894535 0.704009 0.241877
H24   H     H_    0.672113 0.810589 0.727636 0.224262
H25   H     H_    0.714499 0.870137 0.894245 0.220232
H26   H     H_    0.749133 0.656533 0.959905 0.193706
H27   H     H_    0.709279 0.598309 0.796084 0.228652
C37   C     C_3   0.932973 0.545067 0.232197 -0.432006
C38   C     C_3   0.003120 0.563274 0.126902 -0.322577
C39   C     C_3   0.966810 0.598150 0.985779 -0.873162
H28   H     H_    0.923986 0.523645 0.940885 0.257906
H29   H     H_    0.931344 0.683716 0.997813 0.249862
H30   H     H_    0.019191 0.614135 0.913060 0.244577
H31   H     H_    0.048178 0.637405 0.166074 0.222355
H32   H     H_    0.038324 0.477372 0.113100 0.226708
H33   H     H_    0.889740 0.467882 0.195486 0.200969
H34   H     H_    0.895844 0.629481 0.242448 0.198313
C40   C     C_3   0.454194 0.093943 0.223196 -0.387468
C41   C     C_3   0.359381 0.062820 0.198593 -0.307630
C42   C     C_3   0.335512 0.057114 0.043084 -0.817531
H35   H     H_    0.265797 0.047445 0.029370 0.248264
H36   H     H_    0.357830 0.141178 0.991910 0.272482
H37   H     H_    0.364390 0.976664 0.991192 0.236655
H38   H     H_    0.341703 0.972519 0.241098 0.209660
H39   H     H_    0.321754 0.132533 0.254157 0.250462
H40   H     H_    0.467276 0.190557 0.201354 0.243655
H41   H     H_    0.490540 0.042978 0.143405 0.176859

loop_
_geom_bond_atom_site_label_1
_geom_bond_atom_site_label_2
_ccdc_geom_bond_type
C40   C41   S    
C3    H10   S    
C36   H23   S    
C18   C21   A    
C19   C20   A    
Cu1   O5    S    
C4    C8    S    
C32   C33   S    
C19   N1    A    
C32   H17   S    
C37   C38   S    
C27   H1    S    
C26   C27   S    
C12   C28   S    
C18   C24   S    
C8    C29   T    
C5    C6    S    
C33   H15   S    
C31   H20   S    
C24   H7    S    
C31   C32   S    
C19   Br1   S    
C36   H22   S    
C2    C7    S    
C16   H2    S    
C38   H31   S    
Cu1   Cu2   S    
C11   C40   S    
C35   C36   S    
C40   H40   S    
C24   H6    S    
C31   H19   S    
C23   O6    A    
C2    C27   S    
C42   H36   S    
C9    C10   A    
Cu2   O8    S    
C33   H16   S    
C37   H33   S    
Cu1   N2    S    
C21   C22   S    
C18   N1    A    
C32   H18   S    
C25   C29   S    
Cu2   O2    S    
C41   H39   S    
C34   C35   S    
C25   O7    A    
C4    C6    S    
C39   H29   S    
C38   C39   S    
C16   C17   S    
C6    C37   S    
C35   H24   S    
C22   H5    S    
C7    C28   T    
C14   C23   S    
C3    C30   S    
Cu2   O4    S    
C12   O3    A    
C6    C27   S    
C40   H41   S    
C42   H37   S    
C17   C31   S    
C9    C17   S    
C37   H34   S    
C26   C30   S    
Cu1   O1    S    
C22   C24   S    
C30   H11   S    
C2    C5    S    
C34   H26   S    
Cu1   O3    S    
C3    C4    S    
Cu2   O6    S    
C12   O4    A    
C5    H9    S    
C41   H38   S    
Cu2   N1    S    
C1    C10   S    
C25   O8    A    
C3    C5    S    
C16   H13   S    
C39   H30   S    
C4    C26   S    
C1    O1    A    
C2    C30   S    
C33   H14   S    
C11   C13   A    
C26   H8    S    
C23   O5    A    
C1    O2    A    
Cu1   O7    S    
C9    C15   A    
C36   H21   S    
C22   C34   S    
C20   N2    A    
C10   C11   A    
C39   H28   S    
C20   H4    S    
C38   H32   S    
C41   C42   S    
C14   C15   A    
C34   H27   S    
C17   H3    S    
C42   H35   S    
C13   C14   A    
C35   H25   S    
C13   H12   S    
C15   C16   S    
C21   N2    A    
