data_mof_unit_46058.cif
_audit_creation_date              2012-12-10T16:57:05-0500
_audit_creation_method            fapswitch 2.2
_symmetry_space_group_name_H-M    P1
_symmetry_Int_Tables_number       1
_space_group_crystal_system       triclinic
_cell_length_a                    7.795234
_cell_length_b                    8.618228
_cell_length_c                    16.510741
_cell_angle_alpha                 92.347662
_cell_angle_beta                  80.405223
_cell_angle_gamma                 93.118942
_cell_volume                      1091.50011732

loop_
_atom_site_label
_atom_site_type_symbol
_atom_type_description
_atom_site_fract_x
_atom_site_fract_y
_atom_site_fract_z
_atom_type_partial_charge
C1    C     C_R   0.544779 0.794262 0.499496 0.863897
C2    C     C_R   0.455246 0.205728 0.500414 0.873421
C3    C     C_2   0.562617 0.957364 0.510538 0.183988
C4    C     C_2   0.437536 0.042589 0.489241 0.179302
C5    C     C_R   0.477730 0.506709 0.654934 0.843729
C6    C     C_R   0.524446 0.507041 0.345527 0.835957
C7    C     C_R   0.470727 0.543416 0.742327 -0.033184
C8    C     C_R   0.546506 0.564118 0.262474 -0.032538
C9    C     C_R   0.621968 0.538629 0.777330 -0.182074
C10   C     C_R   0.424103 0.664087 0.243041 -0.175941
C11   C     C_R   0.623461 0.595735 0.856903 -0.153328
C12   C     C_R   0.451701 0.734716 0.167853 -0.165300
C13   C     C_R   0.473710 0.659961 0.902410 0.206483
C14   C     C_R   0.599601 0.702575 0.110066 0.197948
C15   C     C_R   0.321027 0.660132 0.868342 -0.179718
C16   C     C_R   0.726492 0.609357 0.130744 -0.169320
C17   C     C_R   0.319307 0.602413 0.788709 -0.195987
C18   C     C_R   0.700283 0.540439 0.206875 -0.191905
C19   C     C_2   0.465056 0.706612 0.989151 -0.222565
C20   C     C_2   0.607420 0.737851 0.023731 -0.236598
H1    H     H_    0.740075 0.492791 0.742902 0.174263
H2    H     H_    0.308150 0.690064 0.286456 0.183166
H3    H     H_    0.798683 0.467522 0.221907 0.154782
H4    H     H_    0.200935 0.607967 0.762889 0.157312
H5    H     H_    0.734986 0.753351 0.986222 0.144376
H6    H     H_    0.338152 0.690695 0.027452 0.147855
H7    H     H_    0.203025 0.705023 0.903450 0.122934
H8    H     H_    0.841087 0.583291 0.086420 0.123927
H9    H     H_    0.354321 0.809606 0.153617 0.136461
H10   H     H_    0.740876 0.585370 0.882649 0.123411
N1    N     N_2   0.953500 0.457650 0.478520 0.193040
N2    N     N_2   0.046500 0.542350 0.521480 0.191359
O1    O     O_R   0.388470 0.738640 0.505270 -0.578733
O2    O     O_R   0.611530 0.261360 0.494730 -0.574088
O3    O     O_R   0.679650 0.711510 0.491500 -0.593506
O4    O     O_R   0.320350 0.288490 0.508500 -0.589938
O5    O     O_R   0.337210 0.515200 0.623500 -0.644454
O6    O     O_R   0.662790 0.484800 0.376500 -0.640270
O7    O     O_R   0.628380 0.488060 0.609730 -0.569414
O8    O     O_R   0.371620 0.511940 0.390270 -0.572817
Zn1   Zn    Zn3+2 0.305580 0.518120 0.509190 1.059506
Zn2   Zn    Zn3+2 0.694420 0.481880 0.490810 1.064297
O9    O     O_3   0.693848 0.023137 0.550489 -0.760421
H11   H     H_    0.762933 0.940254 0.567100 0.364743
O10   O     O_3   0.306417 0.976786 0.449231 -0.767722
H12   H     H_    0.237111 0.059638 0.432774 0.363431
O11   O     O_3   0.041595 0.355024 0.426869 -0.663594
H13   H     H_    0.952141 0.299593 0.398920 0.337235
O12   O     O_3   0.958334 0.644710 0.573287 -0.669096
H14   H     H_    0.047695 0.699831 0.601417 0.335688

loop_
_geom_bond_atom_site_label_1
_geom_bond_atom_site_label_2
_ccdc_geom_bond_type
C16   H8    S    
C2    C4    S    
N2    Zn1   S    
C19   H6    S    
C15   C17   A    
N1    Zn2   S    
C5    O5    A    
C12   H9    S    
C11   C13   A    
C15   H7    S    
N1    N2    D    
O2    Zn2   S    
O9    H11   S    
O1    Zn1   S    
C2    O2    A    
C19   C20   D    
C5    O7    A    
C1    O1    A    
N1    O11   S    
O10   H12   S    
C10   H2    S    
C9    C11   A    
C3    O9    S    
O4    Zn1   S    
C10   C12   A    
C8    C10   A    
O8    Zn1   S    
C12   C14   A    
O6    Zn2   S    
O7    Zn2   S    
C14   C16   A    
C4    O10   S    
C13   C15   A    
O5    Zn1   S    
C6    O8    A    
N2    O12   S    
C17   H4    S    
C20   H5    S    
C13   C19   S    
C18   H3    S    
C9    H1    S    
C7    C9    A    
C1    O3    A    
C14   C20   S    
C16   C18   A    
O12   H14   S    
C2    O4    A    
C5    C7    S    
O3    Zn2   S    
C6    C8    S    
C1    C3    S    
C6    O6    A    
C8    C18   A    
C3    C4    D    
O11   H13   S    
C11   H10   S    
C7    C17   A    
