data_mof_unit_61419.cif
_audit_creation_date              2012-10-26T18:17:42-0400
_audit_creation_method            fapswitch 2.2
_symmetry_space_group_name_H-M    P1
_symmetry_Int_Tables_number       1
_space_group_crystal_system       triclinic
_cell_length_a                    44.667044
_cell_length_b                    38.997404
_cell_length_c                    21.549517
_cell_angle_alpha                 90.00836
_cell_angle_beta                  119.0318
_cell_angle_gamma                 90.019852
_cell_volume                      32820.5577602

loop_
_atom_site_label
_atom_site_type_symbol
_atom_type_description
_atom_site_fract_x
_atom_site_fract_y
_atom_site_fract_z
_atom_type_partial_charge
C1    C     C_R   0.066261 0.000036 0.566129 0.547232
C2    C     C_R   0.622213 0.000088 0.066552 -0.121952
C3    C     C_R   0.566142 0.000014 0.066245 0.546843
C4    C     C_R   0.933857 0.499986 0.933774 0.546756
C5    C     C_R   0.066143 0.500014 0.066245 0.546698
C6    C     C_R   0.499999 0.066038 0.000003 0.534153
C7    C     C_R   0.999999 0.566038 0.000003 0.533991
C8    C     C_R   0.481971 0.877874 0.935917 0.325138
C9    C     C_R   0.518061 0.877901 0.064081 0.325983
C10   C     C_R   0.981985 0.377873 0.935911 0.325172
C11   C     C_R   0.018043 0.377899 0.064083 0.326016
C12   C     C_R   0.481787 0.842082 0.936182 -0.038044
C13   C     C_R   0.877946 0.500015 0.933988 -0.119790
C14   C     C_R   0.518262 0.842110 0.063820 -0.037538
C15   C     C_R   0.981801 0.342081 0.936174 -0.038028
C16   C     C_R   0.018243 0.342108 0.063821 -0.037499
C17   C     C_R   0.500028 0.824082 0.000002 -0.013468
C18   C     C_R   0.000025 0.324080 0.999998 -0.013547
C19   C     C_R   0.500011 0.896106 0.999998 0.023723
C20   C     C_R   0.000009 0.396105 0.999997 0.023688
C21   C     C_R   0.530571 0.768327 0.020529 0.347706
C22   C     C_R   0.469494 0.768297 0.979488 0.346542
C23   C     C_R   0.030580 0.268323 0.020644 0.347704
C24   C     C_R   0.122213 0.500087 0.066552 -0.122108
C25   C     C_R   0.969479 0.268293 0.979361 0.346544
C26   C     C_3   0.982154 0.033501 0.195484 -0.080743
C27   C     C_3   0.016765 0.033977 0.803512 -0.082200
C28   C     C_3   0.481534 0.533220 0.194900 -0.080562
C29   C     C_3   0.518164 0.533381 0.804834 -0.081837
C30   C     C_R   0.030502 0.232537 0.020082 -0.090726
C31   C     C_R   0.969560 0.232508 0.979926 -0.091611
C32   C     C_R   0.530493 0.732540 0.019966 -0.090619
C33   C     C_R   0.469574 0.732511 0.980055 -0.091605
C34   C     C_R   0.000031 0.214192 0.000003 -0.087047
C35   C     C_R   0.342234 0.000072 0.898296 -0.111781
C36   C     C_R   0.500034 0.714196 0.000009 -0.086948
C37   C     C_R   0.500031 0.786388 0.000006 0.037230
C38   C     C_R   0.000028 0.286385 0.000001 0.037229
C39   C     C_R   0.971959 0.157776 0.947850 -0.102865
C40   C     C_R   0.028100 0.157801 0.052141 -0.101900
C41   C     C_R   0.471932 0.657779 0.947938 -0.102353
C42   C     C_R   0.528131 0.657803 0.052060 -0.101683
C43   C     C_R   0.971843 0.122000 0.948238 -0.118351
C44   C     C_R   0.028204 0.122024 0.051757 -0.116285
C45   C     C_R   0.471815 0.622004 0.948325 -0.117142
C46   C     C_R   0.657941 0.000116 0.102620 -0.108830
C47   C     C_R   0.528234 0.622026 0.051672 -0.115906
C48   C     C_R   0.000019 0.103866 0.000001 0.001865
C49   C     C_R   0.500020 0.603868 0.000001 0.002908
C50   C     C_R   0.000031 0.176128 0.999998 0.038364
C51   C     C_R   0.500033 0.676131 0.000002 0.038519
C52   C     C_R   0.484973 0.121888 0.034023 -0.123564
C53   C     C_R   0.515002 0.121905 0.965979 -0.124147
C54   C     C_R   0.984976 0.621896 0.034161 -0.124649
C55   C     C_R   0.015001 0.621914 0.965849 -0.125367
C56   C     C_R   0.484586 0.157676 0.033299 -0.114954
C57   C     C_R   0.842233 0.500076 0.898294 -0.111906
C58   C     C_R   0.515365 0.157694 0.966681 -0.115697
C59   C     C_R   0.984595 0.657692 0.033380 -0.117218
C60   C     C_R   0.015366 0.657711 0.966629 -0.117571
C61   C     C_R   0.499968 0.176093 0.999982 0.032218
C62   C     C_R   0.999977 0.675746 0.000005 0.025338
C63   C     C_3   0.978438 0.969163 0.263230 -0.241926
C64   C     C_3   0.022665 0.969962 0.737764 -0.242774
C65   C     C_3   0.479100 0.468734 0.263837 -0.241723
C66   C     C_3   0.521230 0.468973 0.736448 -0.242228
C67   C     C_R   0.499993 0.103750 0.000005 0.019776
C68   C     C_R   0.157941 0.500116 0.102619 -0.108946
C69   C     C_R   0.999993 0.603747 0.000006 0.020032
C70   C     C_R   0.498127 0.232646 0.941989 -0.110245
C71   C     C_R   0.501773 0.232661 0.057933 -0.110482
C72   C     C_R   0.030956 0.731475 0.032565 -0.112115
C73   C     C_R   0.968987 0.731441 0.967455 -0.111212
C74   C     C_R   0.030977 0.767262 0.033323 -0.111657
C75   C     C_R   0.968962 0.767229 0.966685 -0.110741
C76   C     C_R   0.498532 0.268434 0.942418 -0.111295
C77   C     C_R   0.501359 0.268448 0.057488 -0.111898
C78   C     C_R   0.999968 0.785655 0.999997 0.031021
C79   C     C_R   0.323911 0.000093 0.823804 0.033945
C80   C     C_R   0.499945 0.286477 0.999950 0.025509
C81   C     C_R   0.499955 0.214244 0.999967 0.032107
C82   C     C_R   0.999973 0.713421 0.000010 0.024876
C83   C     C_R   0.973373 0.842209 0.002127 -0.116408
C84   C     C_R   0.026565 0.842218 0.997819 -0.116765
C85   C     C_R   0.473332 0.342196 0.002083 -0.118109
C86   C     C_R   0.526586 0.342199 0.997831 -0.119090
C87   C     C_R   0.973185 0.877997 0.001250 -0.127787
C88   C     C_R   0.026765 0.878005 0.998691 -0.128513
C89   C     C_R   0.473111 0.377992 0.001186 -0.129099
C90   C     C_R   0.676090 0.000088 0.177134 0.033979
C91   C     C_R   0.526830 0.377994 0.998747 -0.129654
C92   C     C_R   0.999979 0.896132 0.999973 0.016089
C93   C     C_R   0.499977 0.396135 0.999973 0.016318
C94   C     C_R   0.999968 0.823806 0.999979 0.032182
C95   C     C_R   0.499953 0.324152 0.999953 0.025653
C96   C     C_3   0.036200 0.998091 0.323897 -0.235212
C97   C     C_3   0.963866 0.996643 0.676192 -0.233704
C98   C     C_3   0.536219 0.498922 0.323928 -0.234889
C99   C     C_3   0.463788 0.498482 0.676084 -0.233139
C100  C     C_3   0.998845 0.000248 0.309693 0.025699
C101  C     C_R   0.823911 0.500097 0.823803 0.033848
C102  C     C_3   0.001108 0.000253 0.690262 0.021725
C103  C     C_3   0.498823 0.500250 0.309671 0.025883
C104  C     C_3   0.501166 0.500258 0.690318 0.021962
C105  C     C_3   0.000014 0.000282 0.189109 0.044998
C106  C     C_3   0.999971 0.000183 0.810879 0.042442
C107  C     C_3   0.500007 0.500343 0.189104 0.044977
C108  C     C_3   0.499990 0.500317 0.810894 0.042242
C109  C     C_3   0.979478 0.968955 0.192735 -0.259512
C110  C     C_3   0.021483 0.969552 0.808110 -0.259487
C111  C     C_3   0.480050 0.468637 0.193251 -0.259717
C112  C     C_R   0.933739 0.000012 0.433856 0.547059
C113  C     C_R   0.176091 0.500090 0.177132 0.033893
C114  C     C_3   0.520231 0.468816 0.806984 -0.259891
C115  C     C_2   0.996966 0.066104 0.183086 0.205232
C116  C     C_2   0.001101 0.066082 0.815385 0.207738
C117  C     C_2   0.495840 0.566096 0.182179 0.204798
C118  C     C_2   0.503614 0.566110 0.817428 0.206946
C119  C     C_R   0.341995 0.999994 0.785665 -0.107772
C120  C     C_R   0.657831 0.000081 0.214900 -0.110707
C121  C     C_R   0.841994 0.499997 0.785664 -0.107960
C122  C     C_R   0.157832 0.500086 0.214899 -0.110886
C123  C     C_R   0.377729 0.999956 0.821351 -0.111201
C124  C     C_R   0.622112 0.000075 0.178871 -0.108886
C125  C     C_R   0.877729 0.499959 0.821350 -0.111349
C126  C     C_R   0.122113 0.500080 0.178871 -0.109025
C127  C     C_R   0.396066 0.999984 0.895892 0.020896
C128  C     C_R   0.566261 0.500036 0.566129 0.547213
C129  C     C_R   0.603934 0.000061 0.104321 0.020871
C130  C     C_R   0.896066 0.499986 0.895891 0.020766
C131  C     C_R   0.103934 0.500062 0.104321 0.020748
C132  C     C_R   0.268082 0.021110 0.810010 -0.070260
C133  C     C_R   0.732059 0.979215 0.275457 -0.066124
C134  C     C_R   0.768082 0.521125 0.809988 -0.070474
C135  C     C_R   0.232060 0.479217 0.275454 -0.066116
C136  C     C_R   0.232351 0.021248 0.774693 0.389587
C137  C     C_R   0.767796 0.979077 0.311632 0.390545
C138  C     C_R   0.732351 0.521263 0.774671 0.389510
C139  C     C_R   0.433738 0.500012 0.433856 0.547090
C140  C     C_R   0.267797 0.479078 0.311626 0.390452
C141  C     C_R   0.213940 0.000468 0.714526 0.031556
C142  C     C_R   0.786065 0.999821 0.288104 0.031509
C143  C     C_R   0.713940 0.500471 0.714524 0.031557
C144  C     C_R   0.286065 0.499822 0.288099 0.031501
C145  C     C_R   0.998819 0.000054 0.378611 0.545155
C146  C     C_R   0.001136 0.000063 0.621346 0.547961
C147  C     C_R   0.498799 0.500051 0.378593 0.545142
C148  C     C_R   0.501192 0.500058 0.621398 0.547822
C149  C     C_R   0.231889 0.979531 0.690758 -0.173248
C150  C     C_3   0.036987 0.997614 0.253234 -0.208335
C151  C     C_R   0.767974 0.020751 0.228289 -0.174054
C152  C     C_R   0.731890 0.479522 0.690775 -0.173314
C153  C     C_R   0.267974 0.520753 0.228285 -0.174137
C154  C     C_R   0.267603 0.979472 0.726093 -0.129675
C155  C     C_R   0.732262 0.020810 0.192175 -0.133607
C156  C     C_R   0.767604 0.479464 0.726110 -0.129660
C157  C     C_R   0.232262 0.520813 0.192172 -0.133809
C158  C     C_R   0.286040 0.000263 0.786059 -0.028326
C159  C     C_R   0.713963 0.000019 0.215377 -0.028313
C160  C     C_R   0.786040 0.500266 0.786056 -0.028354
C161  C     C_3   0.963094 0.996309 0.746876 -0.207326
C162  C     C_R   0.213963 0.500022 0.215374 -0.028330
C163  C     C_R   0.158073 0.969258 0.658309 -0.123539
C164  C     C_R   0.842068 0.968819 0.342936 -0.062308
C165  C     C_R   0.658074 0.469260 0.658348 -0.123573
C166  C     C_R   0.342067 0.468820 0.342913 -0.062364
C167  C     C_R   0.122343 0.969115 0.622424 -0.131175
C168  C     C_R   0.877785 0.968873 0.378117 -0.132469
C169  C     C_R   0.622344 0.469115 0.622464 -0.131269
C170  C     C_R   0.377784 0.468874 0.378097 -0.132577
C171  C     C_R   0.104034 0.000124 0.603840 0.008050
C172  C     C_3   0.537020 0.498360 0.253282 -0.208181
C173  C     C_R   0.895966 0.999976 0.396376 0.008038
C174  C     C_R   0.604034 0.500124 0.603839 0.008070
C175  C     C_R   0.395966 0.499976 0.396375 0.008029
C176  C     C_R   0.122163 0.031256 0.621614 -0.129132
C177  C     C_R   0.877710 0.031015 0.378534 -0.127941
C178  C     C_R   0.622163 0.531256 0.621573 -0.129222
C179  C     C_R   0.377710 0.531015 0.378549 -0.128118
C180  C     C_R   0.157880 0.031370 0.657514 -0.060379
C181  C     C_R   0.841983 0.030931 0.343313 -0.121924
C182  C     C_R   0.657880 0.531371 0.657473 -0.060489
C183  C     C_3   0.462994 0.497964 0.746738 -0.207027
C184  C     C_R   0.341983 0.530932 0.343326 -0.122074
C185  C     C_R   0.176124 0.000383 0.676459 0.060046
C186  C     C_R   0.823880 0.999838 0.325530 0.060133
C187  C     C_R   0.676125 0.500385 0.676457 0.060087
C188  C     C_R   0.323880 0.499839 0.325525 0.060166
C189  C     C_R   0.000007 0.066169 0.000004 0.541504
C190  C     C_R   0.500007 0.566170 0.000003 0.542031
C191  C     C_3   0.982472 0.033804 0.267742 -0.198542
C192  C     C_3   0.016214 0.034403 0.731038 -0.198624
C193  C     C_3   0.481720 0.533444 0.267035 -0.198678
C194  C     C_R   0.377946 0.000012 0.933990 -0.119621
C195  C     C_3   0.517907 0.533649 0.732632 -0.198810
C196  C     C_R   0.000100 0.999756 0.120213 0.544386
C197  C     C_R   0.999900 0.999651 0.879790 0.544619
C198  C     C_R   0.500101 0.499819 0.120214 0.544385
C199  C     C_R   0.499899 0.499789 0.879786 0.544518
C200  C     C_R   0.999993 0.933821 0.999992 0.541059
C201  C     C_R   0.499993 0.433821 0.999992 0.541437
C202  C     C_R   0.500002 0.933844 0.999998 0.617427
C203  C     C_R   0.000001 0.433844 0.999998 0.617388
C204  C     C_R   0.433857 0.999985 0.933774 0.546914
Cu1   Cu    Cu3+1 1.000000 0.034220 0.500000 0.943236
Cu2   Cu    Cu3+1 0.499980 0.999940 0.062480 1.007821
Cu3   Cu    Cu3+1 0.000020 0.499940 0.937520 1.006224
Cu4   Cu    Cu3+1 0.999980 0.499940 0.062480 1.008091
Cu5   Cu    Cu3+1 0.500000 0.534220 0.500000 0.943706
Cu6   Cu    Cu3+1 1.000000 0.965810 0.500000 0.916242
Cu7   Cu    Cu3+1 0.500000 0.465810 0.500000 0.914702
Cu8   Cu    Cu3+1 0.034220 0.999990 0.034180 0.931189
Cu9   Cu    Cu3+1 0.965780 0.999990 0.965820 0.932349
Cu10  Cu    Cu3+1 0.534220 0.499990 0.034180 0.930513
Cu11  Cu    Cu3+1 0.465780 0.499990 0.965820 0.931045
Cu12  Cu    Cu3+1 0.500020 0.999940 0.937520 1.005962
F1    F     F_    0.215839 0.041060 0.800357 -0.636560
F2    F     F_    0.439758 0.785304 0.960364 -0.616545
F3    F     F_    0.060325 0.285359 0.039885 -0.613737
F4    F     F_    0.939732 0.285300 0.960121 -0.616497
F5    F     F_    0.784456 0.959275 0.370477 -0.634078
F6    F     F_    0.715838 0.541088 0.800314 -0.636692
F7    F     F_    0.284457 0.459275 0.370470 -0.634172
F8    F     F_    0.463858 0.894626 0.873300 -0.603276
F9    F     F_    0.536166 0.894682 0.126696 -0.601323
F10   F     F_    0.963888 0.394626 0.873288 -0.603178
F11   F     F_    0.036134 0.394679 0.126705 -0.601221
F12   F     F_    0.560305 0.785364 0.039653 -0.613753
H1    H     H_    0.955752 0.036170 0.258364 0.095018
H2    H     H_    0.012657 0.945081 0.710044 0.145506
H3    H     H_    0.547336 0.328543 0.996310 0.113846
H4    H     H_    0.952427 0.891516 0.003007 0.123022
H5    H     H_    0.047528 0.891530 0.996935 0.122880
H6    H     H_    0.452242 0.391498 0.002508 0.123634
H7    H     H_    0.547709 0.391502 0.997435 0.123487
H8    H     H_    0.954851 0.032712 0.153077 0.088890
H9    H     H_    0.044121 0.033980 0.845724 0.093145
H10   H     H_    0.454272 0.531986 0.152389 0.089245
H11   H     H_    0.545448 0.532388 0.847289 0.094023
H12   H     H_    0.951391 0.970423 0.252144 0.117180
H13   H     H_    0.490724 0.444489 0.292768 0.143943
H14   H     H_    0.049673 0.972363 0.749005 0.122019
H15   H     H_    0.452050 0.469343 0.252859 0.117495
H16   H     H_    0.548281 0.469933 0.747488 0.122361
H17   H     H_    0.952808 0.969420 0.147716 0.133108
H18   H     H_    0.048097 0.970782 0.853225 0.136609
H19   H     H_    0.453356 0.468669 0.148300 0.132669
H20   H     H_    0.546914 0.469083 0.851972 0.135548
H21   H     H_    0.048695 0.974496 0.354688 0.119193
H22   H     H_    0.952312 0.972515 0.646529 0.127444
H23   H     H_    0.549254 0.475649 0.355378 0.118234
H24   H     H_    0.509901 0.444594 0.707724 0.145202
H25   H     H_    0.451021 0.475034 0.644951 0.125895
H26   H     H_    0.051150 0.020439 0.356275 0.143604
H27   H     H_    0.948047 0.018324 0.642771 0.145909
H28   H     H_    0.550649 0.521635 0.355678 0.144720
H29   H     H_    0.449098 0.521000 0.644029 0.147927
H30   H     H_    0.053355 0.018915 0.252575 0.187036
H31   H     H_    0.946097 0.017137 0.746726 0.190188
H32   H     H_    0.553015 0.519916 0.252139 0.186419
H33   H     H_    0.446818 0.519381 0.747653 0.188730
H34   H     H_    0.983089 0.079423 0.132756 0.114581
H35   H     H_    0.991469 0.944731 0.188203 0.115029
H36   H     H_    0.014790 0.079870 0.865209 0.115308
H37   H     H_    0.481860 0.579152 0.131563 0.114931
H38   H     H_    0.517552 0.579309 0.867909 0.116334
H39   H     H_    0.010180 0.944935 0.813064 0.116198
H40   H     H_    0.492436 0.444645 0.188967 0.114437
H41   H     H_    0.508036 0.444697 0.811366 0.115746
H42   H     H_    0.391324 0.999920 0.991460 0.137595
H43   H     H_    0.608948 0.999993 0.009084 0.135654
H44   H     H_    0.891323 0.499921 0.991458 0.137641
H45   H     H_    0.042768 0.037907 0.740029 0.104331
H46   H     H_    0.108948 0.499989 0.009083 0.135704
H47   H     H_    0.328933 0.999679 0.929007 0.117232
H48   H     H_    0.671389 0.999698 0.072205 0.114124
H49   H     H_    0.828932 0.499683 0.929004 0.117293
H50   H     H_    0.171389 0.499695 0.072204 0.114178
H51   H     H_    0.328494 0.000414 0.728197 0.114493
H52   H     H_    0.671185 0.000511 0.272368 0.117569
H53   H     H_    0.828493 0.500417 0.728195 0.114474
H54   H     H_    0.171185 0.500519 0.272367 0.117530
H55   H     H_    0.390953 0.000006 0.790487 0.143031
H56   H     H_    0.454924 0.535157 0.257445 0.094261
H57   H     H_    0.608775 0.000158 0.209510 0.144869
H58   H     H_    0.890953 0.500010 0.790486 0.143082
H59   H     H_    0.108776 0.500165 0.209509 0.144918
H60   H     H_    0.281724 0.037538 0.855850 0.135771
H61   H     H_    0.718524 0.962795 0.294112 0.142954
H62   H     H_    0.781724 0.537562 0.855813 0.135532
H63   H     H_    0.218524 0.462796 0.294108 0.143009
H64   H     H_    0.218234 0.963408 0.644406 0.120277
H65   H     H_    0.781514 0.036848 0.209102 0.118758
H66   H     H_    0.718235 0.463389 0.644439 0.120244
H67   H     H_    0.544667 0.535715 0.742112 0.102974
H68   H     H_    0.281514 0.536850 0.209098 0.118680
H69   H     H_    0.996752 0.056447 0.299998 0.183697
H70   H     H_    0.000968 0.056461 0.698098 0.184022
H71   H     H_    0.495425 0.556401 0.298874 0.183769
H72   H     H_    0.503913 0.556438 0.700599 0.184400
H73   H     H_    0.280813 0.962853 0.707021 0.130867
H74   H     H_    0.718946 0.037405 0.146530 0.123254
H75   H     H_    0.780815 0.462836 0.707054 0.130938
H76   H     H_    0.218946 0.537408 0.146528 0.123002
H77   H     H_    0.171646 0.945046 0.672642 0.113744
H78   H     H_    0.049151 0.973339 0.249573 0.116762
H79   H     H_    0.828628 0.944525 0.328577 0.160338
H80   H     H_    0.671648 0.445048 0.672713 0.113657
H81   H     H_    0.328627 0.444526 0.328541 0.160245
H82   H     H_    0.109097 0.944715 0.609432 0.132411
H83   H     H_    0.891122 0.944538 0.390834 0.133272
H84   H     H_    0.609098 0.444716 0.609506 0.132165
H85   H     H_    0.391121 0.444539 0.390800 0.133037
H86   H     H_    0.108784 0.055569 0.607685 0.137677
H87   H     H_    0.890995 0.055394 0.391892 0.136894
H88   H     H_    0.608784 0.555569 0.607612 0.137638
H89   H     H_    0.951658 0.971712 0.751461 0.120416
H90   H     H_    0.390995 0.555394 0.391924 0.136806
H91   H     H_    0.171274 0.055686 0.669825 0.161388
H92   H     H_    0.828456 0.055168 0.330603 0.114924
H93   H     H_    0.671273 0.555687 0.669752 0.161222
H94   H     H_    0.328456 0.555168 0.330630 0.114713
H95   H     H_    0.467618 0.828342 0.886563 0.177360
H96   H     H_    0.532436 0.828392 0.113441 0.178211
H97   H     H_    0.967645 0.328342 0.886549 0.177457
H98   H     H_    0.032404 0.328390 0.113447 0.178327
H99   H     H_    0.054253 0.219243 0.034447 0.152044
H100  H     H_    0.549604 0.474275 0.250167 0.117121
H101  H     H_    0.945810 0.219191 0.965564 0.150473
H102  H     H_    0.554234 0.719246 0.034233 0.152062
H103  H     H_    0.445835 0.719195 0.965791 0.150391
H104  H     H_    0.950226 0.171019 0.906081 0.121097
H105  H     H_    0.049837 0.171063 0.093908 0.121700
H106  H     H_    0.450174 0.671022 0.906234 0.120840
H107  H     H_    0.549894 0.671065 0.093763 0.121542
H108  H     H_    0.949949 0.108511 0.907310 0.147041
H109  H     H_    0.050094 0.108553 0.092683 0.146619
H110  H     H_    0.449896 0.608517 0.907465 0.145939
H111  H     H_    0.450615 0.473774 0.750110 0.121542
H112  H     H_    0.550148 0.608556 0.092530 0.146009
H113  H     H_    0.472920 0.108376 0.060005 0.126925
H114  H     H_    0.527062 0.108408 0.940002 0.125750
H115  H     H_    0.973109 0.608399 0.060531 0.127467
H116  H     H_    0.026874 0.608432 0.939479 0.126308
H117  H     H_    0.471790 0.170825 0.058073 0.107472
H118  H     H_    0.528152 0.170858 0.941899 0.105990
H119  H     H_    0.972678 0.671342 0.059474 0.115480
H120  H     H_    0.027278 0.671375 0.940536 0.114553
H121  H     H_    0.495923 0.219489 0.895740 0.105228
H122  H     H_    0.989471 0.944675 0.291714 0.144467
H123  H     H_    0.503983 0.219515 0.104189 0.104661
H124  H     H_    0.055092 0.717821 0.058419 0.112248
H125  H     H_    0.944853 0.717761 0.941603 0.114338
H126  H     H_    0.055313 0.780427 0.060880 0.104559
H127  H     H_    0.944624 0.780367 0.939125 0.106704
H128  H     H_    0.497158 0.282096 0.897336 0.111542
H129  H     H_    0.502733 0.282121 0.102566 0.110341
H130  H     H_    0.952873 0.829049 0.005475 0.106248
H131  H     H_    0.047063 0.829065 0.994472 0.105692
H132  H     H_    0.452574 0.328538 0.003600 0.115161
O1    O     O_R   0.049910 0.028900 0.549880 -0.508310
O2    O     O_R   0.549890 0.000020 0.997140 -0.522086
O3    O     O_R   0.950110 0.500020 0.002860 -0.521919
O4    O     O_R   0.049890 0.500020 0.997140 -0.522073
O5    O     O_R   0.500000 0.049850 0.947140 -0.518190
O6    O     O_R   0.500000 0.049850 0.052860 -0.518042
O7    O     O_R   1.000000 0.549850 0.947140 -0.518166
O8    O     O_R   1.000000 0.549850 0.052860 -0.518011
O9    O     O_R   0.049940 0.971130 0.549860 -0.514380
O10   O     O_R   0.950060 0.971130 0.450140 -0.512807
O11   O     O_R   0.549940 0.471130 0.549860 -0.514545
O12   O     O_R   0.950090 0.028900 0.450120 -0.509987
O13   O     O_R   0.450060 0.471130 0.450140 -0.512917
O14   O     O_R   0.000010 0.028900 0.408850 -0.513851
O15   O     O_R   0.999990 0.028900 0.591150 -0.511952
O16   O     O_R   0.500010 0.528900 0.408850 -0.513696
O17   O     O_R   0.499990 0.528900 0.591150 -0.511679
O18   O     O_R   0.000040 0.971130 0.408830 -0.515123
O19   O     O_R   0.999960 0.971130 0.591170 -0.512968
O20   O     O_R   0.500040 0.471130 0.408830 -0.515315
O21   O     O_R   0.499960 0.471130 0.591170 -0.513153
O22   O     O_R   0.028910 0.049900 0.028910 -0.507596
O23   O     O_R   0.549910 0.528900 0.549880 -0.508275
O24   O     O_R   0.971090 0.049900 0.971090 -0.508233
O25   O     O_R   0.528910 0.549900 0.028910 -0.508083
O26   O     O_R   0.471090 0.549900 0.971090 -0.508856
O27   O     O_R   0.028900 1.000000 0.120010 -0.507204
O28   O     O_R   0.971100 1.000000 0.879990 -0.505089
O29   O     O_R   0.528900 0.500000 0.120010 -0.507596
O30   O     O_R   0.471100 0.500000 0.879990 -0.506092
O31   O     O_R   0.971130 0.000040 0.062270 -0.525478
O32   O     O_R   0.028870 0.000040 0.937730 -0.524070
O33   O     O_R   0.471130 0.500040 0.062270 -0.525440
O34   O     O_R   0.450090 0.528900 0.450120 -0.509934
O35   O     O_R   0.528870 0.500040 0.937730 -0.524112
O36   O     O_R   0.028890 0.950090 0.028810 -0.511525
O37   O     O_R   0.971110 0.950090 0.971190 -0.510490
O38   O     O_R   0.528890 0.450090 0.028810 -0.511224
O39   O     O_R   0.471110 0.450090 0.971190 -0.510126
O40   O     O_R   0.500050 0.950050 0.947320 -0.454122
O41   O     O_R   0.499950 0.950050 0.052680 -0.454058
O42   O     O_R   0.000050 0.450050 0.947320 -0.454060
O43   O     O_R   0.999950 0.450050 0.052680 -0.453993
O44   O     O_2   0.024669 0.077257 0.227808 -0.517424
O45   O     O_R   0.450110 0.999950 0.897350 -0.502212
O46   O     O_2   0.972951 0.076315 0.770809 -0.515797
O47   O     O_2   0.523269 0.577759 0.226964 -0.517510
O48   O     O_2   0.476046 0.577497 0.772693 -0.516088
O49   O     O_R   0.549890 0.999950 0.102650 -0.502102
O50   O     O_R   0.950110 0.499950 0.897350 -0.502211
O51   O     O_R   0.049890 0.499950 0.102650 -0.502096
O52   O     O_R   0.450110 0.000020 0.002860 -0.521927

loop_
_geom_bond_atom_site_label_1
_geom_bond_atom_site_label_2
_ccdc_geom_bond_type
C133  C137  A    
C148  O21   A    
C2    H43   S    
C58   H118  S    
C190  O25   A    
C165  C187  A    
C85   H132  S    
Cu11  O33   S    
C166  C188  A    
C86   H3    S    
C56   H117  S    
Cu3   O4    S    
C172  H100  S    
C164  C186  A    
C138  C143  A    
C119  H51   S    
C98   H23   S    
C6    O5    A    
C120  H52   S    
C68   H50   S    
C112  O12   A    
C33   C36   A    
C60   C62   A    
C199  O35   A    
C203  O43   A    
C9    C19   A    
C113  C122  A    
C152  C156  A    
C10   C20   A    
Cu12  O45   S    
C13   C130  A    
C29   C108  S    
C151  C155  A    
C93   C201  S    
Cu10  O29   S    
C124  H57   S    
C161  H31   S    
C58   C61   A    
C3    C129  S    
C73   C75   A    
C96   H21   S    
C26   C105  S    
C110  H39   S    
C21   C32   A    
C197  O32   A    
C165  C169  A    
C66   H24   S    
C11   C20   A    
C8    C19   A    
C134  H62   S    
C164  C168  A    
Cu10  O38   S    
C13   H44   S    
Cu8   O32   S    
C4    C130  S    
C136  F1    S    
C183  H33   S    
C1    C171  S    
C133  H61   S    
C142  C151  A    
C163  H77   S    
C4    O50   A    
C136  C141  A    
C116  H36   S    
C45   H110  S    
C26   C191  S    
C96   C150  S    
Cu3   O50   S    
C166  H81   S    
C48   C189  S    
C178  C182  A    
C106  C197  S    
C52   H113  S    
Cu8   O22   S    
C114  H41   S    
C3    O49   A    
C198  O33   A    
Cu1   O14   S    
C26   H8    S    
Cu10  Cu11  S    
C165  H80   S    
C14   H96   S    
Cu11  O39   S    
C151  H65   S    
Cu12  O40   S    
C84   C88   A    
C20   C203  S    
C107  C198  S    
C175  C179  A    
C53   C58   A    
C169  H84   S    
C154  C158  A    
C53   H114  S    
C119  C123  A    
Cu3   O42   S    
C27   C106  S    
C168  H83   S    
C18   C38   S    
C96   H26   S    
C24   C131  A    
C145  O14   A    
C78   C94   S    
Cu11  O26   S    
C104  C195  S    
C19   C202  S    
Cu9   O28   S    
C86   C95   A    
C128  O23   A    
Cu8   Cu9   S    
C41   C45   A    
C25   F4    S    
Cu2   O41   S    
C157  C162  A    
C41   C51   A    
C98   C103  S    
C204  O52   A    
C25   C31   A    
C15   C18   A    
C134  C160  A    
C137  C142  A    
C152  H66   S    
Cu7   O13   S    
C79   C158  S    
C103  C147  S    
C24   H46   S    
C47   H112  S    
C64   C102  S    
C88   H5    S    
C54   C69   A    
C184  H94   S    
C32   C36   A    
Cu5   O34   S    
Cu7   O20   S    
C13   C57   A    
C138  F6    S    
C91   H7    S    
C145  O18   A    
C2    C129  A    
C161  H89   S    
C106  C161  S    
C90   C159  S    
Cu9   O24   S    
C35   C194  A    
C77   H129  S    
Cu6   O18   S    
C101  C160  S    
C127  C204  S    
C99   C183  S    
C8    C12   A    
C98   C172  S    
C109  H17   S    
C14   C17   A    
C121  H53   S    
Cu9   O31   S    
C7    O7    A    
C54   C59   A    
C192  H70   S    
C167  H82   S    
C30   C34   A    
C155  C159  A    
C156  C160  A    
C201  O39   A    
C84   H131  S    
C202  O40   A    
C49   C190  S    
C154  H73   S    
C29   C195  S    
C65   H13   S    
C5    O4    A    
C90   C120  A    
C63   C109  S    
Cu10  O25   S    
C121  C125  A    
C189  O22   A    
C25   C38   A    
Cu8   O27   S    
C123  C127  A    
C100  C145  S    
C132  C136  A    
C116  O46   D    
C31   C34   A    
C21   C37   A    
Cu5   O23   S    
C80   C95   S    
C73   H125  S    
C179  H90   S    
C55   C69   A    
C52   C67   A    
C204  O45   A    
C197  O28   A    
C6    C67   S    
C166  C170  A    
C97   C161  S    
C54   H115  S    
C31   H101  S    
C27   C192  S    
C65   C103  S    
Cu7   O11   S    
C71   C77   A    
Cu8   O36   S    
C179  C184  A    
C195  H67   S    
C105  C109  S    
C107  C111  S    
C76   C80   A    
C181  C186  A    
C191  H1    S    
C57   C101  A    
C171  C176  A    
C190  O26   A    
C128  C174  S    
C97   H27   S    
C108  C199  S    
C61   C81   S    
C64   H2    S    
C6    O6    A    
C1    O9    A    
Cu1   Cu6   S    
C177  C181  A    
C96   C100  S    
C35   C79   A    
C89   C93   A    
C53   C67   A    
C12   H95   S    
C44   C48   A    
C40   C44   A    
C70   H121  S    
C141  C185  S    
C11   F11   S    
C44   H109  S    
C9    F9    S    
C87   C92   A    
C117  H37   S    
Cu6   O9    S    
C71   C81   A    
C105  C196  S    
C83   C87   A    
C198  O29   A    
C104  C148  S    
C177  H87   S    
C178  H88   S    
Cu1   O1    S    
C59   H119  S    
C39   H104  S    
C105  C150  S    
C65   H15   S    
Cu11  O30   S    
C189  O24   A    
C86   C91   A    
C106  C110  S    
C64   H14   S    
C99   H29   S    
C32   H102  S    
C87   H4    S    
C137  F5    S    
C108  C114  S    
C22   C33   A    
C26   C115  S    
C28   H10   S    
C146  O15   A    
C114  H20   S    
C79   C119  A    
C12   C17   A    
C196  O27   A    
C102  C192  S    
C194  H42   S    
C76   H128  S    
C174  C178  A    
C97   C102  S    
C8    F8    S    
C68   C113  A    
C107  C172  S    
C99   C104  S    
C62   C82   S    
C149  H64   S    
C55   C60   A    
Cu5   O16   S    
C98   H28   S    
C23   F3    S    
C170  C175  A    
C153  H68   S    
C135  C140  A    
Cu3   Cu4   S    
C66   C104  S    
Cu4   O51   S    
C72   C74   A    
C63   H12   S    
C85   C89   A    
C83   C94   A    
C101  C121  A    
C1    O1    A    
C133  C159  A    
C149  C154  A    
Cu2   O49   S    
C134  C138  A    
C115  H34   S    
C192  H45   S    
C91   C93   A    
Cu1   O12   S    
C11   C16   A    
C45   C49   A    
C146  O19   A    
C150  H78   S    
C30   H99   S    
C84   C94   A    
C122  H54   S    
C193  H71   S    
C170  H85   S    
C143  C152  A    
C147  O20   A    
C71   H123  S    
C157  H76   S    
C73   C82   A    
C200  O36   A    
C27   H9    S    
C29   C118  S    
C77   C80   A    
C55   H116  S    
C21   F12   S    
C125  H58   S    
C66   C114  S    
C108  C183  S    
C10   C15   A    
C33   H103  S    
C140  C144  A    
C167  C171  A    
C97   H22   S    
C46   C90   A    
C195  H72   S    
C23   C38   A    
Cu12  O2    S    
C28   C117  S    
C199  O30   A    
C42   H107  S    
Cu2   O6    S    
C22   C37   A    
C148  O17   A    
C164  H79   S    
C66   H16   S    
C40   C50   A    
C139  O34   A    
C124  C129  A    
C60   H120  S    
C153  C157  A    
C4    O3    A    
C132  C158  A    
C24   C68   A    
C139  O13   A    
Cu6   O19   S    
C5    C131  S    
C16   H98   S    
C74   C78   A    
C56   C61   A    
C123  H55   S    
C103  C193  S    
C43   H108  S    
C5    O51   A    
C115  O44   D    
C102  C146  S    
Cu1   O15   S    
C57   H49   S    
C176  H86   S    
C85   C95   A    
C139  C175  S    
Cu3   O7    S    
C9    C14   A    
C75   H127  S    
C141  C149  A    
C117  O47   D    
C2    C46   A    
C118  O48   D    
C83   H130  S    
C111  H40   S    
C201  O38   A    
C203  O42   A    
C200  O37   A    
C191  H69   S    
C28   C107  S    
Cu9   O37   S    
C144  C153  A    
C70   C81   A    
C65   C111  S    
C113  C162  S    
C118  H38   S    
C125  C130  A    
C88   C92   A    
C156  H75   S    
C172  H32   S    
C43   C48   A    
C42   C51   A    
C182  C187  A    
C27   C116  S    
C110  H18   S    
C112  C173  S    
C22   F2    S    
C182  H93   S    
C126  H59   S    
Cu4   O3    S    
Cu10  O35   S    
C15   H97   S    
C168  C173  A    
C142  C186  S    
C181  H92   S    
C34   C50   S    
C72   H124  S    
C23   C30   A    
C35   H47   S    
C127  C194  A    
C40   H105  S    
C39   C43   A    
C196  O31   A    
C46   H48   S    
C184  C188  A    
C89   H6    S    
C122  C126  A    
C169  C174  A    
C163  C167  A    
C63   C100  S    
C176  C180  A    
C64   C110  S    
C173  C177  A    
C112  O10   A    
C28   C193  S    
C74   H126  S    
C17   C37   S    
C63   H122  S    
Cu2   O52   S    
C36   C51   S    
C111  H19   S    
Cu7   O21   S    
C193  H56   S    
C70   C76   A    
C135  C162  A    
C100  C191  S    
C109  H35   S    
C7    O8    A    
Cu6   O10   S    
C144  C188  S    
Cu2   Cu12  S    
C128  O11   A    
C59   C62   A    
C143  C187  S    
Cu5   O17   S    
C7    C69   S    
C140  F7    S    
C47   C49   A    
C202  O41   A    
C163  C185  A    
Cu4   O8    S    
C99   H25   S    
C92   C200  S    
C150  H30   S    
C132  H60   S    
C126  C131  A    
Cu12  O5    S    
C155  H74   S    
Cu5   Cu7   S    
C147  O16   A    
C42   C47   A    
C3    O2    A    
C75   C78   A    
C180  C185  A    
C183  H111  S    
C52   C56   A    
C39   C50   A    
C16   C18   A    
C41   H106  S    
C10   F10   S    
C135  H63   S    
C29   H11   S    
Cu4   O43   S    
C72   C82   A    
C120  C124  A    
C180  H91   S    
