data_mof_unit_59204.cif
_audit_creation_date              2012-12-10T17:02:15-0500
_audit_creation_method            fapswitch 2.2
_symmetry_space_group_name_H-M    P1
_symmetry_Int_Tables_number       1
_space_group_crystal_system       triclinic
_cell_length_a                    10.662316
_cell_length_b                    10.726844
_cell_length_c                    10.05924
_cell_angle_alpha                 89.41544
_cell_angle_beta                  90.026967
_cell_angle_gamma                 90.476259
_cell_volume                      1150.40575263

loop_
_atom_site_label
_atom_site_type_symbol
_atom_type_description
_atom_site_fract_x
_atom_site_fract_y
_atom_site_fract_z
_atom_type_partial_charge
C1    C     C_R   0.505828 0.262901 0.500441 0.894446
C2    C     C_R   0.064627 0.395491 0.574064 0.000194
C3    C     C_R   0.127811 0.490561 0.500775 -0.155617
C4    C     C_R   0.063280 0.581792 0.427884 0.273635
C5    C     C_R   0.935063 0.579121 0.427318 -0.210779
C6    C     C_R   0.871193 0.487836 0.499652 -0.124984
C7    C     C_2   0.525643 0.934092 0.396443 -0.234008
C8    C     C_2   0.474093 0.867333 0.495716 0.152189
C9    C     C_2   0.514124 0.067210 0.390103 -0.095379
C10   C     C_2   0.526480 0.132120 0.501392 -0.276482
C11   C     C_2   0.467986 0.593180 0.926473 0.000923
C12   C     C_R   0.260483 0.497027 0.500208 0.919408
C13   C     C_2   0.492706 0.599587 0.073264 -0.060106
C14   C     C_R   0.495841 0.737063 0.499220 0.887201
C15   C     C_R   0.739186 0.496194 0.499999 0.859826
C16   C     C_R   0.128285 0.302354 0.648450 -0.187265
C17   C     C_R   0.061543 0.213519 0.722919 0.351135
C18   C     C_R   0.931335 0.210061 0.717251 -0.144820
C19   C     C_R   0.867383 0.297623 0.640704 -0.177524
C20   C     C_R   0.933119 0.393748 0.572131 0.098597
H1    H     H_    0.552029 0.087954 0.595208 0.189993
H2    H     H_    0.420497 0.671433 0.880234 0.157739
H3    H     H_    0.495541 0.690572 0.119185 0.165060
H4    H     H_    0.229332 0.297257 0.650981 0.185343
H5    H     H_    0.766434 0.289082 0.636525 0.173432
H6    H     H_    0.884580 0.651042 0.373368 0.182241
H7    H     H_    0.581187 0.890366 0.319459 0.159485
N1    N     N_2   0.501340 0.501330 0.852150 0.004017
N2    N     N_2   0.501380 0.501360 0.147810 -0.170873
O1    O     O_R   0.499980 0.319060 0.613040 -0.593001
O2    O     O_R   0.500020 0.319100 0.386900 -0.620064
O3    O     O_R   0.316750 0.499980 0.613090 -0.617521
O4    O     O_R   0.316790 0.500020 0.386950 -0.579053
O5    O     O_R   0.499980 0.680900 0.613100 -0.598484
O6    O     O_R   0.500020 0.680940 0.386960 -0.626035
O7    O     O_R   0.683210 0.499980 0.613050 -0.581493
O8    O     O_R   0.683250 0.500020 0.386910 -0.602392
Zn1   Zn    Zn3+2 0.499970 0.499970 0.650990 1.045068
Zn2   Zn    Zn3+2 0.500030 0.500030 0.349010 1.005922
Br1   Br    Br    0.144758 0.718199 0.335279 -0.424821
Br2   Br    Br    0.633211 0.395579 0.908088 -0.418855
H8    H     H_    0.474135 0.418369 0.105889 0.222822
Br3   Br    Br    0.147813 0.098508 0.835679 -0.395385
H9    H     H_    0.879336 0.139553 0.772422 0.182615
Br4   Br    Br    0.350107 0.927168 0.618949 -0.413293
H10   H     H_    0.498398 0.111148 0.293800 0.196946

loop_
_geom_bond_atom_site_label_1
_geom_bond_atom_site_label_2
_ccdc_geom_bond_type
C10   H1    S    
C14   O5    A    
O6    Zn2   S    
C17   Br3   S    
C18   H9    S    
N2    H8    S    
C2    C16   A    
C9    C10   D    
N1    Br2   S    
C11   H2    S    
C19   C20   A    
N1    Zn1   S    
N2    Zn2   S    
O7    Zn1   S    
C17   C18   A    
C12   O4    A    
C7    H7    S    
C9    H10   S    
O8    Zn2   S    
C3    C4    A    
C12   O3    A    
C11   C13   S    
O1    Zn1   S    
O4    Zn2   S    
C11   N1    D    
C13   N2    D    
C1    O1    A    
O2    Zn2   S    
C2    C3    A    
O3    Zn1   S    
C1    O2    A    
C5    C6    A    
C19   H5    S    
C16   C17   A    
C2    C20   A    
C5    H6    S    
C15   O7    A    
C7    C8    D    
C6    C20   A    
C13   H3    S    
C16   H4    S    
C18   C19   A    
C14   O6    A    
C7    C9    S    
C8    Br4   S    
C15   O8    A    
C8    C14   S    
C3    C12   S    
C6    C15   S    
O5    Zn1   S    
C1    C10   S    
C4    Br1   S    
C4    C5    A    
