data_mof_unit_7442.cif
_audit_creation_date              2013-03-05T16:36:12-0500
_audit_creation_method            fapswitch 2.2
_symmetry_space_group_name_H-M    P1
_symmetry_Int_Tables_number       1
_space_group_crystal_system       triclinic
_cell_length_a                    27.893649
_cell_length_b                    9.253368
_cell_length_c                    7.768828
_cell_angle_alpha                 89.89091
_cell_angle_beta                  90.198011
_cell_angle_gamma                 90.585472
_cell_volume                      2005.093579

loop_
_atom_site_label
_atom_site_type_symbol
_atom_site_description
_atom_site_fract_x
_atom_site_fract_y
_atom_site_fract_z
_atom_type_partial_charge
O1    O     O_R   0.500000 0.288390 0.642760 -0.563487
O2    O     O_R   0.500000 0.711610 0.357240 -0.572280
O3    O     O_R   0.500000 0.711610 0.642760 -0.557481
O4    O     O_R   0.500000 0.288390 0.357240 -0.568241
C1    C     C_R   0.500059 0.219710 0.500099 0.928314
C2    C     C_R   0.500003 0.780292 0.499915 0.911911
O5    O     O_R   0.430260 0.500000 0.642770 -0.534901
O6    O     O_R   0.569740 0.500000 0.357230 -0.573477
O7    O     O_R   0.569740 0.500000 0.642770 -0.574548
O8    O     O_R   0.430260 0.500000 0.357230 -0.549221
C3    C     C_R   0.407230 0.498706 0.499591 0.917756
C4    C     C_R   0.592581 0.497517 0.500335 0.935845
Cu1   Cu    Cu3+1 0.500000 0.500000 0.669080 1.154369
Cu2   Cu    Cu3+1 0.500000 0.500000 0.330920 1.151139
C5    C     C_R   0.177524 0.363074 0.519139 0.662132
C6    C     C_R   0.824285 0.593606 0.413451 0.658821
C7    C     C_R   0.177916 0.610993 0.433497 0.664788
C8    C     C_R   0.824745 0.340913 0.463727 0.671527
O9    O     O_2   0.202225 0.245563 0.569332 -0.406705
O10   O     O_2   0.802287 0.711550 0.350229 -0.436060
O11   O     O_2   0.203091 0.731529 0.392899 -0.407736
O12   O     O_2   0.803795 0.216950 0.516282 -0.438644
N1    N     N_R   0.201740 0.488469 0.480791 -0.471817
N2    N     N_R   0.798978 0.467380 0.446958 -0.454247
C9    C     C_R   0.277536 0.584951 0.598331 -0.139604
C10   C     C_R   0.716574 0.348811 0.450226 -0.124745
C11   C     C_R   0.279298 0.398267 0.381900 -0.162616
C12   C     C_R   0.723650 0.601336 0.514319 -0.158498
C13   C     C_R   0.327674 0.590670 0.602694 0.275987
C14   C     C_R   0.667788 0.355087 0.491845 0.249021
C15   C     C_R   0.329314 0.396292 0.388317 0.286773
C16   C     C_R   0.673873 0.614455 0.502912 0.280553
C17   C     C_R   0.253307 0.490655 0.487227 0.180090
C18   C     C_R   0.746595 0.471752 0.468836 0.165586
C19   C     C_R   0.102025 0.482365 0.461724 -0.225835
C20   C     C_R   0.899815 0.471584 0.437389 -0.241251
C21   C     C_R   0.127202 0.356471 0.507400 -0.210866
C22   C     C_R   0.874135 0.600018 0.436488 -0.204035
C23   C     C_R   0.127513 0.611340 0.425558 -0.211095
C24   C     C_R   0.874623 0.340366 0.435773 -0.205293
C25   C     C_R   0.101414 0.228723 0.543892 0.613795
C26   C     C_R   0.898507 0.730695 0.464235 0.616237
C27   C     C_R   0.102053 0.735586 0.377749 0.613718
C28   C     C_R   0.899870 0.212966 0.406128 0.620994
C29   C     C_R   0.354285 0.494912 0.497616 -0.248403
C30   C     C_R   0.645148 0.489357 0.500046 -0.266393
H1    H     H_    0.259992 0.326149 0.296094 0.206860
H2    H     H_    0.744145 0.694577 0.554352 0.199652
H3    H     H_    0.256853 0.655446 0.679917 0.208506
H4    H     H_    0.729868 0.245543 0.410152 0.238048
C31   C     C_R   0.975874 0.342916 0.440271 -0.085937
C32   C     C_R   0.025956 0.609610 0.425723 -0.081626
C33   C     C_R   0.975333 0.608336 0.443203 -0.085225
C34   C     C_R   0.026080 0.346343 0.470607 -0.079958
C35   C     C_R   0.950515 0.474323 0.439869 -0.072846
C36   C     C_R   0.051268 0.479381 0.452508 -0.068533
C37   C     C_R   0.949928 0.214529 0.403586 0.639086
C38   C     C_R   0.052135 0.734441 0.376332 0.627981
C39   C     C_R   0.948467 0.734564 0.473052 0.638840
C40   C     C_R   0.051705 0.223868 0.526859 0.624473
C41   C     C_1   0.500104 0.065022 0.500176 0.002342
C42   C     C_1   0.500088 0.934973 0.499908 -0.014242
N3    N     N_1   0.500000 0.500000 0.076820 -0.003618
N4    N     N_1   0.500000 0.500000 0.923180 -0.000265
S1    S     S_3+6 0.358552 0.262430 0.264904 0.065373
O13   O     O_2   0.382760 0.332089 0.113030 -0.225591
O14   O     O_2   0.395557 0.187928 0.373265 -0.305329
O15   O     O_3   0.318972 0.138354 0.191863 -0.440682
H5    H     H_    0.309216 0.082412 0.295046 0.384097
S2    S     S_3+6 0.649779 0.788634 0.487120 0.096764
O16   O     O_2   0.605912 0.788315 0.374623 -0.258657
O17   O     O_2   0.636409 0.838987 0.664120 -0.215560
O18   O     O_3   0.690748 0.900211 0.397075 -0.403799
H6    H     H_    0.716790 0.911422 0.482876 0.383863
S3    S     S_3+6 0.355259 0.723688 0.735478 0.074301
O19   O     O_2   0.393174 0.803310 0.635204 -0.267690
O20   O     O_2   0.319049 0.830829 0.797548 -0.209538
O21   O     O_3   0.380821 0.643922 0.906896 -0.461961
H7    H     H_    0.353764 0.600475 0.971815 0.363333
S4    S     S_3+6 0.639260 0.195236 0.561046 0.061306
O22   O     O_2   0.618030 0.118289 0.408342 -0.199994
O23   O     O_2   0.676486 0.103157 0.646032 -0.216406
O24   O     O_3   0.596159 0.226194 0.706230 -0.520626
H8    H     H_    0.613399 0.259490 0.810916 0.366267
F1    F     F_    0.123894 0.107428 0.598774 -0.512350
F2    F     F_    0.873698 0.850772 0.504915 -0.509513
F3    F     F_    0.125112 0.859128 0.329624 -0.514085
F4    F     F_    0.876014 0.090734 0.360785 -0.504032
F5    F     F_    0.972349 0.095464 0.344297 -0.485433
F6    F     F_    0.030057 0.851570 0.308668 -0.499881
F7    F     F_    0.969641 0.856794 0.533527 -0.487802
F8    F     F_    0.028825 0.103084 0.584092 -0.501791

loop_
_geom_bond_atom_site_label_1
_geom_bond_atom_site_label_2
_geom_bond_distance
_ccdc_geom_bond_type
O5    Cu1   1.955309 S    
O18   H6    0.989016 S    
O3    C2    1.277785 A    
C33   C39   1.414139 A    
C34   C40   1.413788 A    
C11   C17   1.394796 A    
O5    C3    1.282587 A    
C7    N1    1.369003 A    
C37   F5    1.354675 S    
O1    C1    1.278657 A    
C19   C21   1.410558 A    
C22   C26   1.397847 A    
C10   H4    1.075507 S    
C7    C23   1.407105 A    
O7    Cu1   1.956712 S    
C5    C21   1.407032 A    
C8    C24   1.408918 A    
C27   C38   1.392327 A    
C5    O9    1.349431 S    
C10   C18   1.413023 A    
O15   H5    0.990785 S    
N1    C17   1.439017 S    
S2    O16   1.501213 D    
C26   F2    1.353481 S    
O3    Cu1   1.968365 S    
C6    O10   1.348489 S    
C14   S4    1.756710 S    
C40   F8    1.356339 S    
C12   C18   1.411086 A    
C6    N2    1.383322 A    
Cu1   Cu2   2.627108 S    
C21   C25   1.406385 A    
O2    C2    1.278740 A    
S4    O24   1.678476 S    
O7    C4    1.279133 A    
C9    H3    1.082543 S    
C33   C35   1.414269 A    
C9    C13   1.399277 A    
C34   C36   1.418188 A    
C11   C15   1.396132 A    
C12   C16   1.397484 A    
C4    C30   1.469022 S    
O8    Cu2   1.956714 S    
O21   H7    0.990593 S    
S4    O22   1.501588 D    
C16   S2    1.756484 S    
S1    O14   1.501917 D    
N2    C18   1.472542 S    
C13   C29   1.422298 A    
C19   C23   1.411199 A    
S3    O19   1.501920 D    
C38   F6    1.356285 S    
O24   H8    0.991382 S    
C20   C24   1.396719 A    
C28   C37   1.396415 A    
O6    C4    1.279747 A    
S1    O15   1.682647 S    
S2    O18   1.685199 S    
C1    C41   1.431391 S    
C39   F7    1.354710 S    
S3    O20   1.503744 D    
C32   C38   1.413414 A    
C31   C37   1.413756 A    
S4    O23   1.500435 D    
C10   C14   1.401609 A    
C8    N2    1.385281 A    
C3    C29   1.476912 S    
O1    Cu1   1.969141 S    
C32   C33   1.418955 A    
C11   H1    1.082394 S    
C15   S1    1.774621 S    
C12   H2    1.075956 S    
O6    Cu2   1.955306 S    
C19   C36   1.417336 A    
C8    O12   1.345421 S    
C16   C30   1.401243 A    
C14   C30   1.401126 A    
C25   C40   1.392672 A    
O4    C1    1.277877 A    
C26   C39   1.395115 A    
C23   C27   1.406180 A    
C13   S3    1.775170 S    
C25   F1    1.358469 S    
C31   C34   1.419343 A    
C27   F3    1.358449 S    
C2    C42   1.431302 S    
C20   C22   1.393880 A    
C20   C35   1.414222 A    
Cu1   N4    1.974058 S    
Cu2   N3    1.974058 S    
C5    N1    1.369462 A    
C31   C35   1.412980 A    
O4    Cu2   1.968366 S    
C41   C42   1.203395 T    
O2    Cu2   1.969140 S    
S3    O21   1.681400 S    
C7    O11   1.349382 S    
O8    C3    1.280895 A    
N3    N4    1.193604 T    
C24   C28   1.399246 A    
S1    O13   1.502434 D    
C15   C29   1.422975 A    
C9    C17   1.396398 A    
S2    O17   1.502185 D    
C28   F4    1.353037 S    
C32   C36   1.417528 A    
C6    C22   1.402043 A    
