data_mof_unit_27267.cif
_audit_creation_date              2012-12-10T17:16:42-0500
_audit_creation_method            fapswitch 2.2
_symmetry_space_group_name_H-M    P1
_symmetry_Int_Tables_number       1
_space_group_crystal_system       triclinic
_cell_length_a                    10.107564
_cell_length_b                    10.627428
_cell_length_c                    10.562261
_cell_angle_alpha                 90.110149
_cell_angle_beta                  92.8481
_cell_angle_gamma                 81.59559
_cell_volume                      1120.98387809

loop_
_atom_site_label
_atom_site_type_symbol
_atom_type_description
_atom_site_fract_x
_atom_site_fract_y
_atom_site_fract_z
_atom_type_partial_charge
C1    C     C_R   0.446701 0.509889 0.265213 0.892596
C2    C     C_R   0.492977 0.736694 0.471849 0.888941
C3    C     C_R   0.683091 0.102645 0.321156 -0.168478
C4    C     C_R   0.230972 0.909264 0.451541 -0.146419
C5    C     C_R   0.777265 0.026769 0.249888 -0.142123
C6    C     C_R   0.123762 0.975036 0.514915 -0.058791
C7    C     C_R   0.775547 0.894312 0.243434 -0.014575
C8    C     C_R   0.144752 0.085400 0.582396 -0.103537
C9    C     C_R   0.674469 0.843950 0.303162 -0.240649
C10   C     C_R   0.265189 0.134290 0.570163 -0.181996
C11   C     C_R   0.580948 0.920025 0.376012 0.065179
C12   C     C_R   0.553128 0.485402 0.734941 0.958168
C13   C     C_R   0.370431 0.072393 0.497398 0.103701
C14   C     C_R   0.585317 0.050916 0.389035 0.130829
C15   C     C_R   0.358185 0.950146 0.456259 0.065189
C16   C     C_R   0.476293 0.868998 0.428915 -0.233760
C17   C     C_R   0.487898 0.124498 0.465366 -0.136554
C18   C     C_2   0.046503 0.149121 0.670531 0.933124
C19   C     C_2   0.878130 0.803808 0.180215 0.898682
C20   C     C_2   0.872018 0.091878 0.180401 1.002659
C21   C     C_2   0.993654 0.924865 0.509579 0.907549
C22   C     C_2   0.404999 0.310960 0.855314 0.973813
C23   C     C_2   0.423053 0.508839 0.127955 -0.016745
C24   C     C_2   0.464020 0.271984 0.126735 0.888701
C25   C     C_3   0.692543 0.504435 0.943569 -0.390801
C26   C     C_3   0.699920 0.644961 0.918867 -0.808784
C27   C     C_3   0.379177 0.636404 0.062970 -0.487891
C28   C     C_3   0.233034 0.685294 0.084841 -0.706150
C29   C     C_2   0.574473 0.459241 0.871865 -0.112407
C30   C     C_2   0.463634 0.398825 0.065770 -0.103706
C31   C     C_2   0.483553 0.396731 0.928270 -0.076107
C32   C     C_2   0.073621 0.490357 0.488163 -0.017208
C33   C     C_2   0.926878 0.507715 0.513324 0.004349
C34   C     C_R   0.497764 0.257949 0.493834 0.991419
H1    H     H_    0.682593 0.203302 0.311063 0.162454
H2    H     H_    0.964128 0.620947 0.161117 0.342910
H3    H     H_    0.953698 0.159550 0.340049 0.296593
H4    H     H_    0.895680 0.775412 0.477058 0.353349
H5    H     H_    0.235866 0.230958 0.843138 0.349404
H6    H     H_    0.512383 0.081560 0.110773 0.349476
H7    H     H_    0.707956 0.663519 0.816374 0.263537
H8    H     H_    0.610815 0.706263 0.953017 0.249353
H9    H     H_    0.790468 0.671417 0.969132 0.279782
H10   H     H_    0.690783 0.488557 0.047275 0.240823
H11   H     H_    0.785760 0.447433 0.911376 0.250565
H12   H     H_    0.215902 0.824525 0.398880 0.188691
H13   H     H_    0.168636 0.616352 0.046894 0.269166
H14   H     H_    0.217285 0.700678 0.187304 0.256270
H15   H     H_    0.203676 0.777464 0.034396 0.286651
H16   H     H_    0.442053 0.706450 0.101546 0.197143
H17   H     H_    0.389337 0.632204 0.959114 0.247262
H18   H     H_    0.665228 0.745078 0.286722 0.195492
H19   H     H_    0.275092 0.216830 0.625752 0.210480
H20   H     H_    0.889845 0.571836 0.587880 0.154883
H21   H     H_    0.111097 0.424243 0.415340 0.174949
H22   H     H_    0.881033 0.389865 0.377743 0.187593
H23   H     H_    0.118840 0.611166 0.621514 0.202244
H24   H     H_    0.920711 0.131198 0.809552 0.389256
N1    N     N_2   0.157300 0.551390 0.551120 -0.180636
N2    N     N_2   0.842700 0.448610 0.448880 -0.182645
O1    O     O_R   0.568940 0.489660 0.307530 -0.649938
O2    O     O_R   0.985067 0.076667 0.754148 -0.720900
O3    O     O_2   0.950995 0.840964 0.104109 -0.609479
O4    O     O_R   0.891726 0.673898 0.209231 -0.818888
O5    O     O_2   0.869515 0.088563 0.064809 -0.507649
O6    O     O_R   0.959935 0.162751 0.244741 -0.781147
O7    O     O_2   0.889944 0.993366 0.533254 -0.604771
O8    O     O_R   0.989074 0.798889 0.474412 -0.833446
O9    O     O_2   0.459847 0.238327 0.777742 -0.649759
O10   O     O_R   0.273206 0.304348 0.885917 -0.772508
O11   O     O_2   0.394879 0.261057 0.216640 -0.638119
O12   O     O_R   0.431060 0.510340 0.692470 -0.623158
O13   O     O_R   0.532824 0.163240 0.071838 -0.777680
O14   O     O_R   0.348880 0.522640 0.340350 -0.592313
O15   O     O_R   0.651120 0.477360 0.659650 -0.581976
O16   O     O_R   0.610030 0.300280 0.483580 -0.614819
O17   O     O_R   0.389970 0.699720 0.516420 -0.610522
O18   O     O_R   0.389970 0.333270 0.516400 -0.610266
O19   O     O_R   0.610030 0.666730 0.483600 -0.615138
O20   O     O_2   0.023080 0.265187 0.673526 -0.645034
Zn1   Zn    Zn3+2 0.646940 0.477980 0.478080 0.977045
Zn2   Zn    Zn3+2 0.353060 0.522020 0.521920 0.987203

loop_
_geom_bond_atom_site_label_1
_geom_bond_atom_site_label_2
_ccdc_geom_bond_type
H24   O2    S    
C28   H13   S    
C12   C29   S    
N1    Zn2   S    
C5    C20   S    
C4    H12   S    
C1    O14   A    
C20   O6    S    
C30   C31   S    
C11   C14   A    
C24   O13   S    
H23   N1    S    
C15   C16   A    
H6    O13   S    
C28   H15   S    
C10   H19   S    
C2    O19   A    
C19   O3    D    
C23   C27   S    
C2    C16   S    
C32   H21   S    
C27   H16   S    
C12   O12   A    
C21   O7    D    
C14   C17   A    
C9    H18   S    
O14   Zn2   S    
C25   H10   S    
C27   H17   S    
C26   H9    S    
C25   C29   S    
C22   C31   S    
C23   C30   D    
C20   O5    D    
C4    C6    A    
C5    C7    A    
O15   Zn1   S    
C6    C8    A    
C25   C26   S    
C6    C21   S    
C8    C18   S    
H22   N2    S    
N2    Zn1   S    
O18   Zn2   S    
C3    H1    S    
C19   O4    S    
H3    O6    S    
C9    C11   A    
C3    C14   A    
C8    C10   A    
H4    O8    S    
C1    C23   S    
C33   N2    D    
C7    C19   S    
C13   C15   A    
C21   O8    S    
C17   C34   S    
C25   H11   S    
C26   H8    S    
O19   Zn1   S    
C33   H20   S    
C7    C9    A    
C28   H14   S    
C22   O9    D    
C18   O2    S    
C3    C5    A    
C10   C13   A    
C1    O1    A    
O16   Zn1   S    
C13   C17   A    
C32   C33   S    
C4    C15   A    
C29   C31   D    
C2    O17   A    
O1    Zn1   S    
C34   O18   A    
O17   Zn2   S    
H5    O10   S    
C24   C30   S    
C11   C16   A    
C26   H7    S    
C18   O20   D    
C12   O15   A    
C27   C28   S    
C32   N1    D    
H2    O4    S    
C22   O10   S    
O12   Zn2   S    
C24   O11   D    
C34   O16   A    
