data_mof_unit_38551.cif
_audit_creation_date              2012-12-11T16:48:04-0500
_audit_creation_method            fapswitch 2.2
_symmetry_space_group_name_H-M    P1
_symmetry_Int_Tables_number       1
_space_group_crystal_system       triclinic
_cell_length_a                    17.309618
_cell_length_b                    24.428989
_cell_length_c                    14.919288
_cell_angle_alpha                 90.310871
_cell_angle_beta                  125.690304
_cell_angle_gamma                 89.50763
_cell_volume                      5123.63856415

loop_
_atom_site_label
_atom_site_type_symbol
_atom_type_description
_atom_site_fract_x
_atom_site_fract_y
_atom_site_fract_z
_atom_type_partial_charge
Br1   Br    Br    0.307008 0.314762 0.775069 -0.483512
Br2   Br    Br    0.340187 0.338344 0.467023 -0.424160
Br3   Br    Br    0.091939 0.906236 0.491148 -0.481490
Br4   Br    Br    0.841865 0.839130 0.468334 -0.393158
Br5   Br    Br    0.532481 0.315738 0.228568 -0.463040
Br6   Br    Br    0.519722 0.325961 0.771340 -0.485595
Br7   Br    Br    0.035035 0.819837 0.238265 -0.495583
Br8   Br    Br    0.023362 0.827847 0.770080 -0.492690
Br9   Br    Br    0.742502 0.324070 0.226873 -0.533307
Br10  Br    Br    0.817408 0.820743 0.765284 -0.500374
Br11  Br    Br    0.239961 0.823022 0.225807 -0.549365
Br12  Br    Br    0.557851 0.819506 0.145682 -0.401987
Br13  Br    Br    0.564741 0.759726 0.922735 -0.478239
Br14  Br    Br    0.058572 0.317322 0.143647 -0.461508
Br15  Br    Br    0.990537 0.329592 0.857932 -0.463247
Br16  Br    Br    0.592413 0.404557 0.493850 -0.478828
C1    C     C_R   0.344617 0.350587 0.909470 0.253487
C2    C     C_R   0.428755 0.499564 0.629730 0.036280
C3    C     C_R   0.091170 0.866080 0.907988 0.308122
C4    C     C_R   0.361878 0.323790 0.000857 -0.030591
C5    C     C_R   0.678907 0.349905 0.000666 -0.126640
C6    C     C_R   0.885542 0.814959 0.997168 -0.105102
C7    C     C_R   0.179591 0.850113 0.001411 -0.127219
C8    C     C_R   0.951485 0.000580 0.277307 0.040921
C9    C     C_R   0.930811 0.000135 0.630618 0.024295
C10   C     C_R   0.176777 0.500191 0.732442 0.099862
C11   C     C_R   0.807471 0.500617 0.362295 0.107045
C12   C     C_R   0.677139 0.000212 0.733980 0.097083
C13   C     C_R   0.310081 0.000698 0.359426 0.097355
C14   C     C_2   0.922602 0.460591 0.544917 -0.058651
C15   C     C_2   0.021729 0.457305 0.642387 -0.070275
C16   C     C_2   0.423740 0.961168 0.542915 -0.071345
C17   C     C_R   0.681131 0.365098 0.092213 0.307862
C18   C     C_2   0.521940 0.957551 0.642203 -0.083695
C19   C     C_2   0.892163 0.503072 0.475078 -0.186588
C20   C     C_2   0.075806 0.502066 0.685976 -0.178332
C21   C     C_2   0.395883 0.002811 0.471534 -0.179075
C22   C     C_2   0.575985 0.002239 0.686458 -0.173574
C23   C     C_R   0.393307 0.762342 0.105876 -0.071095
C24   C     C_R   0.704824 0.708663 0.898267 -0.011874
C25   C     C_R   0.892540 0.262476 0.104378 -0.049928
C26   C     C_R   0.135235 0.251116 0.898743 -0.048711
C27   C     C_R   0.371894 0.742355 0.005894 0.131277
C28   C     C_R   0.857355 0.847267 0.907761 0.256109
C29   C     C_R   0.745852 0.674073 0.989347 0.082856
C30   C     C_R   0.870532 0.242134 0.004402 0.104912
C31   C     C_R   0.151128 0.235638 0.998080 0.141176
C32   C     C_R   0.308073 0.771487 0.908511 -0.101322
C33   C     C_R   0.844121 0.676863 0.071471 -0.193407
C34   C     C_R   0.805772 0.270780 0.906586 -0.079467
C35   C     C_R   0.227789 0.257707 0.097294 -0.082687
C36   C     C_R   0.749657 0.311809 0.906721 -0.104480
C37   C     C_R   0.296665 0.286522 0.098368 -0.163752
C38   C     C_R   0.252033 0.812547 0.908753 -0.124990
C39   C     C_R   0.181068 0.865009 0.092555 0.298989
C40   C     C_R   0.896199 0.719875 0.069311 -0.107005
C41   C     C_R   0.755640 0.322200 0.003342 0.069011
C42   C     C_R   0.288775 0.294501 0.999977 0.058280
C43   C     C_R   0.256497 0.822150 0.004698 0.079842
C44   C     C_R   0.848548 0.760419 0.986992 0.122231
C45   C     C_R   0.445545 0.651591 0.091672 -0.110755
C46   C     C_R   0.596473 0.623476 0.907154 -0.075803
C47   C     C_R   0.945216 0.151638 0.091342 -0.118416
C48   C     C_R   0.057957 0.150343 0.908698 -0.105966
C49   C     C_R   0.835041 0.302759 0.103559 0.189896
C50   C     C_R   0.388363 0.684412 0.001178 0.083133
C51   C     C_R   0.203817 0.280327 0.899577 0.191843
C52   C     C_R   0.335152 0.802224 0.104996 0.190730
C53   C     C_R   0.755292 0.750556 0.896555 0.175619
C54   C     C_3   0.919012 0.336235 0.188203 -0.518710
C55   C     C_3   0.130882 0.318851 0.812332 -0.584882
C56   C     C_3   0.418484 0.835617 0.190985 -0.533957
C57   C     C_3   0.669952 0.787722 0.835551 -0.545361
C58   C     C_3   0.481649 0.792252 0.192975 0.241444
C59   C     C_3   0.613687 0.741251 0.837313 0.200667
C60   C     C_3   0.981434 0.292031 0.191020 0.224993
C61   C     C_R   0.683806 0.639393 0.997984 0.070341
C62   C     C_3   0.056396 0.286761 0.811013 0.230237
C63   C     C_R   0.384376 0.449535 0.459702 0.062101
C64   C     C_R   0.400661 0.450030 0.379781 -0.009583
C65   C     C_R   0.885095 0.950348 0.459863 0.058600
C66   C     C_R   0.899780 0.950746 0.378600 -0.008452
C67   C     C_R   0.390056 0.498662 0.512369 0.053769
C68   C     C_R   0.410070 0.499140 0.339146 0.094511
C69   C     C_R   0.891975 0.999475 0.513178 0.053298
C70   C     C_R   0.908301 0.999776 0.337050 0.093682
C71   C     C_R   0.377581 0.547891 0.456297 -0.146780
C72   C     C_R   0.887702 0.184282 0.000530 0.071697
C73   C     C_R   0.386521 0.547999 0.368781 -0.157715
C74   C     C_R   0.879238 0.048727 0.457069 -0.139691
C75   C     C_R   0.886145 0.048740 0.367989 -0.152226
C76   C     C_3   0.455296 0.397034 0.418302 0.065796
C77   C     C_3   0.432336 0.394835 0.501746 0.100700
C78   C     C_3   0.955145 0.897990 0.417123 0.071329
C79   C     C_3   0.933443 0.895752 0.501656 0.098700
C80   C     C_R   0.479076 0.454402 0.247292 -0.019652
C81   C     C_R   0.443521 0.454629 0.693190 -0.091095
C82   C     C_R   0.976095 0.954781 0.243924 -0.004393
C83   C     C_R   0.119063 0.181811 0.000349 0.053679
C84   C     C_R   0.943892 0.954988 0.693097 -0.084885
C85   C     C_R   0.232541 0.545641 0.755532 -0.127593
C86   C     C_R   0.758087 0.545637 0.299556 -0.147477
C87   C     C_R   0.732648 0.045634 0.755941 -0.127790
C88   C     C_R   0.259964 0.045851 0.297071 -0.115886
C89   C     C_R   0.483457 0.545836 0.252905 -0.115821
C90   C     C_R   0.449430 0.544968 0.695613 -0.118844
C91   C     C_R   0.982699 0.046058 0.251843 -0.113184
C92   C     C_R   0.952108 0.045422 0.697121 -0.092696
C93   C     C_R   0.232775 0.454157 0.755183 -0.084741
C94   C     C_R   0.453870 0.500133 0.280115 0.047363
C95   C     C_R   0.756514 0.454848 0.302961 -0.055779
C96   C     C_R   0.733246 0.954115 0.757338 -0.067541
C97   C     C_R   0.257966 0.954866 0.301547 -0.055332
C98   C     C_R   0.355182 0.652534 0.908817 -0.113490
C99   C     C_R   0.689202 0.626159 0.092012 -0.060348
C100  C     C_R   0.854706 0.152345 0.908440 -0.129925
C101  C     C_R   0.149432 0.150666 0.092509 -0.111535
C102  C     C_R   0.435744 0.350808 0.092487 0.233461
C103  C     C_R   0.590233 0.365705 0.907501 0.302965
C104  C     C_R   0.946016 0.846342 0.090660 0.279635
H1    H     H_    0.934106 0.539816 0.495954 0.141028
H2    H     H_    0.355958 0.301592 0.176903 0.170541
H3    H     H_    0.201841 0.833710 0.832500 0.184212
H4    H     H_    0.970962 0.722772 0.135023 0.193009
H5    H     H_    0.922335 0.376078 0.154870 0.228497
H6    H     H_    0.139856 0.361551 0.843111 0.219537
H7    H     H_    0.421533 0.876011 0.159139 0.226260
H8    H     H_    0.677160 0.824116 0.884980 0.225810
H9    H     H_    0.926574 0.339584 0.267229 0.213577
H10   H     H_    0.123331 0.314973 0.733399 0.214180
H11   H     H_    0.425505 0.837895 0.269794 0.216944
H12   H     H_    0.043658 0.542383 0.671046 0.146358
H13   H     H_    0.647078 0.797228 0.750589 0.210593
H14   H     H_    0.523523 0.769130 0.271932 0.113453
H15   H     H_    0.559660 0.724410 0.753886 0.097831
H16   H     H_    0.022677 0.269149 0.270292 0.115125
H17   H     H_    0.007917 0.264021 0.732652 0.101817
H18   H     H_    0.372982 0.586901 0.487516 0.129542
H19   H     H_    0.386274 0.586953 0.334516 0.129952
H20   H     H_    0.875656 0.087749 0.489053 0.129959
H21   H     H_    0.885634 0.087669 0.333466 0.131371
H22   H     H_    0.493244 0.665109 0.176381 0.105340
H23   H     H_    0.439882 0.038555 0.491481 0.142734
H24   H     H_    0.568623 0.628123 0.821335 0.093507
H25   H     H_    0.992885 0.165338 0.175924 0.101703
H26   H     H_    0.013917 0.163553 0.823500 0.096984
H27   H     H_    0.462062 0.412767 0.250548 0.133742
H28   H     H_    0.412100 0.415201 0.660792 0.189121
H29   H     H_    0.955446 0.913537 0.243336 0.140873
H30   H     H_    0.911738 0.915796 0.659792 0.193348
H31   H     H_    0.211127 0.587992 0.748192 0.115780
H32   H     H_    0.770445 0.587608 0.327965 0.122400
H33   H     H_    0.711087 0.087989 0.747960 0.118087
H34   H     H_    0.543582 0.042599 0.669707 0.147346
H35   H     H_    0.273803 0.088085 0.323947 0.115532
H36   H     H_    0.211277 0.412275 0.747215 0.128958
H37   H     H_    0.766638 0.414726 0.337249 0.168809
H38   H     H_    0.712545 0.912164 0.752304 0.127769
H39   H     H_    0.269285 0.914677 0.335974 0.169942
H40   H     H_    0.880547 0.423665 0.521293 0.154629
H41   H     H_    0.053444 0.416778 0.663121 0.129533
H42   H     H_    0.379824 0.925128 0.520407 0.153940
H43   H     H_    0.553385 0.916901 0.664519 0.132425
H44   H     H_    0.421401 0.364155 0.354980 0.152378
H45   H     H_    0.294582 0.759303 0.830755 0.146537
H46   H     H_    0.496459 0.394969 0.588503 0.162325
H47   H     H_    0.921299 0.864912 0.354236 0.174829
H48   H     H_    0.998008 0.896093 0.588116 0.163021
H49   H     H_    0.474551 0.588370 0.265186 0.103124
H50   H     H_    0.431518 0.586969 0.668238 0.097537
H51   H     H_    0.974430 0.088624 0.264593 0.104713
H52   H     H_    0.936844 0.087734 0.671306 0.093771
H53   H     H_    0.318990 0.666819 0.824868 0.107594
H54   H     H_    0.747048 0.634478 0.176743 0.109201
H55   H     H_    0.818529 0.166489 0.824410 0.102681
H56   H     H_    0.878774 0.648442 0.140023 0.141806
H57   H     H_    0.189881 0.163933 0.177530 0.106678
H58   H     H_    0.791548 0.258194 0.828668 0.144141
H59   H     H_    0.239877 0.248380 0.175363 0.155366
H60   H     H_    0.698064 0.332225 0.829978 0.181723
N1    N     N_R   0.395410 0.396350 0.944340 -0.095420
N2    N     N_R   0.474920 0.471030 0.794350 -0.049904
N3    N     N_R   0.025080 0.971030 0.205650 -0.038269
N4    N     N_R   0.974920 0.971030 0.794350 -0.047861
N5    N     N_R   0.320260 0.527820 0.794570 -0.051068
N6    N     N_R   0.679740 0.527820 0.205430 -0.057560
N7    N     N_R   0.820260 0.027820 0.794570 -0.052035
N8    N     N_R   0.179740 0.027820 0.205430 -0.054838
N9    N     N_R   0.524590 0.527840 0.205200 -0.050595
N10   N     N_R   0.475410 0.527840 0.794800 -0.053868
N11   N     N_R   0.024590 0.027840 0.205200 -0.051565
N12   N     N_R   0.604590 0.396350 0.055660 -0.085218
N13   N     N_R   0.975410 0.027840 0.794800 -0.051354
N14   N     N_R   0.320750 0.471000 0.795020 -0.041325
N15   N     N_R   0.679250 0.471000 0.204980 -0.054931
N16   N     N_R   0.820750 0.971000 0.795020 -0.039948
N17   N     N_R   0.179250 0.971000 0.204980 -0.052960
N18   N     N_R   0.393620 0.602490 0.942710 -0.049105
N19   N     N_R   0.606380 0.602490 0.057290 -0.046376
N20   N     N_R   0.893620 0.102490 0.942710 -0.045515
N21   N     N_R   0.106380 0.102490 0.057290 -0.045315
N22   N     N_R   0.451720 0.396350 0.057510 -0.095616
N23   N     N_R   0.895410 0.896350 0.944340 -0.098475
N24   N     N_R   0.548280 0.396350 0.942490 -0.083691
N25   N     N_R   0.951720 0.896350 0.057510 -0.100831
N26   N     N_R   0.048280 0.896350 0.942490 -0.084425
N27   N     N_R   0.104590 0.896350 0.055660 -0.088295
N28   N     N_R   0.449930 0.602500 0.055880 -0.049870
N29   N     N_R   0.550070 0.602500 0.944120 -0.042496
N30   N     N_R   0.949930 0.102500 0.055880 -0.046773
N31   N     N_R   0.050070 0.102500 0.944120 -0.045463
N32   N     N_R   0.525080 0.471030 0.205650 -0.040433
Ni1   Ni    Ni4+2 0.435420 0.434270 0.870230 0.284571
Ni2   Ni    Ni4+2 0.564580 0.434270 0.129770 0.293433
Ni3   Ni    Ni4+2 0.935420 0.934270 0.870230 0.284235
Ni4   Ni    Ni4+2 0.064580 0.934270 0.129770 0.292000
Ni5   Ni    Ni4+2 0.563430 0.564580 0.128740 0.226668
Ni6   Ni    Ni4+2 0.436570 0.564580 0.871260 0.218846
Ni7   Ni    Ni4+2 0.063430 0.064580 0.128740 0.217110
Ni8   Ni    Ni4+2 0.936570 0.064580 0.871260 0.210023

loop_
_geom_bond_atom_site_label_1
_geom_bond_atom_site_label_2
_ccdc_geom_bond_type
N26   Ni3   S    
N13   Ni8   S    
C67   C71   A    
C89   C94   A    
C15   H41   S    
C72   C100  A    
C80   N32   A    
C37   C42   A    
Br12  C58   S    
N7    N16   A    
C57   C59   S    
C23   C52   A    
C46   C61   A    
C3    C7    A    
N1    N22   A    
N19   Ni5   S    
N5    N14   A    
C38   H3    S    
C79   H48   S    
N14   Ni1   S    
C2    C90   A    
C65   C66   A    
C60   H16   S    
C81   N2    A    
C91   H51   S    
C12   C96   A    
C14   H40   S    
N31   Ni8   S    
N23   N25   A    
C99   N19   A    
C86   N6    A    
C89   H49   S    
C14   C19   D    
C17   N12   A    
C8    C82   A    
N29   Ni6   S    
C40   H4    S    
N23   Ni3   S    
C34   H58   S    
C63   C77   S    
C99   H54   S    
C70   C75   A    
C20   H12   S    
C10   C85   A    
C6    C44   S    
C14   C15   S    
C100  N20   A    
C59   H15   S    
Br15  C62   S    
C83   C101  A    
N4    N13   A    
C44   C53   A    
N3    Ni4   S    
C1    C4    A    
C31   C83   S    
C8    C70   S    
C23   C58   S    
C82   N3    A    
C93   H36   S    
C96   N16   A    
N15   Ni2   S    
C45   C50   A    
C87   H33   S    
C98   H53   S    
C6    C28   A    
C32   H45   S    
Br13  C59   S    
N25   Ni4   S    
N9    Ni5   S    
C95   N15   A    
C73   H19   S    
C16   H42   S    
C28   N23   A    
C34   C36   A    
C25   C30   A    
C55   H6    S    
C53   C57   S    
N18   Ni6   S    
C2    C81   A    
C12   C22   S    
C35   H59   S    
C50   C98   A    
C27   C32   A    
C64   C68   A    
N7    Ni8   S    
C76   H44   S    
C11   C95   A    
Br9   C17   S    
C90   H50   S    
C102  N22   A    
C85   N5    A    
N10   Ni6   S    
N12   Ni2   S    
C101  H57   S    
C30   C72   S    
C38   C43   A    
C48   C83   A    
C24   C29   A    
C88   N8    A    
N6    Ni5   S    
Br8   C3    S    
C24   C53   A    
C56   H7    S    
Br10  C28   S    
C89   N9    A    
N6    N15   A    
C19   H1    S    
C87   N7    A    
N21   Ni7   S    
C56   C58   S    
C18   H43   S    
N5    Ni6   S    
N11   Ni7   S    
C32   C38   A    
N16   Ni3   S    
N26   N27   A    
C76   C77   S    
N4    Ni3   S    
C31   C35   A    
C84   H30   S    
C66   C70   A    
N18   N28   A    
N24   Ni1   S    
C85   H31   S    
C54   H9    S    
C68   C94   S    
N30   Ni7   S    
C40   C44   A    
C13   C88   A    
C35   C37   A    
Br14  C60   S    
C64   C76   S    
C6    C104  A    
C46   H24   S    
C36   H60   S    
C5    C41   S    
C104  N25   A    
C43   C52   A    
C3    N26   A    
Br4   C79   S    
C45   H22   S    
C9    C84   A    
C74   H20   S    
C29   C33   A    
C52   C56   S    
C9    C69   S    
C2    C67   S    
N12   N24   A    
C93   N14   A    
C48   N31   A    
N2    Ni1   S    
C16   C21   D    
N22   Ni2   S    
C7    C39   A    
C10   C93   A    
N17   Ni4   S    
C96   H38   S    
C54   H5    S    
C10   C20   S    
C22   H34   S    
C57   H13   S    
C77   H46   S    
Br16  C76   S    
C92   H52   S    
C54   C60   S    
C26   C51   A    
N20   Ni8   S    
C81   H28   S    
C97   H39   S    
C68   C73   A    
C90   N10   A    
C71   H18   S    
C91   N11   A    
C47   C72   A    
C33   C40   A    
C62   H17   S    
Br6   C103  S    
Br11  C39   S    
C56   H11   S    
C86   H32   S    
N8    Ni7   S    
N28   Ni5   S    
C80   H27   S    
C13   C97   A    
C4    C102  A    
C47   N30   A    
C21   H23   S    
C100  H55   S    
C48   H26   S    
C18   C22   D    
N19   N29   A    
Br7   C104  S    
Br2   C77   S    
C103  N24   A    
C41   C49   A    
N9    N32   A    
N3    N11   A    
C78   H47   S    
C23   C27   A    
C69   C74   A    
C26   C62   S    
C75   H21   S    
C57   H8    S    
C39   N27   A    
C30   C34   A    
C11   C86   A    
Br1   C1    S    
C24   C59   S    
Br5   C102  S    
C37   H2    S    
C11   C19   S    
C7    C43   S    
C71   C73   A    
C8    C91   A    
C95   H37   S    
C5    C103  A    
C55   H10   S    
C63   C67   A    
C101  N21   A    
C12   C87   A    
C74   C75   A    
C80   C94   A    
N8    N17   A    
C27   C50   S    
C65   C79   S    
C58   H14   S    
N27   Ni4   S    
C46   N29   A    
C47   H25   S    
Br3   C78   S    
C51   C55   S    
C26   C31   A    
C33   H56   S    
C88   H35   S    
C25   C49   A    
C78   C79   S    
C84   N4    A    
N20   N30   A    
C36   C41   A    
N32   Ni2   S    
C45   N28   A    
C63   C64   A    
C1    N1    A    
C42   C51   A    
C5    C17   A    
C98   N18   A    
C13   C21   S    
C97   N17   A    
C15   C20   D    
C66   C78   S    
N1    Ni1   S    
N2    N10   A    
C29   C61   S    
C92   N13   A    
C61   C99   A    
C4    C42   S    
N21   N31   A    
C55   C62   S    
C65   C69   A    
C49   C54   S    
C9    C92   A    
C16   C18   S    
C25   C60   S    
C82   H29   S    
