data_mof_unit_21459.cif
_audit_creation_date              2012-12-11T17:15:56-0500
_audit_creation_method            fapswitch 2.2
_symmetry_space_group_name_H-M    P1
_symmetry_Int_Tables_number       1
_space_group_crystal_system       triclinic
_cell_length_a                    14.564251
_cell_length_b                    7.238081
_cell_length_c                    13.62688
_cell_angle_alpha                 90.032392
_cell_angle_beta                  99.88528
_cell_angle_gamma                 89.983809
_cell_volume                      1415.18050462

loop_
_atom_site_label
_atom_site_type_symbol
_atom_type_description
_atom_site_fract_x
_atom_site_fract_y
_atom_site_fract_z
_atom_type_partial_charge
O1    O     O_R   0.398210 0.494340 0.401550 -0.535144
O2    O     O_R   0.601790 0.994340 0.598450 -0.532627
O3    O     O_R   0.586310 0.821730 0.403360 -0.539395
O4    O     O_R   0.413690 0.321730 0.596640 -0.545372
C1    C     C_R   0.614285 0.654837 0.381154 0.651315
C2    C     C_R   0.385434 0.154796 0.618604 0.641289
O5    O     O_R   0.397970 0.823900 0.389580 -0.532815
O6    O     O_R   0.602030 0.323900 0.610420 -0.533635
O7    O     O_R   0.412100 0.996500 0.584560 -0.545531
O8    O     O_R   0.587900 0.496500 0.415440 -0.549370
C3    C     C_R   0.364842 0.655224 0.363346 0.718200
C4    C     C_R   0.635170 0.155247 0.636639 0.725123
O9    O     O_3   0.504860 0.661550 0.563990 -0.377319
O10   O     O_3   0.495140 0.161550 0.436010 -0.378634
V1    V     V_3+5 0.499100 0.935510 0.488130 1.373442
V2    V     V_3+5 0.500900 0.435510 0.511870 1.366019
C5    C     C_1   0.716863 0.144766 0.715799 -0.182413
C6    C     C_1   0.283132 0.644730 0.284199 -0.180078
C7    C     C_1   0.785274 0.134448 0.781625 -0.192343
C8    C     C_1   0.214706 0.634467 0.218388 -0.189785
C9    C     C_3   0.274193 0.277606 0.852313 0.018237
C10   C     C_3   0.726097 0.778705 0.147724 0.019868
H1    H     H_    0.314592 0.213665 0.920434 0.138807
H2    H     H_    0.686178 0.715785 0.078974 0.135924
C11   C     C_3   0.341052 0.288553 0.774156 -0.325582
C12   C     C_3   0.658118 0.788009 0.224783 -0.316094
H3    H     H_    0.414454 0.270720 0.811578 0.129944
H4    H     H_    0.585288 0.767016 0.186276 0.121606
H5    H     H_    0.339238 0.426075 0.738238 0.134048
H6    H     H_    0.656997 0.925720 0.259091 0.150695
H7    H     H_    0.115888 0.340168 0.713363 0.150164
H8    H     H_    0.886033 0.836336 0.289349 0.152542
C13   C     C_3   0.143649 0.197888 0.709545 -0.329168
C14   C     C_3   0.856403 0.695625 0.290852 -0.344233
C15   C     C_3   0.235156 0.945217 0.806122 -0.365509
C16   C     C_3   0.763516 0.445863 0.192231 -0.365623
C17   C     C_3   0.190851 0.139290 0.815342 0.014895
C18   C     C_3   0.809025 0.639456 0.184488 0.020939
H9    H     H_    0.180023 0.847253 0.771365 0.129379
H10   H     H_    0.818086 0.346579 0.226680 0.131521
H11   H     H_    0.259845 0.892120 0.881797 0.161667
H12   H     H_    0.738914 0.394601 0.116147 0.162504
C19   C     C_3   0.315416 0.145150 0.690266 0.006666
C20   C     C_3   0.683640 0.645176 0.308974 0.039490
C21   C     C_3   0.212892 0.186188 0.633747 -0.018777
C22   C     C_3   0.786568 0.680897 0.365542 0.003419
C23   C     C_3   0.313731 0.949806 0.741131 0.004722
C24   C     C_3   0.684390 0.450760 0.256821 -0.019272
H13   H     H_    0.291029 0.850873 0.678936 0.086629
H14   H     H_    0.706290 0.351123 0.318337 0.099547
H15   H     H_    0.082586 0.107286 0.683352 0.117514
H16   H     H_    0.916908 0.603037 0.316236 0.111003
H17   H     H_    0.191843 0.065355 0.584281 0.117968
H18   H     H_    0.806644 0.552288 0.408984 0.080204
O11   O     O_R   0.912140 0.786650 0.084610 -0.533452
O12   O     O_R   0.087860 0.286650 0.915390 -0.533659
O13   O     O_R   0.102040 0.454810 0.110430 -0.533554
O14   O     O_R   0.897960 0.954810 0.889570 -0.534762
C25   C     C_R   0.133447 0.623897 0.138623 0.724502
C26   C     C_R   0.866540 0.123876 0.861383 0.723307
O15   O     O_R   0.913690 0.457060 0.096650 -0.543890
O16   O     O_R   0.086310 0.957060 0.903350 -0.544272
O17   O     O_R   0.898200 0.284560 0.901540 -0.531913
O18   O     O_R   0.101800 0.784560 0.098460 -0.531625
C27   C     C_R   0.882351 0.626444 0.115344 0.663043
C28   C     C_R   0.117639 0.126379 0.884631 0.662785
O19   O     O_3   0.995160 0.617270 0.936040 -0.375723
O20   O     O_3   0.004840 0.117270 0.063960 -0.374419
V3    V     V_3+5 0.000900 0.343280 0.011870 1.386563
V4    V     V_3+5 0.999100 0.843280 0.988130 1.384654
C29   C     C_3   0.247969 0.477638 0.880343 -0.347749
C30   C     C_3   0.275957 0.514999 0.991418 -0.763527
H19   H     H_    0.247129 0.407520 0.035357 0.237381
H20   H     H_    0.352908 0.514122 0.012253 0.209387
H21   H     H_    0.250938 0.653787 0.008859 0.207455
H22   H     H_    0.285438 0.582845 0.844011 0.177242
H23   H     H_    0.173915 0.512258 0.854250 0.203918
C31   C     C_3   0.752740 0.978854 0.120803 -0.346766
C32   C     C_3   0.725108 0.017200 0.009766 -0.764399
H24   H     H_    0.754146 0.910096 0.965727 0.237470
H25   H     H_    0.648147 0.015743 0.988517 0.208465
H26   H     H_    0.750174 0.156095 0.992723 0.208046
H27   H     H_    0.715275 0.083821 0.157422 0.178284
H28   H     H_    0.826874 0.012392 0.147323 0.203653
C33   C     C_3   0.202965 0.358246 0.564278 -0.330220
C34   C     C_3   0.105757 0.374169 0.500664 -0.806299
H29   H     H_    0.088032 0.245875 0.456725 0.227688
H30   H     H_    0.051840 0.400097 0.547477 0.223774
H31   H     H_    0.104634 0.491614 0.448030 0.216011
H32   H     H_    0.218454 0.487024 0.608397 0.175643
H33   H     H_    0.252231 0.348481 0.510914 0.193211
C35   C     C_3   0.803135 0.832370 0.447892 -0.319803
C36   C     C_3   0.782726 0.032393 0.414638 -0.748153
H34   H     H_    0.807011 0.064250 0.343909 0.207052
H35   H     H_    0.707436 0.063213 0.407112 0.230137
H36   H     H_    0.819183 0.127157 0.472697 0.195507
H37   H     H_    0.762581 0.799255 0.507652 0.170914
H38   H     H_    0.877718 0.825104 0.483608 0.166297
C37   C     C_3   0.411212 0.872566 0.793265 -0.284037
C38   C     C_3   0.442000 0.900627 0.905762 -0.807393
H39   H     H_    0.445501 0.047992 0.926952 0.221709
H40   H     H_    0.398117 0.823286 0.950204 0.226640
H41   H     H_    0.513243 0.843081 0.927182 0.209457
H42   H     H_    0.412325 0.721390 0.779647 0.161358
H43   H     H_    0.467985 0.929472 0.757727 0.185037
C39   C     C_3   0.586660 0.375263 0.204695 -0.286066
C40   C     C_3   0.557405 0.399157 0.091789 -0.804588
H44   H     H_    0.555734 0.545632 0.068894 0.221880
H45   H     H_    0.601251 0.317512 0.049131 0.226862
H46   H     H_    0.485849 0.343488 0.070083 0.209393
H47   H     H_    0.584149 0.224717 0.219885 0.163071
H48   H     H_    0.530086 0.436528 0.239095 0.181906

loop_
_geom_bond_atom_site_label_1
_geom_bond_atom_site_label_2
_ccdc_geom_bond_type
C3    C6    S    
C36   H34   S    
C13   C21   S    
C16   H12   S    
O1    C3    A    
C15   C23   S    
C11   C19   S    
C2    O7    A    
C33   H33   S    
C12   C20   S    
C23   H13   S    
C39   H48   S    
C33   C34   S    
O5    C3    A    
C25   O18   A    
C9    C29   S    
C26   O17   A    
C15   C17   S    
C29   H22   S    
C34   H30   S    
O13   C25   A    
C22   C35   S    
C39   C40   S    
O14   C26   A    
C10   C18   S    
C23   C37   S    
O16   V4    S    
C35   C36   S    
C31   H27   S    
C24   C39   S    
O17   V3    S    
O20   V3    S    
C4    C5    S    
C40   H44   S    
H7    C13   S    
C14   C22   S    
O18   V4    S    
C24   H14   S    
C37   H42   S    
C21   H17   S    
C36   H35   S    
C40   H45   S    
C30   H21   S    
O11   C27   A    
C20   C22   S    
C35   H37   S    
C39   H47   S    
C11   H5    S    
C37   H43   S    
O16   C28   A    
C35   H38   S    
C16   H10   S    
C10   C31   S    
C30   H20   S    
C32   H25   S    
C31   C32   S    
O14   V4    S    
C38   H41   S    
C13   C17   S    
H8    C14   S    
O4    V2    S    
C15   H9    S    
C31   H28   S    
C37   C38   S    
C18   C27   S    
O6    C4    A    
C17   C28   S    
C22   H18   S    
C38   H40   S    
O1    V2    S    
C8    C25   S    
O2    V1    S    
C19   C21   S    
O4    C2    A    
C1    C20   S    
C12   H6    S    
C36   H36   S    
C2    C19   S    
C9    H1    S    
C40   H46   S    
C10   H2    S    
C13   H15   S    
C29   H23   S    
O3    V1    S    
C34   H29   S    
O2    C4    A    
O15   V3    S    
C9    C11   S    
C14   C18   S    
C14   H16   S    
C30   H19   S    
O3    C1    A    
C34   H31   S    
C32   H26   S    
C33   H32   S    
C7    C26   S    
C11   H3    S    
C12   H4    S    
C21   C33   S    
O19   V4    S    
C16   C18   S    
O7    V1    S    
C1    O8    A    
O8    V2    S    
O12   C28   A    
O5    V1    S    
C38   H39   S    
C5    C7    T    
C16   C24   S    
C6    C8    T    
C15   H11   S    
O11   V4    S    
C32   H24   S    
O15   C27   A    
C29   C30   S    
C9    C17   S    
O6    V2    S    
O12   V3    S    
C10   C12   S    
O9    V2    S    
O10   V1    S    
O13   V3    S    
C19   C23   S    
C20   C24   S    
