data_mof_unit_17998.cif
_audit_creation_date              2012-12-11T15:17:14-0500
_audit_creation_method            fapswitch 2.2
_symmetry_space_group_name_H-M    P1
_symmetry_Int_Tables_number       1
_space_group_crystal_system       triclinic
_cell_length_a                    8.238039
_cell_length_b                    16.377382
_cell_length_c                    19.068402
_cell_angle_alpha                 93.239386
_cell_angle_beta                  94.676115
_cell_angle_gamma                 92.089913
_cell_volume                      2557.81926228

loop_
_atom_site_label
_atom_site_type_symbol
_atom_type_description
_atom_site_fract_x
_atom_site_fract_y
_atom_site_fract_z
_atom_type_partial_charge
Ba1   Ba    Ba6+2 0.153080 0.539460 0.466290 1.694036
Ba2   Ba    Ba6+2 0.657090 0.460530 0.533660 1.740812
C1    C     C_3   0.343745 0.741080 0.197085 -0.232570
C2    C     C_R   0.831082 0.761354 0.507450 0.032769
C3    C     C_R   0.880567 0.844913 0.512841 -0.177525
C4    C     C_3   0.860983 0.764520 0.268132 0.843480
C5    C     C_R   0.782885 0.904665 0.480210 0.183544
C6    C     C_R   0.629421 0.879231 0.444267 0.313090
C7    C     C_R   0.577778 0.795092 0.442032 -0.081146
C8    C     C_R   0.923551 0.155028 0.487050 -0.170387
C9    C     C_R   0.975542 0.238055 0.493320 0.015822
C10   C     C_R   0.021243 0.094052 0.517101 0.218479
C11   C     C_R   0.122640 0.260718 0.532147 -0.354674
C12   C     C_3   0.363560 0.714930 0.272429 0.316120
C13   C     C_R   0.227916 0.202212 0.558883 -0.131596
C14   C     C_R   0.179021 0.117258 0.549840 0.328370
C15   C     C_R   0.606486 0.538674 0.299406 -0.311343
C16   C     C_3   0.938232 0.827432 0.323932 -0.202389
C17   C     C_R   0.459562 0.496623 0.277673 0.074017
C18   C     C_R   0.401673 0.492788 0.206594 -0.072172
C19   C     C_R   0.494969 0.526817 0.155704 -0.008469
C20   C     C_R   0.648094 0.565172 0.178247 -0.093189
C21   C     C_R   0.702992 0.571006 0.250030 0.000680
C22   C     C_R   0.468090 0.578657 0.032901 -0.067900
C23   C     C_3   0.514235 0.708077 0.626162 0.296433
C24   C     C_R   0.411084 0.568863 0.961553 -0.086266
C25   C     C_R   0.318990 0.498107 0.933925 0.024000
C26   C     C_R   0.281200 0.438044 0.982103 0.201117
C27   C     C_R   0.342817 0.447904 0.052722 -0.039770
C28   C     C_3   0.795604 0.367356 0.319099 0.282737
C29   C     C_R   0.435580 0.517871 0.079383 0.019685
C30   C     C_R   0.117729 0.454538 0.828576 -0.090455
C31   C     C_R   0.078961 0.442739 0.755714 -0.028508
C32   C     C_R   0.333280 0.512244 0.734278 0.071921
C33   C     C_R   0.377985 0.519033 0.807198 -0.039327
C34   C     C_3   0.522415 0.800667 0.639712 -0.311872
C35   C     C_R   0.271407 0.488967 0.855778 0.053578
C36   C     C_R   0.187421 0.470830 0.709170 -0.211764
C37   C     C_3   0.826222 0.355910 0.241227 0.339193
C38   C     C_3   0.022631 0.639840 0.681794 0.321770
C39   C     C_3   0.048028 0.665888 0.760104 -0.024879
C40   C     C_3   0.288235 0.294128 0.382524 0.291938
C41   C     C_3   0.253983 0.203653 0.361966 -0.301412
C42   C     C_3   0.947052 0.240066 0.689658 0.333916
C43   C     C_3   0.952603 0.152367 0.711669 -0.319567
C44   C     C_3   0.442162 0.186570 0.717577 0.749349
C45   C     C_3   0.509033 0.112983 0.754927 -0.207612
C46   C     C_R   0.681431 0.737745 0.471443 -0.357204
H1    H     H_    0.284234 0.659407 0.276283 0.076220
H2    H     H_    0.389980 0.693603 0.160925 0.061779
H3    H     H_    0.144935 0.195677 0.323562 0.151995
H4    H     H_    0.231792 0.169528 0.408992 0.065382
H5    H     H_    0.360032 0.177819 0.337433 0.163821
H6    H     H_    0.491936 0.699547 0.284489 -0.026540
H7    H     H_    0.412846 0.799659 0.192694 0.208689
H8    H     H_    0.637217 0.687696 0.615751 0.027645
H9    H     H_    0.427769 0.692569 0.579144 0.051861
H10   H     H_    0.610908 0.818536 0.685568 0.152279
H11   H     H_    0.561900 0.830621 0.592890 0.047203
H12   H     H_    0.955135 0.340244 0.236450 0.040269
H13   H     H_    0.400316 0.822383 0.650698 0.162747
H14   H     H_    0.213459 0.749252 0.180848 0.182455
H15   H     H_    0.852318 0.876221 0.334556 0.109635
H16   H     H_    0.876945 0.239312 0.637280 0.071140
H17   H     H_    0.074225 0.263472 0.685469 -0.080500
H18   H     H_    0.025706 0.116049 0.676090 0.101224
H19   H     H_    0.008195 0.150601 0.766547 0.167367
H20   H     H_    0.828037 0.123904 0.707687 0.129429
H21   H     H_    0.316290 0.169590 0.695080 -0.100426
H22   H     H_    0.419561 0.090041 0.790479 0.124570
H23   H     H_    0.805276 0.413814 0.215168 -0.043554
H24   H     H_    0.625408 0.129737 0.786822 0.127747
H25   H     H_    0.746821 0.740079 0.287318 -0.272220
H26   H     H_    0.532835 0.062506 0.716613 0.122704
H27   H     H_    0.808022 0.138413 0.457979 0.167937
H28   H     H_    0.995687 0.862745 0.542057 0.174018
H29   H     H_    0.641699 0.673900 0.469227 0.090825
H30   H     H_    0.161373 0.324760 0.536828 0.089474
H31   H     H_    0.494544 0.548539 0.825542 0.087777
H32   H     H_    0.438013 0.617921 0.928027 0.102159
H33   H     H_    0.536236 0.634420 0.051683 0.135435
H34   H     H_    0.140493 0.623096 0.662873 -0.050157
H35   H     H_    0.284706 0.461966 0.191379 0.093248
H36   H     H_    0.318762 0.399219 0.086981 0.121621
H37   H     H_    0.025863 0.438729 0.863193 0.112918
H38   H     H_    0.727062 0.587470 0.140267 0.120398
H39   H     H_    0.154991 0.463661 0.652951 0.041679
H40   H     H_    0.651358 0.541073 0.354439 0.071310
H41   H     H_    0.968587 0.796941 0.373401 0.060679
H42   H     H_    0.050790 0.856094 0.306271 0.190800
H43   H     H_    0.664967 0.376215 0.324310 0.008073
H44   H     H_    0.867811 0.422919 0.340902 -0.007061
H45   H     H_    0.934248 0.586684 0.673716 0.038843
H46   H     H_    0.435559 0.259950 0.168692 0.382214
H47   H     H_    0.184269 0.279818 0.805987 0.337348
H48   H     H_    0.530952 0.084785 0.399446 0.352219
H49   H     H_    0.561784 0.010862 0.590110 0.352476
H50   H     H_    0.943787 0.877465 0.113790 0.388004
H51   H     H_    0.127698 0.722396 0.768137 0.124931
H52   H     H_    0.107218 0.617584 0.789699 -0.003122
H53   H     H_    0.175314 0.320973 0.399144 -0.010554
H54   H     H_    0.384470 0.300570 0.426859 0.064640
I1    I     I_    0.821270 0.687415 0.803581 -0.400049
I2    I     I_    0.134909 0.328492 0.960745 -0.245629
N1    N     N_2   0.834201 0.989921 0.481527 -0.149198
N2    N     N_2   0.967942 0.009045 0.515266 -0.146874
O1    O     O_2   0.121950 0.695970 0.534170 -0.464102
O2    O     O_2   0.736193 0.429762 0.746907 -0.391447
O3    O     O_3   0.870100 0.287981 0.739664 -0.534199
O4    O     O_3   0.871970 0.595810 0.535570 -0.495596
O5    O     O_3   0.435500 0.459820 0.416880 -0.499068
O6    O     O_2   0.630010 0.537400 0.669530 -0.446448
O7    O     O_3   0.461854 0.672082 0.685863 -0.628122
O8    O     O_2   0.542244 0.213014 0.532995 -0.420087
O9    O     O_3   0.546263 0.209581 0.666432 -0.570382
O10   O     O_3   0.356610 0.647930 0.408330 -0.514327
O11   O     O_2   0.239248 0.789425 0.448642 -0.420043
O12   O     O_3   0.340149 0.332100 0.323976 -0.583362
O13   O     O_3   0.965199 0.706131 0.646057 -0.619956
O14   O     O_3   0.319370 0.778723 0.318531 -0.542663
O15   O     O_2   0.180290 0.462550 0.330450 -0.477875
O16   O     O_3   0.940700 0.607800 0.373310 -0.485820
O17   O     O_2   0.031575 0.550243 0.249730 -0.501159
O18   O     O_2   0.739720 0.266223 0.121149 -0.226414
O19   O     O_2   0.713551 0.198358 0.231351 -0.221662
O20   O     O_3   0.500425 0.305280 0.195452 -0.543127
O21   O     O_2   0.586922 0.278098 0.829985 -0.204428
O22   O     O_2   0.411271 0.346120 0.744163 -0.354952
O23   O     O_3   0.974521 0.704591 0.254469 -0.614425
O24   O     O_3   0.274541 0.249563 0.828183 -0.502481
O25   O     O_2   0.574760 0.954835 0.324697 -0.252295
O26   O     O_2   0.335205 0.931959 0.389051 -0.218224
O27   O     O_3   0.542784 0.046260 0.437512 -0.462945
O28   O     O_2   0.259255 0.014224 0.649870 -0.357946
O29   O     O_2   0.277205 0.963064 0.528886 -0.233135
O30   O     O_3   0.506089 0.062925 0.584104 -0.489506
O31   O     O_2   0.730826 0.751745 0.133702 -0.336289
O32   O     O_2   0.694629 0.880548 0.201410 -0.238568
O33   O     O_3   0.980418 0.853946 0.158841 -0.499680
O34   O     O_2   0.688350 0.303980 0.465810 -0.457686
O35   O     O_3   0.938330 0.404180 0.464370 -0.499158
O36   O     O_3   0.453690 0.352060 0.591610 -0.446251
O37   O     O_3   0.841760 0.297299 0.353235 -0.609644
O38   O     O_3   0.374800 0.540170 0.583060 -0.488073
O39   O     O_3   0.869600 0.392190 0.626640 -0.503946
P1    P     P_3+3 0.950430 0.683250 0.555020 1.007890
P2    P     P_3+3 0.353690 0.438260 0.341200 1.013453
P3    P     P_3+3 0.910288 0.608852 0.281212 0.956093
P4    P     P_3+3 0.859870 0.316740 0.444930 1.009383
P5    P     P_3+3 0.887422 0.390384 0.718467 1.064248
P6    P     P_3+3 0.373833 0.754072 0.405277 1.067777
P7    P     P_3+3 0.449936 0.565505 0.670471 0.988541
P8    P     P_3+3 0.436349 0.243696 0.591081 1.093210
S1    S     S_3+6 0.694787 0.277484 0.195794 -0.018769
S2    S     S_3+6 0.433422 0.268935 0.781406 -0.052101
S3    S     S_3+6 0.514981 0.952432 0.396899 0.000420
S4    S     S_3+6 0.306048 0.037300 0.578894 -0.074919
S5    S     S_3+6 0.810048 0.813527 0.188294 -0.043894

loop_
_geom_bond_atom_site_label_1
_geom_bond_atom_site_label_2
_ccdc_geom_bond_type
O29   S4    D    
O18   S1    D    
O27   S3    S    
Ba2   O38   S    
N1    N2    D    
C17   C18   A    
C23   H8    S    
C38   H45   S    
C34   H11   S    
C42   H17   S    
O35   P4    S    
C5    C6    A    
C42   H16   S    
Ba2   O39   S    
C44   S2    S    
C19   C29   S    
Ba2   O6    S    
C24   C25   A    
C15   C21   A    
O31   S5    D    
O25   S3    D    
C33   C35   A    
C22   C24   A    
C32   C33   A    
C34   H10   S    
C31   P5    S    
C41   H4    S    
C12   H1    S    
C30   H37   S    
C13   C14   A    
C15   H40   S    
Ba1   Ba2   S    
O32   S5    D    
Ba1   O16   S    
O23   P3    S    
O22   S2    D    
C15   C17   A    
C11   H30   S    
C1    H7    S    
C9    P4    S    
Ba2   O4    S    
C10   C14   A    
O33   S5    S    
C6    C7    A    
C44   H21   S    
C43   H19   S    
H47   O24   S    
C5    N1    S    
O24   S2    S    
C28   H43   S    
Ba1   O10   S    
O16   P3    S    
O8    P8    D    
O39   P5    S    
O15   P2    D    
C42   O3    S    
Ba2   P4    S    
C19   C20   A    
O9    P8    S    
O7    P7    S    
Ba1   P1    S    
C23   H9    S    
C4    O23   S    
C40   H54   S    
C4    S5    S    
C1    H2    S    
C41   H5    S    
Ba1   O15   S    
H46   O20   S    
C4    C16   S    
Ba2   O5    S    
C37   S1    S    
C16   H42   S    
C38   H34   S    
C27   H36   S    
C28   H44   S    
O21   S2    D    
C3    C5    A    
O1    P1    D    
C32   P7    S    
C40   O12   S    
C17   P2    S    
C28   O37   S    
C39   I1    S    
O13   P1    S    
C46   H29   S    
C22   H33   S    
C45   H22   S    
C23   O7    S    
Ba1   O4    S    
C8    H27   S    
C26   I2    S    
C27   C29   A    
C2    P1    S    
O28   S4    D    
C43   H20   S    
C39   H51   S    
C39   H52   S    
O11   P6    D    
C30   C35   A    
C18   C19   A    
C1    C12   S    
C8    C10   A    
Ba1   O1    S    
O2    P5    D    
O30   S4    S    
C44   O9    S    
C38   C39   S    
C12   H6    S    
C12   O14   S    
C11   C13   A    
Ba2   O36   S    
Ba1   P2    S    
C40   C41   S    
C34   H13   S    
C26   C27   A    
C40   H53   S    
O20   S1    S    
C25   C26   A    
O19   S1    D    
C4    H25   S    
C16   H15   S    
C2    C46   A    
C1    H14   S    
Ba2   O35   S    
C44   C45   S    
O12   P2    S    
O14   P6    S    
C14   S4    S    
C32   C36   A    
C16   H41   S    
C42   C43   S    
C45   H26   S    
C2    C3    A    
O6    P7    D    
H48   O27   S    
C21   P3    S    
H50   O33   S    
C31   C36   A    
C36   H39   S    
Ba2   O34   S    
C30   C31   A    
C3    H28   S    
O3    P5    S    
C22   C29   A    
O38   P7    S    
Ba1   O38   S    
Ba1   O5    S    
C10   N2    S    
C9    C11   A    
C41   H3    S    
C25   C35   S    
C37   H12   S    
C33   H31   S    
O26   S3    D    
C28   C37   S    
C20   H38   S    
O36   P8    S    
C6    S3    S    
C24   H32   S    
C45   H24   S    
C13   P8    S    
Ba1   O35   S    
C8    C9    A    
C23   C34   S    
O37   P4    S    
C38   O13   S    
O17   P3    D    
C7    C46   A    
C7    P6    S    
C18   H35   S    
C43   H18   S    
O5    P2    S    
C37   H23   S    
C20   C21   A    
H49   O30   S    
O4    P1    S    
O34   P4    D    
O10   P6    S    
