data_mof_unit_34579.cif
_audit_creation_date              2012-12-10T17:48:20-0500
_audit_creation_method            fapswitch 2.2
_symmetry_space_group_name_H-M    P1
_symmetry_Int_Tables_number       1
_space_group_crystal_system       triclinic
_cell_length_a                    13.911945
_cell_length_b                    14.794278
_cell_length_c                    14.76475
_cell_angle_alpha                 115.247426
_cell_angle_beta                  107.434545
_cell_angle_gamma                 72.270394
_cell_volume                      2566.69823506

loop_
_atom_site_label
_atom_site_type_symbol
_atom_type_description
_atom_site_fract_x
_atom_site_fract_y
_atom_site_fract_z
_atom_type_partial_charge
C1    C     C_R   0.512744 0.118487 0.688113 0.797568
C2    C     C_R   0.487120 0.881371 0.311669 0.807933
C3    C     C_R   0.488914 0.361390 0.921130 0.092313
C4    C     C_R   0.472105 0.641840 0.073700 0.085068
C5    C     C_R   0.495523 0.324078 0.997455 -0.017208
C6    C     C_R   0.454238 0.680162 0.995293 -0.014905
C7    C     C_R   0.472383 0.468413 0.945184 0.073570
C8    C     C_R   0.476152 0.536298 0.048105 0.072631
C9    C     C_R   0.480986 0.497068 0.121930 -0.229739
C10   C     C_R   0.449061 0.509524 0.868682 -0.252474
C11   C     C_R   0.488780 0.393412 0.098002 -0.002404
C12   C     C_R   0.440759 0.613161 0.891977 0.004065
C13   C     C_R   0.300835 0.316325 0.355990 -0.183298
C14   C     C_R   0.681345 0.697044 0.666745 -0.151927
C15   C     C_R   0.341689 0.223405 0.372228 0.024012
C16   C     C_R   0.650474 0.782567 0.637942 0.004328
C17   C     C_R   0.491075 0.284286 0.483334 0.523267
C18   C     C_R   0.511540 0.714285 0.511305 0.573069
C19   C     C_R   0.450201 0.382827 0.475346 -0.081221
C20   C     C_R   0.531640 0.631281 0.545865 -0.177223
C21   C     C_R   0.352723 0.398672 0.411336 -0.029158
C22   C     C_R   0.618396 0.623972 0.625352 -0.001238
C23   C     C_R   0.686855 0.986607 0.504093 0.797026
C24   C     C_R   0.313215 0.013590 0.496307 0.809537
C25   C     C_R   0.503086 0.466510 0.529606 0.113603
C26   C     C_R   0.468787 0.555909 0.505155 0.058124
C27   C     C_R   0.367480 0.572758 0.451571 -0.287024
C28   C     C_R   0.580853 0.469417 0.616221 -0.230663
C29   C     C_R   0.308563 0.497214 0.406582 0.479151
C30   C     C_R   0.636916 0.547041 0.665435 0.470879
C31   C     C_1   0.208654 0.024246 0.498599 -0.051361
C32   C     C_1   0.792356 0.979102 0.507730 -0.045213
C33   C     C_2   0.016690 0.044052 0.509155 -0.119899
C34   C     C_2   0.988066 0.967593 0.516734 -0.112455
C35   C     C_1   0.881334 0.973431 0.511610 0.065671
C36   C     C_1   0.121144 0.033342 0.502626 0.070290
C37   C     C_R   0.509261 0.185726 0.795820 -0.148131
C38   C     C_R   0.481585 0.814115 0.202411 -0.176644
C39   C     C_R   0.509766 0.218079 0.971258 -0.126206
C40   C     C_R   0.449354 0.784896 0.022425 -0.123078
C41   C     C_R   0.509701 0.150025 0.870864 0.431488
C42   C     C_R   0.468228 0.850337 0.124096 0.439364
C43   C     C_R   0.502548 0.290035 0.823220 -0.274415
C44   C     C_R   0.486963 0.710236 0.176013 -0.257738
Cu1   Cu    Cu3+1 0.526370 0.916390 0.524860 1.029507
Cu2   Cu    Cu3+1 0.473630 0.083610 0.475140 0.997511
H1    H     H_    0.329787 0.647721 0.450247 0.177595
H2    H     H_    0.592569 0.417101 0.653440 0.150059
H3    H     H_    0.505717 0.683957 0.237816 0.189597
H4    H     H_    0.510629 0.313897 0.766894 0.160352
H5    H     H_    0.518274 0.186180 0.027404 0.211186
H6    H     H_    0.433338 0.817822 0.965546 0.214178
H7    H     H_    0.472743 0.546181 0.198855 0.149893
H8    H     H_    0.434744 0.462396 0.788647 0.161584
N1    N     N_R   0.433980 0.209250 0.437830 -0.250291
N2    N     N_R   0.566020 0.790750 0.562170 -0.228774
O1    O     O_R   0.534760 0.019630 0.662610 -0.558687
O2    O     O_R   0.465240 0.980370 0.337390 -0.561196
O3    O     O_R   0.490220 0.160840 0.620610 -0.616862
O4    O     O_R   0.509780 0.839160 0.379390 -0.535496
O5    O     O_R   0.663260 0.919400 0.523940 -0.571036
O6    O     O_R   0.336740 0.080600 0.476060 -0.567711
O7    O     O_R   0.618720 0.060610 0.481950 -0.555353
O8    O     O_R   0.381280 0.939390 0.518050 -0.535704
C45   C     C_2   0.061578 0.873002 0.526724 0.881289
O9    O     O_2   0.028740 0.796764 0.504650 -0.542214
O10   O     O_R   0.166969 0.871041 0.563944 -0.756360
H9    H     H_    0.207435 0.802438 0.567387 0.342687
C46   C     C_2   0.944079 0.140794 0.504348 0.894771
O11   O     O_2   0.964938 0.191115 0.467795 -0.526378
O12   O     O_R   0.854281 0.176632 0.544104 -0.741774
H10   H     H_    0.812888 0.243437 0.536670 0.370759
C47   C     C_2   0.207071 0.322993 0.275670 0.992451
O13   O     O_2   0.213035 0.330225 0.198150 -0.524703
O14   O     O_R   0.112484 0.321479 0.289294 -0.679918
H11   H     H_    0.054583 0.326500 0.229471 0.349720
C48   C     C_2   0.783271 0.681948 0.735013 1.001338
O15   O     O_2   0.801940 0.746182 0.820569 -0.536768
O16   O     O_R   0.857374 0.593620 0.700673 -0.695821
H12   H     H_    0.923387 0.591578 0.753580 0.352359
C49   C     C_2   0.488809 0.361587 0.181026 0.839125
O17   O     O_2   0.538815 0.398584 0.266671 -0.589159
O18   O     O_R   0.428889 0.292722 0.162756 -0.718489
H13   H     H_    0.438385 0.274966 0.224431 0.345215
C50   C     C_2   0.419752 0.646998 0.805108 0.820471
O19   O     O_2   0.353136 0.616835 0.730273 -0.575587
O20   O     O_R   0.478653 0.709219 0.806398 -0.742555
H14   H     H_    0.455206 0.728176 0.743675 0.337929
O21   O     O_3   0.476259 0.947535 0.142820 -0.647806
H15   H     H_    0.532675 0.966390 0.202570 0.339220
O22   O     O_3   0.509379 0.050054 0.849814 -0.650849
H16   H     H_    0.456592 0.028118 0.787252 0.336294
O23   O     O_3   0.206340 0.520495 0.361400 -0.682519
H17   H     H_    0.188112 0.591785 0.364308 0.343108
O24   O     O_3   0.705397 0.552030 0.756672 -0.690303
H18   H     H_    0.709393 0.492838 0.773722 0.330703
O25   O     O_3   0.442550 0.717200 0.423290 -0.710153
H19   H     H_    0.450448 0.646684 0.371861 0.305320
O26   O     O_3   0.592234 0.260960 0.528196 -0.718730
H20   H     H_    0.592874 0.236788 0.581206 0.345839
C51   C     C_2   0.716434 0.859029 0.686258 0.944488
O27   O     O_2   0.698437 0.933255 0.762932 -0.523159
O28   O     O_R   0.806785 0.838924 0.651710 -0.735774
H21   H     H_    0.848098 0.894479 0.693074 0.337048
C52   C     C_2   0.284462 0.139989 0.312149 0.928363
O29   O     O_2   0.309529 0.074125 0.233531 -0.544774
O30   O     O_R   0.194295 0.144021 0.338502 -0.700540
H22   H     H_    0.159764 0.084831 0.289600 0.336151

loop_
_geom_bond_atom_site_label_1
_geom_bond_atom_site_label_2
_ccdc_geom_bond_type
C44   H3    S    
C7    C10   A    
C39   H5    S    
O20   H14   S    
Cu1   O4    S    
O23   H17   S    
Cu2   O3    S    
C27   C29   A    
C47   O13   D    
O24   H18   S    
C4    C8    A    
O25   H19   S    
C7    C8    A    
C39   C41   A    
C48   O15   D    
C11   C49   S    
C25   C28   A    
C52   O30   S    
Cu1   O1    S    
C26   C27   A    
C51   O27   D    
C12   C50   S    
Cu2   O6    S    
C19   C21   A    
C5    C11   A    
C3    C7    A    
C1    O3    A    
C6    C12   A    
C2    O4    A    
C23   O7    A    
C33   C36   S    
C34   C35   S    
C14   C48   S    
C46   O12   S    
O18   H13   S    
Cu1   N2    S    
C8    C9    A    
C45   O10   S    
Cu2   N1    S    
O30   H22   S    
C18   O25   S    
C17   N1    A    
C18   C20   A    
C33   C46   S    
C40   C42   A    
C51   O28   S    
Cu2   O2    S    
C47   O14   S    
C19   C25   A    
C34   C45   S    
C49   O18   S    
C49   O17   D    
C48   O16   S    
C50   O20   S    
O10   H9    S    
C32   C35   T    
C4    C6    A    
O22   H16   S    
C4    C44   A    
C25   C26   A    
C50   O19   D    
C21   C29   A    
C15   N1    A    
C37   C43   A    
O14   H11   S    
C16   N2    A    
C38   C44   A    
C30   O24   S    
C1    O1    A    
C17   O26   S    
C2    C38   S    
O26   H20   S    
C23   O5    A    
C3    C43   A    
C33   C34   D    
C13   C21   A    
C9    C11   A    
C10   C12   A    
C41   O22   S    
C13   C47   S    
C13   C15   A    
C14   C16   A    
C9    H7    S    
C27   H1    S    
C28   H2    S    
C24   O6    A    
C22   C30   A    
C20   C22   A    
C3    C5    A    
C2    O2    A    
C43   H4    S    
C38   C42   A    
C18   N2    A    
C52   O29   D    
Cu1   O8    S    
Cu2   O7    S    
C42   O21   S    
C23   C32   S    
C15   C52   S    
C5    C39   A    
C24   C31   S    
C28   C30   A    
C40   H6    S    
C29   O23   S    
C14   C22   A    
C20   C26   A    
Cu1   O5    S    
C17   C19   A    
C6    C40   A    
C37   C41   A    
C46   O11   D    
C10   H8    S    
O16   H12   S    
Cu1   Cu2   S    
C16   C51   S    
O12   H10   S    
C24   O8    A    
C45   O9    D    
O28   H21   S    
C31   C36   T    
O21   H15   S    
C1    C37   S    
