data_mof_unit_31575.cif
_audit_creation_date              2013-03-05T15:55:43-0500
_audit_creation_method            fapswitch 2.2
_symmetry_space_group_name_H-M    P1
_symmetry_Int_Tables_number       1
_space_group_crystal_system       triclinic
_cell_length_a                    6.930335
_cell_length_b                    17.622575
_cell_length_c                    19.413911
_cell_angle_alpha                 108.466936
_cell_angle_beta                  89.617099
_cell_angle_gamma                 90.511943
_cell_volume                      2248.82712407

loop_
_atom_site_label
_atom_site_type_symbol
_atom_site_description
_atom_site_fract_x
_atom_site_fract_y
_atom_site_fract_z
_atom_type_partial_charge
O1    O     O_R   0.494330 0.415710 0.413720 -0.610452
O2    O     O_R   0.819360 0.430070 0.560210 -0.582347
O3    O     O_R   0.994320 0.584290 0.586280 -0.562314
C1    C     C_R   0.650232 0.414586 0.581568 1.030817
O4    O     O_R   0.823740 0.406290 0.412670 -0.607157
O5    O     O_R   0.998730 0.560340 0.437690 -0.613813
C2    C     C_R   0.654736 0.383079 0.384695 0.903135
O6    O     O_R   0.489920 0.439660 0.562310 -0.604299
O7    O     O_3   0.662330 0.550570 0.508380 -0.245940
V1    V     V_3+5 0.935370 0.490620 0.498440 1.224116
O8    O     O_R   0.328720 0.569930 0.439790 -0.585537
C3    C     C_R   0.160571 0.585306 0.418378 0.958730
O9    O     O_R   0.324340 0.593710 0.587330 -0.553954
C4    C     C_R   0.155138 0.617072 0.615288 1.079767
V2    V     V_3+5 0.435940 0.509380 0.501560 1.245010
O10   O     O_3   0.159110 0.449430 0.491620 -0.290961
C5    C     C_R   0.283270 0.748900 0.700416 0.409436
C6    C     C_R   0.273376 0.811353 0.766786 -0.205752
C7    C     C_R   0.120792 0.816094 0.815692 -0.232750
C8    C     C_R   0.978971 0.756215 0.798512 -0.204004
H1    H     H_    0.862426 0.758500 0.836597 0.163756
C9    C     C_R   0.991490 0.690382 0.734927 0.425186
C10   C     C_R   0.143649 0.686093 0.684147 -0.470530
C11   C     C_R   0.302028 0.631638 0.319113 -0.243186
C12   C     C_R   0.152687 0.635031 0.369407 -0.140528
C13   C     C_R   0.994607 0.685440 0.372077 -0.169767
C14   C     C_R   0.985742 0.732494 0.325655 0.085081
C15   C     C_R   0.132914 0.727133 0.274012 0.044217
C16   C     C_R   0.291797 0.676321 0.270744 0.180240
C17   C     C_R   0.832844 0.785410 0.330801 -0.287937
C18   C     C_R   0.822098 0.833252 0.285103 0.337189
C19   C     C_R   0.966897 0.826428 0.231120 -0.030079
C20   C     C_R   0.122364 0.772962 0.226014 0.006165
C21   C     C_R   0.270306 0.766313 0.173873 0.225525
C22   C     C_R   0.426329 0.715013 0.170743 -0.179512
C23   C     C_R   0.437711 0.670933 0.219062 -0.237926
C24   C     C_R   0.965537 0.873090 0.183772 -0.143005
C25   C     C_R   0.110741 0.865678 0.131181 -0.181705
C26   C     C_R   0.262730 0.812297 0.126690 -0.152468
H2    H     H_    0.424129 0.592752 0.316494 0.127633
H3    H     H_    0.720481 0.789844 0.370986 0.193496
H4    H     H_    0.855900 0.917439 0.188139 0.182522
H5    H     H_    0.375972 0.806905 0.086635 0.127513
H6    H     H_    0.541484 0.709918 0.131528 0.131457
H7    H     H_    0.560914 0.632537 0.215969 0.134720
C27   C     C_R   0.783498 0.180390 0.865076 -0.256247
C28   C     C_R   0.622321 0.132165 0.867074 -0.150289
C29   C     C_R   0.466812 0.129101 0.819935 -0.186062
C30   C     C_R   0.471526 0.173222 0.771080 0.084444
C31   C     C_R   0.631047 0.222977 0.770578 0.054617
C32   C     C_R   0.787720 0.226612 0.817891 0.184257
C33   C     C_R   0.321242 0.166631 0.721557 -0.296185
C34   C     C_R   0.325568 0.209479 0.671461 0.330323
C35   C     C_R   0.479159 0.264359 0.674233 -0.023947
C36   C     C_R   0.634427 0.268992 0.722715 0.033040
C37   C     C_R   0.794936 0.319012 0.722951 0.195842
C38   C     C_R   0.949434 0.322344 0.770264 -0.183098
C39   C     C_R   0.945973 0.276466 0.817225 -0.220963
C40   C     C_R   0.481746 0.315335 0.630731 -0.160234
C41   C     C_R   0.642654 0.364309 0.630137 -0.180586
C42   C     C_R   0.800220 0.364162 0.675254 -0.127171
H8    H     H_    0.903903 0.183092 0.901178 0.136701
H9    H     H_    0.343269 0.091017 0.820299 0.136354
H10   H     H_    0.202546 0.125740 0.720281 0.191342
H11   H     H_    0.360038 0.317300 0.596821 0.173588
H12   H     H_    0.926674 0.400327 0.674187 0.165028
H13   H     H_    0.073935 0.360107 0.770579 0.132334
H14   H     H_    0.067565 0.279818 0.852905 0.135395
C43   C     C_R   0.811565 0.276147 0.281718 -0.122641
H15   H     H_    0.952269 0.295280 0.304999 0.122866
C44   C     C_R   0.800489 0.212358 0.216762 -0.123842
H16   H     H_    0.933183 0.184209 0.192137 0.125002
C45   C     C_R   0.620985 0.185279 0.184189 -0.126839
C46   C     C_R   0.452847 0.223729 0.218490 -0.123904
C47   C     C_R   0.463923 0.287522 0.283452 -0.121673
H17   H     H_    0.331237 0.315667 0.308090 0.121725
C48   C     C_R   0.643446 0.314642 0.315990 -0.116256
O11   O     O_R   0.774940 0.060470 0.937800 -0.593659
O12   O     O_R   0.440880 0.093730 0.087350 -0.598674
O13   O     O_R   0.266130 0.939630 0.062280 -0.581000
C49   C     C_R   0.609809 0.116932 0.115413 0.934382
O14   O     O_R   0.445480 0.069960 0.939820 -0.606472
O15   O     O_R   0.270770 0.915690 0.913690 -0.598418
C50   C     C_R   0.614508 0.084555 0.917777 0.953644
O16   O     O_R   0.770300 0.084410 0.086380 -0.600664
O17   O     O_3   0.602600 0.949510 0.991670 -0.266730
V3    V     V_3+5 0.329470 0.009370 0.001550 1.167388
O18   O     O_R   0.940760 0.906160 0.912560 -0.594645
C51   C     C_R   0.109877 0.883641 0.884499 0.980561
O19   O     O_R   0.936150 0.929930 0.060100 -0.598882
C52   C     C_R   0.104176 0.914933 0.081802 0.952431
V4    V     V_3+5 0.828930 0.990450 0.998310 1.174322
O20   O     O_3   0.105670 0.050490 0.008320 -0.285138
N1    N     N_R   0.430284 0.752729 0.649022 0.249798
O21   O     O_R   0.602163 0.778982 0.671598 -0.378330
O22   O     O_R   0.383898 0.744425 0.582164 -0.393341
N2    N     N_R   0.179582 0.192751 0.616036 0.238558
O23   O     O_R   0.227831 0.184395 0.549156 -0.359780
O24   O     O_R   0.009261 0.168176 0.628537 -0.380987
H18   H     H_    0.381056 0.858662 0.778750 0.164076
H19   H     H_    0.312150 0.204583 0.195209 0.119559
N3    N     N_R   0.854516 0.626340 0.725186 0.239530
O25   O     O_R   0.673691 0.642114 0.741537 -0.397233
O26   O     O_R   0.915649 0.553916 0.714191 -0.458732
H20   H     H_    0.879974 0.689088 0.411267 0.154066
N4    N     N_R   0.666165 0.889403 0.296367 0.241335
O27   O     O_R   0.566869 0.895682 0.241898 -0.430191
O28   O     O_R   0.603920 0.925430 0.361901 -0.329486

loop_
_geom_bond_atom_site_label_1
_geom_bond_atom_site_label_2
_geom_bond_distance
_ccdc_geom_bond_type
O15   V3    2.003419 S    
C36   C37   1.412234 A    
C45   C46   1.406514 A    
C43   C48   1.406495 A    
C7    C8    1.397724 A    
C1    O6    1.299376 A    
O12   V3    2.002184 S    
N2    O23   1.301268 A    
C38   C39   1.397043 A    
C34   C35   1.421504 A    
C16   C23   1.402180 A    
C13   C14   1.406656 A    
C5    C10   1.422871 A    
C27   H8    1.084333 S    
C15   C16   1.413853 A    
C21   C22   1.404266 A    
O13   V3    1.998647 S    
O5    C3    1.296996 A    
C17   C18   1.406863 A    
N4    O27   1.299710 A    
O14   V3    2.001283 S    
C37   C38   1.404077 A    
C6    C7    1.401630 A    
C24   H4    1.078465 S    
C43   C44   1.400530 A    
C11   C16   1.406126 A    
N3    O25   1.301346 A    
C35   C36   1.419062 A    
O8    V2    1.991367 S    
C42   H12   1.082948 S    
O18   V4    2.003801 S    
C17   H3    1.084200 S    
O1    V2    2.004015 S    
O7    V1    2.153069 S    
C2    C48   1.490080 S    
C40   C41   1.406224 A    
O9    C4    1.302963 A    
C14   C17   1.399866 A    
C43   H15   1.082731 S    
C6    H18   1.083715 S    
C38   H13   1.083797 S    
C13   H20   1.084428 S    
C45   C49   1.490088 S    
N2    O24   1.301298 A    
O16   V4    2.009824 S    
C31   C32   1.414772 A    
C35   C40   1.414466 A    
O15   C51   1.295331 A    
C46   C47   1.400639 A    
C21   C26   1.403616 A    
C11   C12   1.406678 A    
C33   H10   1.083939 S    
O12   C49   1.301337 A    
O17   V3    2.152957 S    
C29   H9    1.084530 S    
C26   H5    1.084449 S    
O11   V4    1.993749 S    
C12   C13   1.406952 A    
C28   C50   1.482402 S    
C25   C52   1.484218 S    
C41   C42   1.404956 A    
C22   C23   1.397611 A    
C4    C10   1.497699 S    
N1    O22   1.301506 A    
C47   H17   1.082754 S    
C24   C25   1.405812 A    
C7    C51   1.483242 S    
O19   V4    1.991282 S    
C28   C29   1.408107 A    
C30   C33   1.401087 A    
C1    C41   1.484799 S    
C5    C6    1.406403 A    
C23   H7    1.083683 S    
C37   C42   1.399151 A    
C32   C39   1.401664 A    
C19   C24   1.414332 A    
O18   C51   1.300289 A    
N3    O26   1.299948 A    
C22   H6    1.083703 S    
C47   C48   1.408544 A    
O3    C4    1.297623 A    
C46   H19   1.082728 S    
C39   H14   1.083701 S    
C29   C30   1.404112 A    
C8    C9    1.403710 A    
C15   C20   1.415858 A    
O6    V2    1.993139 S    
O14   C50   1.295823 A    
O9    V2    2.003752 S    
C18   N4    1.440027 S    
O2    V1    2.001373 S    
C33   C34   1.407617 A    
O4    C2    1.301276 A    
C27   C28   1.405267 A    
O1    C2    1.296830 A    
C18   C19   1.424114 A    
O5    V1    1.998697 S    
O8    C3    1.299108 A    
C31   C36   1.413594 A    
C9    N3    1.434802 S    
C3    C12   1.484609 S    
C34   N2    1.441030 S    
C19   C20   1.419859 A    
O13   C52   1.297269 A    
O7    V2    1.711021 S    
C44   H16   1.082755 S    
O3    V1    2.003443 S    
V1    O10   1.704478 S    
C40   H11   1.080932 S    
O19   C52   1.298445 A    
C25   C26   1.402357 A    
N4    O28   1.301423 A    
O2    C1    1.296033 A    
V3    O20   1.704416 S    
V4    O20   2.161958 S    
C11   H2    1.084409 S    
C20   C21   1.415183 A    
C27   C32   1.405506 A    
N1    O21   1.301425 A    
O11   C50   1.298531 A    
O4    V1    2.002172 S    
C8    H1    1.083705 S    
C30   C31   1.406784 A    
C44   C45   1.408530 A    
C14   C15   1.408001 A    
C9    C10   1.424741 A    
O17   V4    1.709099 S    
C5    N1    1.437352 S    
C49   O16   1.296779 A    
V2    O10   2.161871 S    
