data_mof_unit_9830.cif
_audit_creation_date              2012-10-26T17:10:23-0400
_audit_creation_method            fapswitch 2.2
_symmetry_space_group_name_H-M    P1
_symmetry_Int_Tables_number       1
_space_group_crystal_system       triclinic
_cell_length_a                    16.812578
_cell_length_b                    16.864317
_cell_length_c                    16.864558
_cell_angle_alpha                 67.017014
_cell_angle_beta                  67.755722
_cell_angle_gamma                 67.757137
_cell_volume                      3922.27477009

loop_
_atom_site_label
_atom_site_type_symbol
_atom_type_description
_atom_site_fract_x
_atom_site_fract_y
_atom_site_fract_z
_atom_type_partial_charge
C1    C     C_R   0.603216 0.000208 0.603566 0.118462
C2    C     C_R   0.409545 0.954355 0.409578 0.126563
C3    C     C_R   0.012615 0.602708 0.598945 0.149619
C4    C     C_R   0.987330 0.401080 0.397304 0.149626
C5    C     C_R   0.590446 0.590396 0.045712 0.126431
C6    C     C_R   0.396755 0.396409 0.999873 0.118540
C7    C     C_R   0.030956 0.828734 0.564053 0.826232
C8    C     C_R   0.977624 0.170160 0.432181 0.816379
C9    C     C_R   0.830691 0.568110 0.018524 0.809400
C10   C     C_R   0.170901 0.434372 0.974354 0.829735
C11   C     C_R   0.566340 0.024455 0.829152 0.826108
C12   C     C_R   0.432119 0.980405 0.169604 0.814954
C13   C     C_R   0.433656 0.170846 0.975557 0.826118
C14   C     C_R   0.567880 0.830394 0.019596 0.814916
C15   C     C_R   0.969042 0.435947 0.171265 0.826218
C16   C     C_R   0.022373 0.567820 0.829841 0.816420
C17   C     C_R   0.169306 0.981490 0.431885 0.809467
C18   C     C_R   0.829099 0.025649 0.565628 0.829680
C19   C     C_R   0.553954 0.986549 0.554825 -0.080021
C20   C     C_R   0.460194 0.963897 0.459724 -0.079840
C21   C     C_R   0.002385 0.549915 0.550276 -0.018907
C22   C     C_R   0.997524 0.449762 0.450107 -0.018912
C23   C     C_R   0.539808 0.540239 0.036166 -0.079887
C24   C     C_R   0.446020 0.445141 0.013542 -0.080035
C25   C     C_R   0.501229 0.062230 0.504431 -0.078136
C26   C     C_R   0.514588 0.888136 0.508158 -0.077175
C27   C     C_R   0.011368 0.456033 0.586609 -0.081851
C28   C     C_R   0.012537 0.535987 0.408841 -0.090940
C29   C     C_R   0.547536 0.540928 0.949251 -0.079971
C30   C     C_R   0.439914 0.442391 0.100792 -0.080894
C31   C     C_R   0.452624 0.050833 0.458857 -0.080106
C32   C     C_R   0.559913 0.899293 0.557734 -0.080922
C33   C     C_R   0.498910 0.495370 0.937862 -0.078161
C34   C     C_R   0.485250 0.491983 0.111912 -0.076934
C35   C     C_R   0.988507 0.413432 0.543994 -0.081936
C36   C     C_R   0.987373 0.591190 0.464052 -0.090953
C37   C     C_R   0.563339 0.004864 0.691522 -0.130198
C38   C     C_R   0.447832 0.955392 0.319665 -0.145113
C39   C     C_R   0.037911 0.683030 0.552994 -0.135033
C40   C     C_R   0.003309 0.307599 0.425852 -0.194088
C41   C     C_R   0.681334 0.552747 0.040934 -0.152774
C42   C     C_R   0.310640 0.438918 0.989325 -0.144325
C43   C     C_R   0.318652 0.959151 0.447230 -0.152596
C44   C     C_R   0.689348 0.010714 0.561073 -0.144476
C45   C     C_R   0.436627 0.308451 0.995219 -0.130117
C46   C     C_R   0.552162 0.680321 0.044631 -0.145241
C47   C     C_R   0.962055 0.447020 0.316972 -0.135052
C48   C     C_R   0.996647 0.574164 0.692423 -0.194110
C49   C     C_R   0.604905 0.029689 0.733494 -0.104546
C50   C     C_R   0.392973 0.976004 0.264520 -0.097731
C51   C     C_R   0.046603 0.730906 0.599933 -0.128382
C52   C     C_R   0.972161 0.265527 0.390822 -0.108051
C53   C     C_R   0.735868 0.607392 0.022105 -0.122485
C54   C     C_R   0.267091 0.396598 0.967468 -0.118262
C55   C     C_R   0.264123 0.977935 0.392596 -0.122530
C56   C     C_R   0.732905 0.032550 0.603399 -0.118246
C57   C     C_R   0.395082 0.266497 0.970349 -0.104546
C58   C     C_R   0.607022 0.735472 0.024008 -0.097680
C59   C     C_R   0.953386 0.400070 0.269093 -0.128391
C60   C     C_R   0.027823 0.609183 0.734479 -0.108048
C61   C     C_R   0.685786 0.052861 0.685076 0.127134
C62   C     C_R   0.299930 0.998818 0.299523 0.114548
C63   C     C_R   0.058362 0.686164 0.685722 0.132592
C64   C     C_R   0.941633 0.314276 0.313835 0.132599
C65   C     C_R   0.700064 0.700467 0.001199 0.114669
C66   C     C_R   0.314213 0.314922 0.947157 0.127083
Cu1   Cu    Cu3+1 0.995180 0.995180 0.424630 1.058961
Cu2   Cu    Cu3+1 0.004820 0.004820 0.575370 1.078459
Cu3   Cu    Cu3+1 0.995180 0.424630 0.995180 1.078470
Cu4   Cu    Cu3+1 0.004820 0.575370 0.004820 1.058935
Cu5   Cu    Cu3+1 0.424630 0.995180 0.995180 1.060029
Cu6   Cu    Cu3+1 0.575370 0.004820 0.004820 1.060046
H1    H     H_    0.499131 0.990615 0.726278 0.175391
H2    H     H_    0.519074 0.947055 0.291513 0.167053
H3    H     H_    0.046621 0.711197 0.481656 0.164276
H4    H     H_    0.037357 0.267204 0.477345 0.172107
H5    H     H_    0.710031 0.481970 0.046959 0.182338
H6    H     H_    0.277471 0.504506 0.999617 0.176397
H7    H     H_    0.289953 0.953154 0.518002 0.182354
H8    H     H_    0.722519 0.000415 0.495488 0.176383
H9    H     H_    0.500822 0.273686 0.009492 0.175458
H10   H     H_    0.480922 0.708473 0.052954 0.167034
H11   H     H_    0.953340 0.518358 0.288803 0.164257
H12   H     H_    0.962581 0.522686 0.732831 0.172123
O1    O     O_R   0.124540 0.978640 0.385460 -0.557337
O2    O     O_R   0.875460 0.021360 0.614540 -0.547472
O3    O     O_R   0.978640 0.385460 0.124540 -0.549215
O4    O     O_R   0.021360 0.614540 0.875460 -0.551175
O5    O     O_R   0.385460 0.124540 0.978640 -0.545249
O6    O     O_R   0.614540 0.875460 0.021360 -0.556235
O7    O     O_R   0.614540 0.021360 0.875460 -0.545231
O8    O     O_R   0.385460 0.978640 0.124540 -0.556223
O9    O     O_R   0.875460 0.614540 0.021360 -0.557361
O10   O     O_R   0.124540 0.385460 0.978640 -0.547475
O11   O     O_R   0.021360 0.875460 0.614540 -0.549206
O12   O     O_R   0.978640 0.124540 0.385460 -0.551173
O13   O     O_R   0.013780 0.867370 0.487190 -0.582496
O14   O     O_R   0.986220 0.132630 0.512810 -0.576079
O15   O     O_R   0.867370 0.487190 0.013780 -0.586124
O16   O     O_R   0.132630 0.512810 0.986220 -0.584346
O17   O     O_R   0.487190 0.013780 0.867370 -0.583406
O18   O     O_R   0.512810 0.986220 0.132630 -0.587510
O19   O     O_R   0.512810 0.132630 0.986220 -0.583375
O20   O     O_R   0.487190 0.867370 0.013780 -0.587503
O21   O     O_R   0.986220 0.512810 0.132630 -0.582501
O22   O     O_R   0.013780 0.487190 0.867370 -0.576075
O23   O     O_R   0.132630 0.986220 0.512810 -0.586144
O24   O     O_R   0.867370 0.013780 0.487190 -0.584346
C67   C     C_2   0.611217 0.819727 0.614998 0.897800
O25   O     O_2   0.579201 0.757050 0.663113 -0.517307
O26   O     O_R   0.695957 0.816396 0.613843 -0.763586
H13   H     H_    0.725153 0.757991 0.653486 0.352345
C68   C     C_2   0.391088 0.130143 0.412322 0.922417
O27   O     O_2   0.336566 0.184530 0.451488 -0.546953
O28   O     O_R   0.395147 0.142096 0.324223 -0.739249
H14   H     H_    0.346591 0.195113 0.301941 0.340717
C69   C     C_2   0.928973 0.684401 0.439011 0.882651
O29   O     O_2   0.920349 0.719916 0.363086 -0.537493
O30   O     O_R   0.878115 0.729331 0.504000 -0.747279
H15   H     H_    0.841792 0.791873 0.478427 0.362481
C70   C     C_2   0.947407 0.338276 0.599158 0.878200
O31   O     O_2   0.988291 0.269160 0.643663 -0.539344
O32   O     O_R   0.862406 0.345986 0.597101 -0.717574
H16   H     H_    0.841731 0.290210 0.635688 0.359436
C71   C     C_2   0.473840 0.495831 0.202398 0.911094
O33   O     O_2   0.399078 0.511367 0.253374 -0.549222
O34   O     O_R   0.548422 0.482123 0.229087 -0.736102
H17   H     H_    0.531890 0.486738 0.291816 0.351871
C72   C     C_2   0.500818 0.503098 0.846097 0.910277
O35   O     O_2   0.485692 0.576933 0.792009 -0.525084
O36   O     O_R   0.520329 0.426253 0.821508 -0.736964
H18   H     H_    0.519205 0.440452 0.757661 0.354392
C73   C     C_2   0.525872 0.797596 0.504498 0.910953
O37   O     O_2   0.600553 0.746358 0.489474 -0.548977
O38   O     O_R   0.451266 0.771152 0.517796 -0.736429
H19   H     H_    0.467701 0.708372 0.513348 0.351904
C74   C     C_2   0.499460 0.153989 0.496574 0.910255
O39   O     O_2   0.514680 0.207984 0.422692 -0.525136
O40   O     O_R   0.479990 0.178675 0.573351 -0.736913
H20   H     H_    0.481224 0.242501 0.559067 0.354373
C75   C     C_2   0.388483 0.385259 0.180401 0.897336
O41   O     O_2   0.420268 0.337447 0.243292 -0.517270
O42   O     O_R   0.303898 0.386169 0.183537 -0.763813
H21   H     H_    0.274622 0.346616 0.241968 0.352439
C76   C     C_2   0.609250 0.587268 0.869964 0.922416
O43   O     O_2   0.663752 0.547967 0.815680 -0.547130
O44   O     O_R   0.605393 0.675331 0.857922 -0.739003
H22   H     H_    0.654081 0.697449 0.804966 0.340574
C77   C     C_2   0.070941 0.561040 0.315633 0.882672
O45   O     O_2   0.079543 0.636974 0.280120 -0.537438
O46   O     O_R   0.121827 0.496053 0.270704 -0.747329
H23   H     H_    0.158155 0.521635 0.208167 0.362446
C78   C     C_2   0.052434 0.400854 0.661783 0.878128
O47   O     O_2   0.011510 0.356384 0.730898 -0.539309
O48   O     O_R   0.137452 0.402854 0.654089 -0.717580
H24   H     H_    0.158101 0.364263 0.709877 0.359428
I1    I     I_    0.726490 0.135343 0.724565 -0.241828
I2    I     I_    0.215580 0.091829 0.213390 -0.265738
I3    I     I_    0.136855 0.726844 0.730537 -0.230845
I4    I     I_    0.863157 0.269446 0.273150 -0.230783
I5    I     I_    0.784414 0.786596 0.908168 -0.265761
I6    I     I_    0.273532 0.275448 0.864649 -0.241871

loop_
_geom_bond_atom_site_label_1
_geom_bond_atom_site_label_2
_ccdc_geom_bond_type
C25   C31   A    
C39   C51   A    
Cu5   O20   S    
C11   O7    A    
C26   C32   A    
C6    C45   A    
Cu2   O2    S    
O44   H22   S    
C8    O12   A    
C63   I3    S    
C57   C66   A    
Cu4   O4    S    
C76   O43   D    
C77   O45   D    
O32   H16   S    
C21   C36   A    
C22   C35   A    
C74   O40   S    
C45   C57   A    
C59   C64   A    
C18   O2    A    
C30   C75   S    
C20   C26   A    
C60   C63   A    
C17   O1    A    
C23   C29   A    
C15   O3    A    
C72   O35   D    
C77   O46   S    
C41   H5    S    
Cu1   O24   S    
C13   C57   S    
C10   O10   A    
C43   H7    S    
O42   H21   S    
C55   C62   A    
C29   C33   A    
C3    C48   A    
C37   C49   A    
C66   I6    S    
Cu2   O14   S    
C16   C60   S    
C8    O14   A    
C14   O6    A    
C5    C41   A    
C1    C44   A    
C67   O26   S    
C46   H10   S    
Cu5   O8    S    
O26   H13   S    
C5    C23   S    
O46   H23   S    
C62   I2    S    
Cu2   O23   S    
C39   H3    S    
C13   O19   A    
C53   C65   A    
C8    C52   S    
Cu3   O3    S    
C16   O22   A    
C35   C70   S    
C17   O23   A    
C4    C22   S    
Cu5   O17   S    
C3    C39   A    
C28   C77   S    
C9    O15   A    
C22   C28   A    
C46   C58   A    
C71   O33   D    
C10   C54   S    
C19   C32   A    
C76   O44   S    
Cu4   O16   S    
C48   C60   A    
C18   O24   A    
C14   C58   S    
C16   O4    A    
Cu1   O1    S    
Cu2   O11   S    
C49   C61   A    
C32   C67   S    
C30   C34   A    
C2    C20   S    
Cu1   Cu2   S    
C20   C31   A    
C4    C40   A    
O38   H19   S    
Cu4   O9    S    
C51   C63   A    
Cu3   O10   S    
C52   C64   A    
Cu6   O7    S    
C27   C35   A    
C40   C52   A    
C1    C19   S    
C40   H4    S    
C75   O42   S    
C25   C74   S    
C12   O18   A    
C11   C49   S    
C61   I1    S    
Cu6   O6    S    
C2    C38   A    
C58   C65   A    
C14   O20   A    
C27   C78   S    
Cu5   O5    S    
C44   H8    S    
C2    C43   A    
O30   H15   S    
C23   C34   A    
C6    C24   S    
C64   I4    S    
C11   O17   A    
C10   O16   A    
C36   C69   S    
C41   C53   A    
C70   O31   D    
C5    C46   A    
C38   C50   A    
Cu3   O15   S    
C43   C55   A    
C42   H6    S    
C47   H11   S    
Cu1   O12   S    
C50   C62   A    
C3    C21   S    
C78   O48   S    
C65   I5    S    
O36   H18   S    
C9    O9    A    
C71   O34   S    
C68   O27   D    
C38   H2    S    
C33   C72   S    
C37   H1    S    
Cu3   O22   S    
C7    O13   A    
C13   O5    A    
C15   C59   S    
C12   O8    A    
C45   H9    S    
Cu4   O21   S    
C12   C50   S    
O40   H20   S    
C54   C66   A    
Cu6   O19   S    
C18   C56   S    
C7    O11   A    
C74   O39   D    
C24   C33   A    
C15   O21   A    
C69   O30   S    
C7    C51   S    
Cu5   Cu6   S    
C26   C73   S    
C75   O41   D    
C42   C54   A    
C29   C76   S    
C44   C56   A    
O28   H14   S    
C73   O37   D    
Cu6   O18   S    
C34   C71   S    
C17   C55   S    
C21   C27   A    
Cu3   Cu4   S    
C19   C25   A    
C24   C30   A    
C70   O32   S    
Cu1   O13   S    
C47   C59   A    
C48   H12   S    
C9    C53   S    
C28   C36   A    
C6    C42   A    
C67   O25   D    
O48   H24   S    
C73   O38   S    
C56   C61   A    
C68   O28   S    
C78   O47   D    
C69   O29   D    
C31   C68   S    
O34   H17   S    
C1    C37   A    
C72   O36   S    
C4    C47   A    
