data_mof_unit_7676.cif
_audit_creation_date              2013-03-05T16:05:02-0500
_audit_creation_method            fapswitch 2.2
_symmetry_space_group_name_H-M    P1
_symmetry_Int_Tables_number       1
_space_group_crystal_system       triclinic
_cell_length_a                    9.627984
_cell_length_b                    10.786712
_cell_length_c                    13.902777
_cell_angle_alpha                 90.741139
_cell_angle_beta                  84.723296
_cell_angle_gamma                 89.556369
_cell_volume                      1437.56606712

loop_
_atom_site_label
_atom_site_type_symbol
_atom_site_description
_atom_site_fract_x
_atom_site_fract_y
_atom_site_fract_z
_atom_type_partial_charge
O1    O     O_R   0.381260 0.680340 0.500000 -0.541698
O2    O     O_R   0.618740 0.319660 0.500000 -0.541678
O3    O     O_R   0.618830 0.680370 0.500010 -0.578635
O4    O     O_R   0.381170 0.319630 0.499990 -0.578662
C1    C     C_R   0.500105 0.737243 0.497440 0.837814
C2    C     C_R   0.499895 0.262757 0.502559 0.837816
O5    O     O_R   0.364420 0.499960 0.637840 -0.538361
O6    O     O_R   0.635580 0.500040 0.362160 -0.538376
O7    O     O_R   0.601990 0.499990 0.637850 -0.562081
O8    O     O_R   0.398010 0.500010 0.362150 -0.562036
C3    C     C_R   0.477214 0.501617 0.682543 0.852909
C4    C     C_R   0.522786 0.498384 0.317457 0.852919
Cu1   Cu    Cu3+1 0.359340 0.499980 0.500000 1.062230
Cu2   Cu    Cu3+1 0.640660 0.500020 0.500000 1.062225
C5    C     C_R   0.918173 0.581800 0.557157 -0.069340
C6    C     C_R   0.081827 0.418196 0.442847 -0.069352
C7    C     C_R   0.066306 0.581823 0.556849 0.389361
C8    C     C_R   0.933695 0.418179 0.443150 0.389363
C9    C     C_1   0.536721 0.497641 0.214694 0.002461
C10   C     C_1   0.463274 0.502355 0.785304 0.002428
C11   C     C_2   0.558563 0.497722 0.024073 -0.129355
C12   C     C_2   0.441385 0.502243 0.975927 -0.129390
C13   C     C_1   0.452710 0.502357 0.871943 0.071661
C14   C     C_1   0.547265 0.497629 0.128055 0.071696
C15   C     C_R   0.585479 0.937184 0.426260 -0.016942
C16   C     C_R   0.414518 0.062816 0.573736 -0.016938
C17   C     C_R   0.583765 0.066129 0.431911 -0.171130
C18   C     C_R   0.416231 0.933871 0.568086 -0.171138
H1    H     H_    0.643065 0.118602 0.376611 0.210308
H2    H     H_    0.356927 0.881399 0.623385 0.210305
C19   C     C_R   0.500223 0.128774 0.504605 -0.100330
C20   C     C_R   0.499776 0.871226 0.495393 -0.100316
N1    N     N_R   0.147930 0.499970 0.499980 -0.281707
N2    N     N_R   0.852070 0.500030 0.500020 -0.281705
C21   C     C_2   0.837989 0.672008 0.621053 0.991570
O9    O     O_2   0.798088 0.643701 0.703775 -0.563229
O10   O     O_R   0.820187 0.793253 0.589758 -0.702562
H3    H     H_    0.766474 0.847615 0.640582 0.339035
C22   C     C_2   0.162008 0.327965 0.378970 0.991573
O11   O     O_2   0.201942 0.356251 0.296250 -0.563184
O12   O     O_R   0.179774 0.206724 0.410282 -0.702561
H4    H     H_    0.233492 0.152345 0.359472 0.339035
N3    N     N_R   0.129744 0.670556 0.615752 0.131102
O13   O     O_R   0.143599 0.644308 0.705420 -0.329452
O14   O     O_R   0.128880 0.786307 0.590819 -0.315508
N4    N     N_R   0.870256 0.329451 0.384242 0.131106
O15   O     O_R   0.856419 0.355700 0.294572 -0.329540
O16   O     O_R   0.871104 0.213699 0.409175 -0.315504
C23   C     C_2   0.296300 0.510021 0.024784 0.927473
O17   O     O_2   0.197715 0.481912 0.979525 -0.525825
O18   O     O_R   0.270614 0.552211 0.120368 -0.723746
H5    H     H_    0.167679 0.553293 0.143747 0.375938
C24   C     C_2   0.703630 0.489955 0.975202 0.927533
O19   O     O_2   0.802199 0.518356 0.020374 -0.525841
O20   O     O_R   0.729323 0.447435 0.879707 -0.723779
H6    H     H_    0.832244 0.446406 0.856296 0.375927
C25   C     C_2   0.673229 0.875824 0.345609 0.897705
O21   O     O_2   0.782493 0.923493 0.313628 -0.509550
O22   O     O_R   0.629541 0.766132 0.303843 -0.777871
H7    H     H_    0.697986 0.734671 0.249001 0.347757
C26   C     C_2   0.326763 0.124178 0.654384 0.897707
O23   O     O_2   0.217485 0.076520 0.686352 -0.509538
O24   O     O_R   0.370462 0.233860 0.696162 -0.777846
H8    H     H_    0.302011 0.265325 0.750998 0.347747

loop_
_geom_bond_atom_site_label_1
_geom_bond_atom_site_label_2
_geom_bond_distance
_ccdc_geom_bond_type
Cu2   N2    2.035479 S    
O5    C3    1.300025 A    
O20   H6    1.014094 S    
C7    N3    1.428484 S    
Cu1   N1    2.035479 S    
O10   H3    1.013869 S    
C6    N1    1.377527 A    
C17   H1    1.083026 S    
N3    O14   1.300285 A    
O12   H4    1.013872 S    
C5    N2    1.377527 A    
C16   C18   1.391984 A    
C21   O9    1.221922 D    
C10   C13   1.199452 T    
O5    Cu1   1.921477 S    
N3    O13   1.300465 A    
C1    C20   1.445878 S    
C15   C20   1.411286 A    
C18   H2    1.083035 S    
C9    C14   1.199452 T    
O22   H7    1.013992 S    
C22   O12   1.397875 S    
Cu1   Cu2   2.708547 S    
C11   C24   1.497197 S    
C8    N2    1.370827 A    
C25   O21   1.223529 D    
O2    C2    1.300475 A    
O3    Cu2   1.955084 S    
O8    C4    1.300659 A    
C12   C23   1.497288 S    
O1    C1    1.300475 A    
C5    C7    1.425837 A    
C8    N4    1.428487 S    
C4    C9    1.422545 S    
C7    N1    1.370826 A    
C21   O10   1.397883 S    
C16   C26   1.485605 S    
C2    C19   1.445877 S    
O7    C3    1.300657 A    
C24   O19   1.223948 D    
C26   O23   1.223540 D    
O2    Cu2   1.958529 S    
O6    C4    1.300029 A    
N4    O16   1.300285 A    
C3    C10   1.422534 S    
C25   O22   1.396057 S    
O4    C2    1.296719 A    
C15   C17   1.391984 A    
C6    C22   1.473707 S    
C17   C19   1.396202 A    
O24   H8    1.013993 S    
C15   C25   1.485605 S    
C18   C20   1.396205 A    
O1    Cu1   1.958529 S    
C6    C8    1.425837 A    
C23   O17   1.223998 D    
C11   C14   1.439733 S    
C5    C21   1.473715 S    
C22   O11   1.221913 D    
C26   O24   1.396068 S    
O7    Cu2   1.918426 S    
N4    O15   1.300458 A    
O6    Cu2   1.921477 S    
O3    C1    1.296720 A    
C11   C12   1.364594 D    
C24   O20   1.398678 S    
C16   C19   1.411284 A    
C12   C13   1.439750 S    
O18   H5    1.014122 S    
O4    Cu1   1.955081 S    
C23   O18   1.398703 S    
O8    Cu1   1.918426 S    
