data_mof_unit_6599.cif
_audit_creation_date              2012-12-11T17:06:29-0500
_audit_creation_method            fapswitch 2.2
_symmetry_space_group_name_H-M    P1
_symmetry_Int_Tables_number       1
_space_group_crystal_system       triclinic
_cell_length_a                    6.963737
_cell_length_b                    14.50975
_cell_length_c                    15.954516
_cell_angle_alpha                 90.460391
_cell_angle_beta                  89.967711
_cell_angle_gamma                 90.010665
_cell_volume                      1612.02520335

loop_
_atom_site_label
_atom_site_type_symbol
_atom_type_description
_atom_site_fract_x
_atom_site_fract_y
_atom_site_fract_z
_atom_type_partial_charge
O1    O     O_R   0.494400 0.415450 0.412630 -0.541279
O2    O     O_R   0.823940 0.405730 0.586760 -0.517791
O3    O     O_R   0.994240 0.584550 0.587370 -0.528034
C1    C     C_R   0.655260 0.383971 0.615590 0.753624
O4    O     O_R   0.824110 0.404430 0.413240 -0.554525
O5    O     O_R   0.994420 0.583240 0.412620 -0.511874
C2    C     C_R   0.655400 0.382208 0.384282 0.677652
O6    O     O_R   0.494230 0.416760 0.587380 -0.547474
O7    O     O_3   0.660800 0.558670 0.500000 -0.354419
V1    V     V_3+5 0.935650 0.489120 0.500000 1.490169
O8    O     O_R   0.324140 0.594270 0.413240 -0.544039
C3    C     C_R   0.155073 0.616657 0.384740 0.752294
O9    O     O_R   0.323960 0.595570 0.586760 -0.546092
C4    C     C_R   0.155177 0.617719 0.615557 0.713146
V2    V     V_3+5 0.435660 0.510880 0.500000 1.457459
O10   O     O_3   0.160640 0.441330 0.500000 -0.381153
C5    C     C_3   0.055847 0.667907 0.772273 -0.127699
C6    C     C_3   0.229009 0.716445 0.814775 -0.138627
H1    H     H_    0.308013 0.690723 0.870288 0.112705
H2    H     H_    0.992293 0.601270 0.791820 0.148747
C7    C     C_3   0.121179 0.808861 0.810151 -0.010141
C8    C     C_3   0.947813 0.761125 0.768438 -0.126616
C9    C     C_3   0.036982 0.779822 0.681206 -0.139272
C10   C     C_3   0.210142 0.828364 0.723711 -0.141948
C11   C     C_3   0.318180 0.735142 0.727543 -0.112761
C12   C     C_3   0.144811 0.687401 0.685832 -0.014242
H3    H     H_    0.794973 0.772057 0.785649 0.112143
H4    H     H_    0.957979 0.805546 0.625695 0.126541
H5    H     H_    0.471019 0.724210 0.710332 0.113184
C13   C     C_R   0.264307 0.744841 0.183358 0.100712
C14   C     C_R   0.117615 0.810696 0.179260 -0.180627
C15   C     C_R   0.972688 0.806784 0.240884 -0.262066
H6    H     H_    0.855353 0.855668 0.239806 0.145025
C16   C     C_R   0.985670 0.744699 0.308323 0.592400
C17   C     C_R   0.141974 0.683060 0.314711 -0.212570
C18   C     C_R   0.275335 0.682203 0.248921 0.003441
C19   C     C_3   0.488821 0.688484 0.251858 -0.352563
C20   C     C_3   0.476822 0.756651 0.180185 -0.377897
H7    H     H_    0.559213 0.622428 0.234010 0.170927
H8    H     H_    0.539143 0.719960 0.311465 0.241028
H9    H     H_    0.539332 0.729731 0.120732 0.169654
H10   H     H_    0.522543 0.827528 0.198052 0.172161
C21   C     C_R   0.504802 0.245396 0.682257 -0.011757
C22   C     C_R   0.647885 0.313294 0.681822 -0.210807
C23   C     C_R   0.790529 0.308853 0.744543 0.595034
C24   C     C_R   0.780130 0.242227 0.808206 -0.249154
H11   H     H_    0.888033 0.242656 0.857053 0.157818
C25   C     C_R   0.624455 0.180284 0.812345 -0.174222
C26   C     C_R   0.492405 0.181127 0.746260 0.081064
C27   C     C_3   0.278406 0.185015 0.747378 -0.370586
C28   C     C_3   0.292070 0.254765 0.676929 -0.325182
H12   H     H_    0.221326 0.214761 0.806764 0.195889
H13   H     H_    0.212288 0.118643 0.727445 0.151098
H14   H     H_    0.243661 0.324985 0.695045 0.239650
C29   C     C_R   0.488105 0.252929 0.307757 0.003601
C30   C     C_R   0.647180 0.311178 0.317181 -0.071337
C31   C     C_R   0.800010 0.299770 0.260276 -0.166943
H15   H     H_    0.923703 0.344465 0.264191 0.143695
C32   C     C_R   0.788012 0.235543 0.193808 -0.157881
H16   H     H_    0.903017 0.231687 0.148620 0.200006
C33   C     C_R   0.622841 0.181265 0.181951 -0.059950
C34   C     C_R   0.475832 0.189890 0.241304 -0.007693
C35   C     C_3   0.269873 0.212116 0.227012 0.496798
C36   C     C_3   0.282080 0.278874 0.300428 -0.429049
H17   H     H_    0.172375 0.152555 0.236991 0.024054
H18   H     H_    0.197165 0.256493 0.355666 0.121957
H19   H     H_    0.262740 0.352276 0.282705 0.193347
O11   O     O_R   0.771650 0.079500 0.908680 -0.542564
O12   O     O_R   0.441690 0.091800 0.082800 -0.515821
O13   O     O_R   0.271460 0.912980 0.083410 -0.542706
C37   C     C_R   0.610620 0.114356 0.111511 0.710992
O14   O     O_R   0.441930 0.090510 0.909280 -0.536485
O15   O     O_R   0.271690 0.911670 0.908660 -0.542045
C38   C     C_R   0.611043 0.112780 0.880944 0.735636
O16   O     O_R   0.771410 0.080810 0.083440 -0.547512
O17   O     O_3   0.605100 0.937580 0.996050 -0.378711
V3    V     V_3+5 0.330220 0.007110 0.996030 1.456992
O18   O     O_R   0.941980 0.900620 0.909250 -0.544100
C39   C     C_R   0.110775 0.878508 0.880447 0.672767
O19   O     O_R   0.941740 0.901920 0.082770 -0.544796
C40   C     C_R   0.110369 0.880151 0.111731 0.718418
V4    V     V_3+5 0.830220 0.985300 0.996000 1.408821
O20   O     O_3   0.105210 0.054870 0.996020 -0.357520
F1    F     F_    0.930345 0.373793 0.748692 -0.718656
H20   H     H_    0.234578 0.228504 0.616303 0.156559
F2    F     F_    0.244408 0.257099 0.151547 -0.680339
H21   H     H_    0.273652 0.895018 0.704175 0.103210
F3    F     F_    0.854216 0.750326 0.370915 -0.710890

loop_
_geom_bond_atom_site_label_1
_geom_bond_atom_site_label_2
_ccdc_geom_bond_type
C29   C30   A    
C35   H17   S    
C6    C7    S    
O12   V3    S    
C17   C18   A    
C1    O6    A    
C28   H20   S    
C23   C24   A    
O14   V3    S    
C5    C12   S    
C18   C19   S    
C19   C20   S    
C20   H10   S    
C19   H8    S    
O5    C3    A    
C13   C14   A    
C31   C32   A    
V3    O20   S    
O11   C38   A    
V2    O10   S    
C29   C34   A    
C5    H2    S    
C30   C31   A    
C13   C20   S    
C16   C17   A    
C9    C12   S    
O12   C37   A    
O13   C40   A    
O8    V2    S    
C27   H12   S    
C9    C10   S    
O1    V2    S    
O7    V1    S    
C33   C37   S    
C32   H16   S    
O9    C4    A    
O13   V3    S    
C6    C11   S    
C2    C30   S    
C27   C28   S    
O17   V3    S    
C11   H5    S    
C24   C25   A    
C32   C33   A    
C27   H13   S    
C36   H19   S    
C25   C38   S    
C10   C11   S    
C20   H9    S    
O14   C38   A    
O17   V4    S    
O4    C2    A    
O18   C39   A    
C6    H1    S    
C1    C22   S    
C11   C12   S    
C36   H18   S    
O2    C1    A    
C21   C22   A    
C34   C35   S    
O18   V4    S    
C14   C15   A    
C29   C36   S    
C7    C39   S    
C5    C6    S    
O15   C39   A    
C16   F3    S    
C9    H4    S    
C4    C12   S    
C3    C17   S    
O3    C4    A    
O19   V4    S    
C25   C26   A    
V4    O20   S    
O6    V2    S    
C8    H3    S    
O9    V2    S    
C35   F2    S    
C23   F1    S    
O2    V1    S    
C22   C23   A    
C24   H11   S    
O1    C2    A    
C21   C26   A    
O19   C40   A    
O5    V1    S    
O8    C3    A    
O16   V4    S    
C5    C8    S    
C14   C40   S    
C13   C18   A    
C28   H14   S    
O11   V4    S    
C15   H6    S    
O7    V2    S    
O4    V1    S    
C19   H7    S    
O3    V1    S    
V1    O10   S    
C37   O16   A    
C21   C28   S    
C31   H15   S    
C33   C34   A    
C10   H21   S    
C35   C36   S    
C26   C27   S    
C7    C10   S    
O15   V3    S    
C8    C9    S    
C7    C8    S    
C15   C16   A    
