data_mof_unit_49725.cif
_audit_creation_date              2012-12-10T17:43:35-0500
_audit_creation_method            fapswitch 2.2
_symmetry_space_group_name_H-M    P1
_symmetry_Int_Tables_number       1
_space_group_crystal_system       triclinic
_cell_length_a                    15.000819
_cell_length_b                    10.605623
_cell_length_c                    9.954687
_cell_angle_alpha                 88.752474
_cell_angle_beta                  90.407941
_cell_angle_gamma                 92.211679
_cell_volume                      1582.1351972

loop_
_atom_site_label
_atom_site_type_symbol
_atom_type_description
_atom_site_fract_x
_atom_site_fract_y
_atom_site_fract_z
_atom_type_partial_charge
C1    C     C_R   0.502267 0.260882 0.501170 0.844037
C2    C     C_R   0.907801 0.496939 0.623677 0.121695
C3    C     C_R   0.952334 0.500358 0.254820 -0.218829
C4    C     C_R   0.044968 0.501079 0.254550 -0.220679
C5    C     C_R   0.092049 0.500639 0.376461 0.118611
C6    C     C_R   0.046289 0.498854 0.499916 0.063176
C7    C     C_R   0.093298 0.498509 0.623078 0.120413
C8    C     C_R   0.047570 0.496774 0.745284 -0.221896
C9    C     C_R   0.954927 0.495952 0.745576 -0.224587
C10   C     C_R   0.184303 0.502110 0.377176 -0.270455
C11   C     C_R   0.230774 0.500983 0.499406 -0.070810
C12   C     C_R   0.326807 0.500536 0.499666 0.864231
C13   C     C_R   0.185459 0.500078 0.621824 -0.273135
C14   C     C_R   0.652061 0.136710 0.625603 -0.153926
C15   C     C_R   0.723037 0.073395 0.683379 -0.130343
C16   C     C_R   0.724046 0.942331 0.680172 -0.135808
C17   C     C_R   0.654102 0.874149 0.619103 -0.181306
C18   C     C_R   0.581113 0.936900 0.561250 0.094802
C19   C     C_R   0.580053 0.068858 0.564586 0.116285
C20   C     C_R   0.507601 0.128683 0.502851 -0.050897
C21   C     C_R   0.439763 0.062423 0.435490 -0.200768
C22   C     C_R   0.440822 0.933829 0.432236 -0.187199
C23   C     C_R   0.502934 0.739317 0.498810 0.871178
C24   C     C_R   0.509626 0.872031 0.496600 -0.096545
C25   C     C_R   0.364092 0.369774 0.144672 -0.132170
C26   C     C_R   0.284374 0.336063 0.081711 -0.217017
C27   C     C_R   0.278691 0.343854 0.943294 -0.262670
C28   C     C_R   0.356424 0.369682 0.869068 -0.000629
C29   C     C_R   0.431028 0.435593 0.930015 0.150670
C30   C     C_R   0.432335 0.436203 0.074188 0.165486
C31   C     C_R   0.565121 0.560975 0.070427 -0.108094
C32   C     C_R   0.565228 0.560746 0.927670 -0.106184
C33   C     C_R   0.673190 0.500046 0.500316 0.856439
C34   C     C_R   0.815564 0.497269 0.622972 -0.280541
C35   C     C_R   0.769160 0.498972 0.500635 -0.070309
C36   C     C_R   0.814430 0.499558 0.378146 -0.250246
C37   C     C_R   0.906567 0.499189 0.376995 0.116377
C38   C     C_R   0.953540 0.498137 0.500205 0.060851
H1    H     H_    0.654957 0.238584 0.627868 0.149716
H2    H     H_    0.777795 0.126296 0.729661 0.139899
H3    H     H_    0.779587 0.893382 0.723950 0.138174
H4    H     H_    0.658588 0.772733 0.615892 0.140427
H5    H     H_    0.386733 0.882003 0.382539 0.155786
H6    H     H_    0.618362 0.611292 0.123032 0.142719
H7    H     H_    0.371317 0.340120 0.247099 0.195478
H8    H     H_    0.229579 0.293661 0.139234 0.156260
H9    H     H_    0.778212 0.500693 0.283463 0.161019
H10   H     H_    0.916550 0.501011 0.159837 0.140593
H11   H     H_    0.079734 0.502132 0.159402 0.146736
H12   H     H_    0.219657 0.504597 0.282591 0.173191
H13   H     H_    0.221641 0.500975 0.716338 0.166261
H14   H     H_    0.083408 0.496207 0.840243 0.146469
H15   H     H_    0.385248 0.110572 0.387126 0.138161
N1    N     N_R   0.499150 0.498800 0.142780 -0.120957
N2    N     N_R   0.499120 0.498720 0.857170 -0.122369
O1    O     O_R   0.500000 0.316780 0.614690 -0.598546
O2    O     O_R   0.499990 0.316750 0.385360 -0.635714
O3    O     O_R   0.367850 0.499980 0.614680 -0.647124
O4    O     O_R   0.367840 0.499960 0.385350 -0.643545
O5    O     O_R   0.500010 0.683250 0.614640 -0.607671
O6    O     O_R   0.500000 0.683220 0.385310 -0.609195
O7    O     O_R   0.632160 0.500040 0.614650 -0.643667
O8    O     O_R   0.632150 0.500020 0.385320 -0.622802
Zn1   Zn    Zn3+2 0.500010 0.500020 0.653130 0.954342
Zn2   Zn    Zn3+2 0.499990 0.499980 0.346870 0.940209
H16   H     H_    0.780158 0.496544 0.717628 0.160378
H17   H     H_    0.219723 0.301741 0.895835 0.142241
C39   C     C_2   0.366875 0.270925 0.771015 0.530416
H18   H     H_    0.325903 0.268295 0.680728 0.017287
O9    O     O_2   0.414757 0.183034 0.797752 -0.564085
H19   H     H_    0.618476 0.610891 0.873687 0.139687
H20   H     H_    0.920208 0.494895 0.840745 0.141017

loop_
_geom_bond_atom_site_label_1
_geom_bond_atom_site_label_2
_ccdc_geom_bond_type
C2    C9    A    
C36   C37   A    
O6    Zn2   S    
C23   C24   S    
O1    Zn1   S    
C29   C30   A    
C1    O2    A    
C30   N1    A    
C8    H14   S    
C32   N2    A    
C19   C20   A    
C9    H20   S    
O5    Zn1   S    
C4    H11   S    
C33   O8    A    
C12   O3    A    
N2    Zn1   S    
C2    C34   A    
O8    Zn2   S    
C17   C18   A    
C25   C26   A    
C5    C10   A    
N1    Zn2   S    
C13   H13   S    
C21   C22   A    
O4    Zn2   S    
C21   H15   S    
C11   C13   A    
C34   H16   S    
C26   C27   A    
C37   C38   A    
C18   C24   A    
C5    C6    A    
C14   C19   A    
C28   C29   A    
C33   C35   S    
C1    O1    A    
C33   O7    A    
C32   H19   S    
C31   N1    A    
O3    Zn1   S    
C23   O5    A    
C22   C24   A    
C15   H2    S    
C27   H17   S    
C31   H6    S    
C26   H8    S    
C15   C16   A    
C10   H12   S    
C16   C17   A    
C25   H7    S    
C3    H10   S    
C7    C13   A    
C18   C19   A    
C20   C21   A    
C3    C37   A    
C36   H9    S    
C39   O9    D    
C34   C35   A    
C10   C11   A    
C23   O6    A    
C25   C30   A    
C7    C8    A    
C2    C38   A    
C17   H4    S    
C4    C5    A    
C1    C20   S    
O7    Zn1   S    
C35   C36   A    
C29   N2    A    
C28   C39   S    
C14   H1    S    
C14   C15   A    
C12   O4    A    
C6    C38   A    
C16   H3    S    
C39   H18   S    
C31   C32   A    
C6    C7    A    
C3    C4    A    
C11   C12   S    
O2    Zn2   S    
C8    C9    A    
C27   C28   A    
C22   H5    S    
