data_mof_unit_5767.cif
_audit_creation_date              2012-12-10T19:49:28-0500
_audit_creation_method            fapswitch 2.2
_symmetry_space_group_name_H-M    P1
_symmetry_Int_Tables_number       1
_space_group_crystal_system       triclinic
_cell_length_a                    15.006279
_cell_length_b                    14.210608
_cell_length_c                    14.904658
_cell_angle_alpha                 90.522915
_cell_angle_beta                  89.860491
_cell_angle_gamma                 90.052153
_cell_volume                      3178.25065673

loop_
_atom_site_label
_atom_site_type_symbol
_atom_type_description
_atom_site_fract_x
_atom_site_fract_y
_atom_site_fract_z
_atom_type_partial_charge
C1    C     C_R   0.327765 0.500116 0.500266 0.849048
C2    C     C_R   0.812560 0.423148 0.540219 -0.215411
C3    C     C_R   0.814235 0.582227 0.481679 -0.172131
C4    C     C_R   0.184133 0.418455 0.487242 -0.218253
C5    C     C_R   0.231913 0.501090 0.504201 -0.024214
C6    C     C_R   0.767635 0.501468 0.507074 -0.026410
C7    C     C_R   0.047965 0.502632 0.516130 0.126344
C8    C     C_R   0.951400 0.504264 0.518014 0.127905
C9    C     C_R   0.460688 0.104044 0.430256 -0.406754
C10   C     C_R   0.570925 0.895897 0.536312 -0.391339
C11   C     C_R   0.539017 0.105549 0.570129 -0.398586
C12   C     C_R   0.672101 0.500210 0.501258 0.851538
C13   C     C_R   0.428818 0.894775 0.463129 -0.394443
C14   C     C_R   0.457705 0.203844 0.432616 0.541182
C15   C     C_R   0.569284 0.796402 0.538060 0.530518
C16   C     C_R   0.541794 0.205566 0.567996 0.569326
C17   C     C_R   0.430962 0.795226 0.461345 0.522570
C18   C     C_R   0.499862 0.053393 0.500120 0.092481
C19   C     C_R   0.499691 0.946911 0.500058 0.094056
C20   C     C_R   0.502181 0.499644 0.327144 0.917815
C21   C     C_R   0.498242 0.500307 0.672853 0.925207
C22   C     C_R   0.575295 0.523587 0.812249 -0.321391
C23   C     C_R   0.344377 0.451929 0.049445 0.454540
C24   C     C_R   0.425437 0.477157 0.187595 -0.293745
C25   C     C_R   0.496904 0.500858 0.768042 -0.169966
C26   C     C_R   0.504029 0.498565 0.231922 -0.173906
C27   C     C_R   0.418937 0.476806 0.813944 0.446065
C28   C     C_R   0.583233 0.517906 0.185992 0.431082
C29   C     C_R   0.420483 0.474602 0.907540 -0.026880
C30   C     C_R   0.581934 0.519760 0.092372 -0.026524
C31   C     C_R   0.500181 0.498200 0.953149 -0.045700
C32   C     C_R   0.501928 0.497458 0.046717 -0.048922
C33   C     C_R   0.578264 0.521955 0.905086 0.034545
C34   C     C_R   0.658083 0.542331 0.950482 0.453224
C35   C     C_R   0.423511 0.474944 0.094762 0.039274
C36   C     C_R   0.344001 0.449618 0.956037 -0.296060
C37   C     C_R   0.659029 0.542656 0.043873 -0.287461
C38   C     C_3   0.288874 0.531810 0.755345 0.054367
C39   C     C_3   0.192492 0.500782 0.743608 -0.806712
C40   C     C_3   0.706733 0.452457 0.248834 0.072592
C41   C     C_3   0.806132 0.472373 0.255643 -0.826177
C42   C     C_3   0.206675 0.499866 0.095193 0.078524
C43   C     C_3   0.137034 0.483734 0.167809 -0.819990
C44   C     C_3   0.787426 0.485413 0.892465 0.075164
C45   C     C_R   0.096073 0.584794 0.535321 -0.205800
C46   C     C_3   0.863684 0.507127 0.828419 -0.825578
C47   C     C_3   0.329923 0.222645 0.348836 0.063737
C48   C     C_3   0.281612 0.293541 0.290786 -0.764252
C49   C     C_3   0.648360 0.758002 0.663159 0.086516
C50   C     C_3   0.729353 0.703894 0.695595 -0.787430
C51   C     C_3   0.658254 0.222746 0.672224 0.085179
C52   C     C_3   0.644183 0.187392 0.767460 -0.857711
C53   C     C_3   0.360150 0.754050 0.331686 0.119698
C54   C     C_3   0.294418 0.683576 0.292062 -0.809198
C55   C     C_R   0.904176 0.425220 0.547444 -0.189438
C56   C     C_R   0.906025 0.583004 0.485555 -0.204839
C57   C     C_R   0.092348 0.419602 0.491457 -0.184474
C58   C     C_R   0.187715 0.584457 0.527861 -0.178762
H1    H     H_    0.634235 0.540412 0.773515 0.191445
H2    H     H_    0.777019 0.360762 0.560802 0.144458
H3    H     H_    0.780032 0.643329 0.455804 0.192956
H4    H     H_    0.217396 0.353257 0.470314 0.162219
H5    H     H_    0.433788 0.066048 0.373324 0.153648
H6    H     H_    0.628938 0.932738 0.561627 0.161758
H7    H     H_    0.565977 0.068396 0.626802 0.163660
H8    H     H_    0.371207 0.930648 0.436475 0.159075
H9    H     H_    0.310731 0.569719 0.694218 0.152814
H10   H     H_    0.290965 0.581790 0.813583 0.123015
H11   H     H_    0.168023 0.467092 0.805917 0.237052
H12   H     H_    0.365690 0.463673 0.226201 0.188758
H13   H     H_    0.150013 0.562753 0.729283 0.211304
H14   H     H_    0.187058 0.449445 0.687342 0.277943
H15   H     H_    0.697441 0.398342 0.194778 0.130767
H16   H     H_    0.683341 0.422538 0.313341 0.162790
H17   H     H_    0.818599 0.530183 0.304387 0.272988
H18   H     H_    0.841710 0.408283 0.278036 0.213633
H19   H     H_    0.832685 0.493398 0.189166 0.238180
H20   H     H_    0.172706 0.501646 0.028954 0.144024
H21   H     H_    0.238510 0.569541 0.108667 0.129932
H22   H     H_    0.169326 0.483406 0.234817 0.253218
H23   H     H_    0.283373 0.428757 0.922047 0.198649
H24   H     H_    0.086682 0.540917 0.166504 0.208846
H25   H     H_    0.103024 0.415228 0.156410 0.258599
H26   H     H_    0.748469 0.425718 0.863160 0.138603
H27   H     H_    0.816022 0.463709 0.957965 0.142975
H28   H     H_    0.904249 0.566398 0.855204 0.259560
H29   H     H_    0.906954 0.444238 0.820417 0.206530
H30   H     H_    0.836949 0.526420 0.761647 0.256393
H31   H     H_    0.292328 0.215026 0.412961 0.124887
H32   H     H_    0.329680 0.154526 0.311689 0.135647
H33   H     H_    0.314053 0.296858 0.223885 0.286415
H34   H     H_    0.720455 0.560820 0.077867 0.203647
H35   H     H_    0.211027 0.271948 0.281894 0.203334
H36   H     H_    0.283464 0.364251 0.322864 0.241137
H37   H     H_    0.587906 0.728854 0.696345 0.158395
H38   H     H_    0.656877 0.832949 0.683734 0.120887
H39   H     H_    0.791098 0.734946 0.667167 0.245724
H40   H     H_    0.732886 0.707240 0.769946 0.244170
H41   H     H_    0.724842 0.629189 0.673700 0.251252
H42   H     H_    0.706443 0.281813 0.676345 0.154839
H43   H     H_    0.690492 0.167837 0.629310 0.107092
H44   H     H_    0.594391 0.129701 0.768584 0.249703
H45   H     H_    0.063028 0.649032 0.556384 0.132807
H46   H     H_    0.708170 0.160840 0.794563 0.207935
H47   H     H_    0.620115 0.245864 0.811167 0.265439
H48   H     H_    0.427176 0.739052 0.302378 0.151772
H49   H     H_    0.338833 0.825949 0.312118 0.118512
H50   H     H_    0.226239 0.698095 0.317808 0.251312
H51   H     H_    0.294324 0.689135 0.217835 0.193457
H52   H     H_    0.313637 0.610916 0.310692 0.250664
H53   H     H_    0.938033 0.364672 0.574786 0.127784
H54   H     H_    0.941304 0.643990 0.460734 0.136641
H55   H     H_    0.056300 0.355907 0.474359 0.130286
H56   H     H_    0.223895 0.648671 0.542872 0.181595
N1    N     N_R   0.500000 0.252470 0.500000 -0.167526
N2    N     N_R   0.500000 0.747530 0.500000 -0.165718
O1    O     O_R   0.369060 0.579480 0.500010 -0.584081
O2    O     O_3   0.660999 0.537630 0.232418 -0.623052
O3    O     O_3   0.269081 0.425608 0.096785 -0.621794
O4    O     O_3   0.734323 0.566672 0.903775 -0.621444
O5    O     O_3   0.418111 0.254126 0.364098 -0.571661
O6    O     O_3   0.642485 0.747957 0.569089 -0.584866
O7    O     O_3   0.577310 0.258709 0.638051 -0.570529
O8    O     O_3   0.360197 0.745284 0.425942 -0.590576
O9    O     O_R   0.630940 0.420520 0.499990 -0.635847
O10   O     O_R   0.630940 0.579480 0.499990 -0.561557
O11   O     O_R   0.369060 0.420520 0.500010 -0.604736
O12   O     O_R   0.499980 0.579490 0.367850 -0.606421
O13   O     O_R   0.500020 0.420510 0.632150 -0.535626
O14   O     O_R   0.500020 0.579490 0.632150 -0.653307
O15   O     O_R   0.499980 0.420510 0.367850 -0.579395
O16   O     O_3   0.342811 0.451344 0.767232 -0.609893
Zn1   Zn    Zn3+2 0.500000 0.606140 0.500000 1.005916
Zn2   Zn    Zn3+2 0.500000 0.393860 0.500000 1.026948

loop_
_geom_bond_atom_site_label_1
_geom_bond_atom_site_label_2
_ccdc_geom_bond_type
O9    Zn2   S    
C40   O2    S    
C11   C18   A    
C15   O6    S    
C27   C29   A    
C34   C37   A    
C51   O7    S    
O11   Zn2   S    
C3    C6    A    
O1    Zn1   S    
C8    C56   A    
C24   H12   S    
C7    C8    S    
C53   C54   S    
C29   C36   A    
C52   H44   S    
C50   H41   S    
C48   H36   S    
C5    C58   A    
C1    C5    S    
C7    C45   A    
C16   O7    S    
C24   C26   A    
C20   O12   A    
C10   C15   A    
C41   H19   S    
C38   C39   S    
C2    H2    S    
C42   O3    S    
C47   O5    S    
C12   O10   A    
C44   O4    S    
C14   N1    A    
C4    H4    S    
C43   H25   S    
C40   H15   S    
C54   H52   S    
C18   C19   S    
C11   C16   A    
C49   C50   S    
C45   H45   S    
C53   H48   S    
C47   C48   S    
O10   Zn1   S    
C48   H33   S    
C4    C57   A    
C39   H14   S    
C31   C33   A    
C30   C32   A    
C36   H23   S    
O15   Zn2   S    
C42   H21   S    
C14   O5    S    
C27   O16   S    
C47   H31   S    
C2    C6    A    
C8    C55   A    
C44   C46   S    
C46   H30   S    
C13   H8    S    
C3    H3    S    
C34   O4    S    
C45   C58   A    
C50   H40   S    
C24   C35   A    
C48   H35   S    
C13   C19   A    
C51   C52   S    
C32   C35   A    
C22   H1    S    
C57   H55   S    
N2    Zn1   S    
C43   H22   S    
C22   C25   A    
C30   C37   A    
C38   O16   S    
C9    C14   A    
C41   H17   S    
C3    C56   A    
C53   H49   S    
C17   O8    S    
C31   C32   A    
C10   C19   A    
C33   C34   A    
C39   H11   S    
C1    O1    A    
C49   H37   S    
C21   O13   A    
C40   C41   S    
C38   H10   S    
C52   H47   S    
C42   H20   S    
C23   C35   A    
C47   H32   S    
O14   Zn1   S    
C25   C27   A    
C42   C43   S    
C20   O15   A    
C44   H27   S    
C16   N1    A    
C46   H29   S    
C51   H42   S    
C22   C33   A    
C21   C25   S    
C52   H46   S    
C50   H39   S    
C37   H34   S    
C55   H53   S    
C9    H5    S    
C10   H6    S    
C1    O11   A    
C4    C5    A    
C44   H26   S    
C53   O8    S    
C12   O9    A    
N1    Zn2   S    
C54   H50   S    
C51   H43   S    
C26   C28   A    
C13   C17   A    
C2    C55   A    
C28   C30   A    
C29   C31   A    
C28   O2    S    
O12   Zn1   S    
C41   H18   S    
C6    C12   S    
C20   C26   S    
C49   O6    S    
C56   H54   S    
C40   H16   S    
C49   H38   S    
C21   O14   A    
O13   Zn2   S    
C9    C18   A    
C38   H9    S    
C54   H51   S    
C23   C36   A    
C58   H56   S    
C43   H24   S    
C39   H13   S    
C15   N2    A    
C23   O3    S    
C7    C57   A    
C11   H7    S    
C17   N2    A    
C46   H28   S    
