data_mof_unit_61747.cif
_audit_creation_date              2012-12-10T17:54:37-0500
_audit_creation_method            fapswitch 2.2
_symmetry_space_group_name_H-M    P1
_symmetry_Int_Tables_number       1
_space_group_crystal_system       triclinic
_cell_length_a                    18.81364
_cell_length_b                    18.798043
_cell_length_c                    18.824031
_cell_angle_alpha                 109.451533
_cell_angle_beta                  109.439449
_cell_angle_gamma                 109.225094
_cell_volume                      5143.50774849

loop_
_atom_site_label
_atom_site_type_symbol
_atom_type_description
_atom_site_fract_x
_atom_site_fract_y
_atom_site_fract_z
_atom_type_partial_charge
C1    C     C_R   0.119325 0.000490 0.618403 0.880282
C2    C     C_R   0.261179 0.178252 0.504259 0.070548
C3    C     C_R   0.188574 0.186244 0.503331 -0.192739
C4    C     C_R   0.180916 0.258583 0.502939 0.203620
C5    C     C_R   0.244232 0.321225 0.500801 0.364758
C6    C     C_R   0.314465 0.311739 0.497541 -0.234797
C7    C     C_R   0.176491 0.925241 0.684988 -0.090409
C8    C     C_R   0.188261 0.001852 0.683567 -0.073904
C9    C     C_R   0.269779 0.077685 0.742479 0.340243
C10   C     C_R   0.333647 0.076874 0.806978 -0.211456
C11   C     C_R   0.315854 0.001682 0.814616 -0.074691
C12   C     C_R   0.119812 0.118836 0.501142 0.833413
C13   C     C_R   0.237715 0.925795 0.750547 -0.071559
C14   C     C_3   0.171094 0.856562 0.752129 0.261143
C15   C     C_3   0.102879 0.854438 0.677346 0.177790
C16   C     C_R   0.810096 0.738803 0.487322 0.032365
C17   C     C_R   0.810849 0.815606 0.496932 -0.129337
C18   C     C_R   0.742688 0.826576 0.506542 0.371120
C19   C     C_R   0.678952 0.761357 0.507276 -0.227912
C20   C     C_R   0.683444 0.686220 0.500571 -0.136691
C21   C     C_R   0.750642 0.678226 0.491113 0.078184
C22   C     C_3   0.786944 0.618813 0.476855 0.218924
C23   C     C_R   0.881202 0.999995 0.381540 0.816354
C24   C     C_3   0.855121 0.687917 0.472626 -0.440522
C25   C     C_R   0.818027 0.999702 0.243873 0.066723
C26   C     C_R   0.813884 0.999617 0.315964 -0.087866
C27   C     C_R   0.741781 0.000198 0.323288 -0.171558
C28   C     C_R   0.676390 0.999198 0.257866 -0.193482
C29   C     C_R   0.684232 0.000689 0.186276 -0.056560
C30   C     C_R   0.757142 0.002056 0.182975 0.042678
C31   C     C_3   0.801059 0.002110 0.130152 -0.464494
C32   C     C_3   0.870964 0.999949 0.200117 0.221477
C33   C     C_R   0.499290 0.618354 0.618956 0.815407
C34   C     C_R   0.879719 0.881422 0.498578 0.876947
C35   C     C_R   0.381282 0.380173 0.498931 0.850064
C36   C     C_R   0.499919 0.381110 0.381489 0.805931
C37   C     C_R   0.618316 0.618693 0.499997 0.846213
C38   C     C_R   0.500044 0.118543 0.118676 0.794025
C39   C     C_R   0.381343 0.001184 0.882179 0.816357
C40   C     C_R   0.499780 0.881579 0.881156 0.782643
C41   C     C_R   0.618472 0.000042 0.118786 0.786182
C42   C     C_R   0.475924 0.744227 0.670203 0.053007
C43   C     C_R   0.501565 0.686884 0.686664 -0.087484
C44   C     C_R   0.535944 0.700876 0.772082 -0.176426
C45   C     C_R   0.275541 0.111799 0.514065 -0.075266
C46   C     C_R   0.535170 0.764765 0.836264 -0.208803
C47   C     C_R   0.502042 0.816424 0.816008 -0.044575
C48   C     C_R   0.478172 0.809377 0.734506 0.077454
C49   C     C_3   0.397291 0.800854 0.672781 -0.556577
C50   C     C_3   0.393879 0.728236 0.601646 0.083888
C51   C     C_R   0.488415 0.311835 0.238437 0.160610
C52   C     C_R   0.499683 0.313752 0.315821 -0.059416
C53   C     C_R   0.511849 0.247680 0.328318 -0.194560
C54   C     C_R   0.510998 0.182296 0.263006 -0.186618
C55   C     C_R   0.500951 0.184296 0.186146 -0.065999
C56   C     C_R   0.343395 0.100960 0.507817 -0.122717
C57   C     C_R   0.490952 0.251216 0.177490 0.121074
C58   C     C_3   0.475870 0.286918 0.117683 -0.459869
C59   C     C_3   0.473651 0.356692 0.187602 -0.415210
C60   C     C_R   0.398212 0.155679 0.491783 -0.130158
C61   C     C_R   0.387884 0.223940 0.485965 -0.118260
C62   C     C_R   0.321896 0.238808 0.496245 0.042191
Cu1   Cu    Cu3+1 0.000020 0.938200 0.438210 0.983455
Cu2   Cu    Cu3+1 0.999980 0.061800 0.561790 1.072199
Cu3   Cu    Cu3+1 0.438170 0.500030 0.438220 1.033173
Cu4   Cu    Cu3+1 0.561770 0.500000 0.561810 0.993437
Cu5   Cu    Cu3+1 0.561810 0.061820 0.000030 0.994478
Cu6   Cu    Cu3+1 0.438190 0.938280 0.000080 1.019935
H1    H     H_    0.070500 0.793532 0.614876 0.060064
H2    H     H_    0.626565 0.769583 0.513511 0.178491
H3    H     H_    0.813739 0.610305 0.533767 0.141151
H4    H     H_    0.921450 0.720041 0.527875 0.189989
H5    H     H_    0.850189 0.667089 0.407744 0.233485
H6    H     H_    0.735363 0.999998 0.378322 0.194997
H7    H     H_    0.235718 0.068286 0.527924 0.150758
H8    H     H_    0.620881 0.998543 0.263804 0.157227
H9    H     H_    0.762458 0.941471 0.066164 0.164680
H10   H     H_    0.823711 0.063336 0.127610 0.249380
H11   H     H_    0.874235 0.939098 0.176713 0.127470
H12   H     H_    0.559872 0.660191 0.788389 0.171922
H13   H     H_    0.558689 0.772712 0.900859 0.144197
H14   H     H_    0.343681 0.779625 0.687166 0.197871
H15   H     H_    0.410396 0.859310 0.665339 0.192583
H16   H     H_    0.352888 0.049311 0.514567 0.138970
H17   H     H_    0.402894 0.742841 0.551623 0.152248
H18   H     H_    0.520549 0.245778 0.387378 0.149139
H19   H     H_    0.519259 0.131360 0.272921 0.149410
H20   H     H_    0.532678 0.312974 0.108938 0.226909
H21   H     H_    0.412270 0.241744 0.056814 0.210405
H22   H     H_    0.529272 0.423007 0.219350 0.243745
H23   H     H_    0.408872 0.352018 0.166847 0.207765
H24   H     H_    0.449563 0.145822 0.484740 0.138722
H25   H     H_    0.431531 0.263829 0.472280 0.132933
H26   H     H_    0.395543 0.135819 0.853026 0.186281
H27   H     H_    0.175376 0.796102 0.732242 0.064463
O1    O     O_R   0.090180 0.947810 0.537990 -0.618833
O2    O     O_R   0.552150 0.590170 0.642370 -0.593600
O3    O     O_R   0.357600 0.409850 0.447820 -0.521841
O4    O     O_R   0.461980 0.409830 0.552180 -0.600892
O5    O     O_R   0.447790 0.409860 0.357660 -0.588286
O6    O     O_R   0.552170 0.409840 0.462020 -0.585834
O7    O     O_R   0.537960 0.590200 0.447840 -0.587938
O8    O     O_R   0.642340 0.590180 0.552210 -0.577028
O9    O     O_R   0.552220 0.142430 0.090190 -0.578384
O10   O     O_R   0.447830 0.038100 0.090230 -0.571304
O11   O     O_R   0.462030 0.052220 0.909860 -0.600580
O12   O     O_R   0.090150 0.052180 0.642350 -0.522261
O13   O     O_R   0.357640 0.947890 0.909900 -0.537859
O14   O     O_R   0.552170 0.962000 0.909870 -0.577505
O15   O     O_R   0.447780 0.857670 0.909910 -0.585209
O16   O     O_R   0.642360 0.052210 0.090200 -0.573260
O17   O     O_R   0.537970 0.947880 0.090240 -0.591353
O18   O     O_R   0.090190 0.037990 0.447830 -0.585016
O19   O     O_R   0.090170 0.142360 0.552190 -0.584936
O20   O     O_R   0.909850 0.947820 0.357650 -0.587341
O21   O     O_R   0.909820 0.052190 0.462010 -0.578923
O22   O     O_R   0.909830 0.857640 0.447810 -0.600244
O23   O     O_R   0.909810 0.962010 0.552170 -0.521042
O24   O     O_R   0.447770 0.590190 0.538000 -0.555338
N1    N     N_2   0.107262 0.266938 0.499715 -0.359974
H28   H     H_    0.048720 0.209856 0.462456 0.280363
C63   C     C_3   0.119750 0.324077 0.582236 -0.540422
H29   H     H_    0.132798 0.298729 0.627750 0.227872
H30   H     H_    0.060370 0.329177 0.571777 0.218519
H31   H     H_    0.174899 0.390182 0.612691 0.251471
Cl1   Cl    Cl    0.168684 0.894040 0.851872 -0.474118
Cl2   Cl    Cl    0.029177 0.886628 0.699106 -0.535877
Cl3   Cl    Cl    0.731404 0.917528 0.512784 -0.615401
Cl4   Cl    Cl    0.713834 0.520300 0.375479 -0.634047
Cl5   Cl    Cl    0.973304 0.097599 0.262964 -0.584953
N2    N     N_2   0.320692 0.643436 0.565945 -0.364117
H32   H     H_    0.313341 0.627155 0.611299 0.285400
C64   C     C_3   0.240317 0.623759 0.498007 -0.578335
H33   H     H_    0.190220 0.555801 0.470803 0.263678
H34   H     H_    0.249466 0.630386 0.444744 0.221981
H35   H     H_    0.217256 0.668056 0.524428 0.201819
Cl6   Cl    Cl    0.233311 0.411602 0.501132 -0.592848
Cl7   Cl    Cl    0.293535 0.174350 0.737962 -0.629839

loop_
_geom_bond_atom_site_label_1
_geom_bond_atom_site_label_2
_ccdc_geom_bond_type
C34   O23   A    
C39   O11   A    
C16   C21   A    
Cu2   O21   S    
C40   C47   S    
C1    C8    S    
C14   H27   S    
C19   C20   A    
C32   Cl5   S    
C7    C8    A    
C53   C54   A    
C52   C53   A    
C26   C27   A    
C42   C48   A    
C31   H10   S    
C5    C6    A    
Cu4   O2    S    
C28   C29   A    
Cu3   O3    S    
C54   H19   S    
Cu1   O22   S    
C61   H25   S    
C24   H5    S    
C10   H26   S    
Cu2   O23   S    
C6    C35   S    
C18   C19   A    
Cu6   O17   S    
C23   C26   S    
C42   C43   A    
C38   O9    A    
C3    C12   S    
C50   H17   S    
C18   Cl3   S    
C23   O21   A    
C54   C55   A    
Cu5   O14   S    
C38   C55   S    
C31   C32   S    
C45   C56   A    
N1    C63   S    
C16   C17   A    
C41   O17   A    
C64   H35   S    
C56   H16   S    
C53   H18   S    
C51   C57   A    
C27   H6    S    
C9    C10   A    
C36   C52   S    
Cu1   O20   S    
C34   O22   A    
C7    C15   S    
C16   C24   S    
C15   Cl2   S    
C21   C22   S    
Cu4   O6    S    
Cu3   O7    S    
C35   O4    A    
C44   C46   A    
Cu5   O9    S    
C31   H9    S    
C12   O19   A    
C60   H24   S    
C2    C45   A    
C39   O13   A    
C15   H1    S    
Cu2   O19   S    
C51   C52   A    
C33   C43   S    
C44   H12   S    
C10   C11   A    
C37   O8    A    
C8    C9    A    
Cu6   O15   S    
C58   C59   S    
Cu1   O1    S    
Cu5   Cu6   S    
C60   C61   A    
C59   H22   S    
C49   H14   S    
C43   C44   A    
C29   C30   A    
C46   H13   S    
C9    Cl7   S    
C47   C48   A    
C30   C31   S    
C17   C18   A    
Cu3   O24   S    
C36   O5    A    
C59   H23   S    
C11   C39   S    
C42   C50   S    
Cu5   O16   S    
C48   C49   S    
C1    O12   A    
C33   O24   A    
C55   C57   A    
C22   Cl4   S    
C41   O16   A    
C64   H33   S    
C22   C24   S    
C51   C59   S    
C17   C34   S    
C63   H30   S    
C3    C4    A    
C35   O3    A    
C22   H3    S    
N1    H28   S    
C24   H4    S    
Cu2   O12   S    
C12   O18   A    
C25   C30   A    
C46   C47   A    
C29   C41   S    
Cu4   O8    S    
C4    N1    S    
Cu3   O5    S    
C4    C5    A    
N2    C64   S    
Cu4   O4    S    
C58   H20   S    
C40   O15   A    
Cu5   O11   S    
C5    Cl6   S    
C40   O14   A    
C14   Cl1   S    
C45   H7    S    
C6    C62   A    
C63   H31   S    
C2    C3    A    
C25   C26   A    
N2    H32   S    
C32   H11   S    
C20   C37   S    
C11   C13   A    
C49   H15   S    
C57   C58   S    
C37   O7    A    
C38   O10   A    
C1    O1    A    
C33   O2    A    
Cu3   Cu4   S    
C61   C62   A    
C58   H21   S    
C50   N2    S    
C23   O20   A    
Cu1   Cu2   S    
Cu1   O18   S    
C56   C60   A    
C7    C13   A    
C20   C21   A    
C49   C50   S    
Cu6   O10   S    
C27   C28   A    
C64   H34   S    
C14   C15   S    
C36   O6    A    
C19   H2    S    
Cu6   O13   S    
C63   H29   S    
C13   C14   S    
C2    C62   A    
C25   C32   S    
C28   H8    S    
