data_mof_unit_45780.cif
_audit_creation_date              2012-12-10T19:01:19-0500
_audit_creation_method            fapswitch 2.2
_symmetry_space_group_name_H-M    P1
_symmetry_Int_Tables_number       1
_space_group_crystal_system       triclinic
_cell_length_a                    9.626865
_cell_length_b                    10.816691
_cell_length_c                    15.757271
_cell_angle_alpha                 89.633374
_cell_angle_beta                  72.832791
_cell_angle_gamma                 91.124944
_cell_volume                      1567.28513102

loop_
_atom_site_label
_atom_site_type_symbol
_atom_type_description
_atom_site_fract_x
_atom_site_fract_y
_atom_site_fract_z
_atom_type_partial_charge
C1    C     C_R   0.997414 0.263244 0.502208 0.898717
C2    C     C_R   0.674113 0.535699 0.907614 -0.027529
C3    C     C_R   0.779634 0.529429 0.953402 0.068053
C4    C     C_R   0.529288 0.567239 0.955832 -0.140234
C5    C     C_R   0.485477 0.557388 0.050153 -0.009240
C6    C     C_R   0.594070 0.555932 0.093974 0.408043
C7    C     C_R   0.738487 0.540639 0.044829 -0.319663
C8    C     C_R   0.430196 0.619003 0.914783 0.487983
C9    C     C_R   0.285023 0.633266 0.963700 -0.295079
C10   C     C_R   0.235659 0.597324 0.052889 0.007003
C11   C     C_R   0.334956 0.557318 0.096993 0.117942
C12   C     C_R   0.916166 0.498641 0.671592 0.823383
C13   C     C_R   0.087288 0.599297 0.097990 -0.276753
C14   C     C_R   0.033380 0.550038 0.183993 0.479604
C15   C     C_R   0.279761 0.514720 0.185511 -0.230227
C16   C     C_R   0.098704 0.066439 0.445349 -0.086558
C17   C     C_R   0.992242 0.130711 0.505320 -0.240738
C18   C     C_R   0.881856 0.062537 0.568638 0.441669
C19   C     C_R   0.889341 0.931676 0.572487 0.362794
C20   C     C_R   0.999225 0.869742 0.506494 -0.216987
C21   C     C_R   0.100770 0.942027 0.444140 -0.171240
C22   C     C_3   0.231013 0.943944 0.362185 0.307498
C23   C     C_R   0.000870 0.736991 0.500609 0.803813
C24   C     C_3   0.225286 0.086603 0.365308 0.328794
C25   C     C_R   0.605373 0.563561 0.436160 0.147827
C26   C     C_R   0.543943 0.430601 0.559321 -0.048502
C27   C     C_R   0.395673 0.430454 0.559314 -0.079853
C28   C     C_R   0.458923 0.561748 0.435289 0.164087
C29   C     C_3   0.462601 0.696355 0.414191 0.058580
C30   C     C_3   0.619048 0.700393 0.417117 0.198061
C31   C     C_R   0.083343 0.500576 0.328230 0.818482
C32   C     C_R   0.867215 0.503690 0.769113 -0.104854
C33   C     C_R   0.131443 0.517682 0.230833 -0.176742
C34   C     C_R   0.926450 0.514237 0.907388 -0.189688
C35   C     C_R   0.970613 0.507720 0.815621 -0.268645
C36   C     C_R   0.717465 0.505124 0.816256 0.435910
Cu1   Cu    Cu3+1 0.140670 0.499980 0.500000 0.943705
Cu2   Cu    Cu3+1 0.859330 0.500020 0.500000 1.009378
H1    H     H_    0.818907 0.536466 0.078783 0.175319
H2    H     H_    0.014083 0.638062 0.065293 0.145792
H3    H     H_    0.330017 0.912133 0.376744 0.097821
H4    H     H_    0.317345 0.134165 0.382296 0.039167
H5    H     H_    0.573924 0.376728 0.608856 0.173491
H6    H     H_    0.315691 0.375731 0.608622 0.142606
H7    H     H_    0.349358 0.473636 0.219759 0.216203
H8    H     H_    0.386049 0.751909 0.465928 0.137949
H9    H     H_    0.701166 0.724506 0.352752 0.179649
H10   H     H_    0.210250 0.669933 0.930687 0.164436
H11   H     H_    0.007857 0.510249 0.942145 0.149387
H12   H     H_    0.085782 0.502459 0.781363 0.186348
N1    N     N_R   0.648210 0.500930 0.499430 -0.189180
N2    N     N_R   0.352300 0.500890 0.499430 -0.206536
O1    O     O_R   0.118810 0.319640 0.500000 -0.592675
O2    O     O_R   0.881230 0.319680 0.499990 -0.577586
O3    O     O_R   0.055580 0.499970 0.629840 -0.604637
O4    O     O_R   0.818000 0.500010 0.629830 -0.517381
O5    O     O_R   0.118770 0.680320 0.500010 -0.605762
O6    O     O_R   0.881190 0.680360 0.500000 -0.527600
O7    O     O_R   0.182000 0.499990 0.370170 -0.588347
O8    O     O_R   0.944420 0.500030 0.370160 -0.550725
O9    O     O_3   0.776478 0.124100 0.632356 -0.560255
C37   C     C_3   0.643237 0.112155 0.612450 -0.239722
H13   H     H_    0.651495 0.152455 0.545905 0.147613
H14   H     H_    0.559733 0.163663 0.662620 0.161249
H15   H     H_    0.604178 0.014309 0.616149 0.201443
O10   O     O_3   0.791206 0.869827 0.642540 -0.729351
H16   H     H_    0.825483 0.785514 0.648506 0.323829
O11   O     O_3   0.217523 0.894236 0.281088 -0.546577
C38   C     C_3   0.073225 0.866242 0.281879 -0.157483
H17   H     H_    0.001123 0.946512 0.302566 0.187251
H18   H     H_    0.029837 0.784002 0.324521 0.137267
H19   H     H_    0.073773 0.842568 0.213405 0.169961
O12   O     O_3   0.181170 0.141068 0.295984 -0.554356
C39   C     C_3   0.305421 0.179434 0.227311 -0.279933
H20   H     H_    0.269906 0.219520 0.172349 0.178644
H21   H     H_    0.376232 0.100078 0.200419 0.195304
H22   H     H_    0.368108 0.252520 0.250474 0.140359
O13   O     O_3   0.454262 0.717589 0.328278 -0.687796
H23   H     H_    0.352625 0.696854 0.330120 0.380635
O14   O     O_3   0.636032 0.772356 0.487738 -0.714333
H24   H     H_    0.566512 0.741162 0.544134 0.335653
O15   O     O_3   0.884973 0.536402 0.221839 -0.609734
C40   C     C_3   0.846436 0.409525 0.219877 -0.332944
H25   H     H_    0.726415 0.398835 0.245561 0.191285
H26   H     H_    0.893114 0.351652 0.262716 0.192290
H27   H     H_    0.881206 0.372645 0.151202 0.151688
O16   O     O_3   0.618427 0.463389 0.774257 -0.684593
H28   H     H_    0.533714 0.425077 0.819345 0.319171
O17   O     O_3   0.560413 0.584072 0.182801 -0.714817
H29   H     H_    0.650597 0.600009 0.199258 0.376318
O18   O     O_3   0.474205 0.661405 0.827816 -0.556304
C41   C     C_3   0.518411 0.786514 0.827038 -0.236829
H30   H     H_    0.620919 0.795527 0.845717 0.172778
H31   H     H_    0.432185 0.843706 0.871239 0.139906
H32   H     H_    0.539360 0.823939 0.758686 0.225858

loop_
_geom_bond_atom_site_label_1
_geom_bond_atom_site_label_2
_ccdc_geom_bond_type
C23   O6    A    
O16   H28   S    
C16   C21   A    
C24   H4    S    
O12   C39   S    
C19   C20   A    
C4    C8    A    
C14   C33   A    
C25   C28   A    
C26   C27   A    
C37   H13   S    
C39   H21   S    
C32   C36   A    
C28   C29   S    
Cu1   Cu2   S    
C5    C11   A    
C3    C7    A    
C5    C6    A    
C24   O12   S    
C22   H3    S    
C19   O10   S    
C34   C35   A    
C31   O7    A    
C38   H18   S    
C1    O1    A    
C13   H2    S    
C37   H14   S    
Cu2   O6    S    
C11   C15   A    
C27   H6    S    
C29   O13   S    
C8    C9    A    
C39   H22   S    
C31   C33   S    
C9    C10   A    
Cu1   O1    S    
O10   H16   S    
C16   C24   S    
C21   C22   S    
C12   C32   S    
C38   H17   S    
C26   H5    S    
C36   O16   S    
C39   H20   S    
C32   C35   A    
C30   H9    S    
O18   C41   S    
Cu1   N2    S    
O13   H23   S    
C18   C19   A    
Cu2   N1    S    
C3    C34   A    
C41   H32   S    
C31   O8    A    
C38   H19   S    
C2    C4    A    
C1    O2    A    
C25   N1    A    
C29   C30   S    
C40   H25   S    
Cu2   O2    S    
C20   C23   S    
C35   H12   S    
C41   H31   S    
C17   C18   A    
C8    O18   S    
C12   O4    A    
C22   O11   S    
Cu1   O7    S    
Cu2   O8    S    
C40   H26   S    
C22   C24   S    
C14   O15   S    
C27   N2    A    
C2    C36   A    
C25   C30   S    
C23   O5    A    
C34   H11   S    
C37   H15   S    
O11   C38   S    
O14   H24   S    
C10   C13   A    
C18   O9    S    
C6    C7    A    
C6    O17   S    
C1    C17   S    
C29   H8    S    
C2    C3    A    
C30   O14   S    
C26   N1    A    
C28   N2    A    
C16   C17   A    
C41   H30   S    
O9    C37   S    
C12   O3    A    
C10   C11   A    
Cu1   O3    S    
C4    C5    A    
C40   H27   S    
Cu2   O4    S    
C20   C21   A    
C9    H10   S    
O15   C40   S    
C7    H1    S    
O17   H29   S    
C13   C14   A    
C15   C33   A    
Cu1   O5    S    
C15   H7    S    
