data_mof_unit_67009.cif
_audit_creation_date              2013-03-05T15:58:13-0500
_audit_creation_method            fapswitch 2.2
_symmetry_space_group_name_H-M    P1
_symmetry_Int_Tables_number       1
_space_group_crystal_system       triclinic
_cell_length_a                    8.180791
_cell_length_b                    12.746829
_cell_length_c                    14.195087
_cell_angle_alpha                 92.976415
_cell_angle_beta                  90.591432
_cell_angle_gamma                 98.390679
_cell_volume                      1462.19150709

loop_
_atom_site_label
_atom_site_type_symbol
_atom_site_description
_atom_site_fract_x
_atom_site_fract_y
_atom_site_fract_z
_atom_type_partial_charge
P1    P     P_3+3 0.054400 0.427280 0.286870 0.454823
O1    O     O_2   0.887370 0.460630 0.272300 -0.372563
O2    O     O_3   0.129410 0.451380 0.388510 -0.405906
O3    O     O_3   0.670210 0.653170 0.329170 -0.383926
O4    O     O_2   0.791283 0.592002 0.164951 -0.391786
O5    O     O_3   0.018982 0.290014 0.260915 -0.569880
O6    O     O_3   0.718263 0.784636 0.173588 -0.516391
H1    H     H_    0.745597 0.886244 0.292121 0.134433
C1    C     C_3   0.608963 0.948184 0.182178 -1.034564
H2    H     H_    0.565303 0.008223 0.231520 0.255408
H3    H     H_    0.718961 0.985659 0.144674 0.276202
P2    P     P_3+3 0.668300 0.742890 0.573060 0.500859
P3    P     P_3+3 0.133322 0.842583 0.375971 0.448349
O7    O     O_2   0.845380 0.761330 0.544970 -0.331418
O8    O     O_3   0.088930 0.704860 0.376040 -0.392687
O9    O     O_2   0.000362 0.888484 0.435337 -0.375927
O10   O     O_3   0.676982 0.757121 0.696441 -0.522300
O11   O     O_3   0.101793 0.882413 0.261745 -0.529282
C2    C     C_3   0.146358 0.805251 0.196475 0.473840
H4    H     H_    0.061812 0.729198 0.200604 0.151510
H5    H     H_    0.275395 0.791562 0.209121 0.012202
C3    C     C_3   0.133009 0.843113 0.097168 -0.944542
H6    H     H_    0.003459 0.853382 0.080878 0.291290
H7    H     H_    0.213861 0.920241 0.090826 0.253895
C4    C     C_3   0.247515 0.761745 0.663692 0.446181
H8    H     H_    0.345196 0.719641 0.633551 0.080512
H9    H     H_    0.152915 0.766821 0.608189 0.140262
C5    C     C_3   0.324456 0.873130 0.698962 -0.868468
H10   H     H_    0.441405 0.870024 0.738151 0.263374
H11   H     H_    0.348960 0.925546 0.639337 0.234435
H12   H     H_    0.239521 0.908152 0.747575 0.300109
Ba1   Ba    Ba6+2 0.855630 0.555280 0.454520 1.558073
C6    C     C_3   0.970356 0.236717 0.341753 0.371984
H13   H     H_    0.844816 0.251572 0.359234 0.093318
H14   H     H_    0.055768 0.261707 0.402592 0.141881
C7    C     C_3   0.969387 0.118594 0.320683 -0.891900
H15   H     H_    0.887399 0.091267 0.259051 0.258632
H16   H     H_    0.924087 0.073452 0.382124 0.227161
H17   H     H_    0.096400 0.102855 0.304623 0.274140
C8    C     C_3   0.713849 0.664853 0.735430 0.463912
H18   H     H_    0.831541 0.644973 0.707538 0.090202
H19   H     H_    0.613490 0.597544 0.719933 0.116928
C9    C     C_3   0.730213 0.685882 0.841938 -0.942120
H20   H     H_    0.838217 0.747599 0.859508 0.282385
H21   H     H_    0.746963 0.612654 0.877089 0.218001
H22   H     H_    0.616681 0.713958 0.869505 0.251749
P4    P     P_3+3 0.135310 0.572810 0.713130 0.453270
O12   O     O_2   0.302330 0.539400 0.727760 -0.375393
O13   O     O_3   0.060300 0.548700 0.611500 -0.406760
O14   O     O_3   0.519500 0.346920 0.670840 -0.350130
O15   O     O_3   0.173701 0.709651 0.739944 -0.568947
P5    P     P_3+3 0.062232 0.158203 0.627420 0.539294
O16   O     O_3   0.614310 0.373510 0.452640 -0.394710
O17   O     O_3   0.100780 0.295230 0.623970 -0.398265
O18   O     O_2   0.199063 0.113007 0.570766 -0.345323
O19   O     O_3   0.095596 0.125610 0.743641 -0.462249
Ba2   Ba    Ba6+2 0.334200 0.444810 0.545490 1.556237
P6    P     P_3+3 0.658230 0.654483 0.206503 0.453981
C10   C     C_3   0.651785 0.855749 0.236424 0.469501
H23   H     H_    0.537598 0.819898 0.271277 0.027306
H24   H     H_    0.509862 0.919230 0.129166 0.264358
O20   O     O_3   0.575400 0.626570 0.547370 -0.422009
C11   C     C_3   0.475457 0.310406 0.257763 0.439157
H25   H     H_    0.358494 0.332392 0.285995 0.100469
H26   H     H_    0.577045 0.377629 0.271189 0.120688
C12   C     C_3   0.454656 0.288286 0.151600 -1.003910
H27   H     H_    0.348975 0.224308 0.135810 0.274478
H28   H     H_    0.430798 0.360972 0.117336 0.228466
H29   H     H_    0.568874 0.263071 0.122073 0.257177
P7    P     P_3+3 0.526883 0.241796 0.421283 0.418833
O21   O     O_2   0.344320 0.238700 0.455090 -0.373800
O22   O     O_3   0.513125 0.218790 0.298600 -0.585889
H30   H     H_    0.171680 0.783754 0.045225 0.222561
C13   C     C_3   0.030032 0.198464 0.804703 0.573961
H31   H     H_    0.110411 0.276829 0.806583 0.118392
H32   H     H_    0.902823 0.208117 0.782264 -0.038112
C14   C     C_3   0.023383 0.158227 0.903857 -0.966653
H33   H     H_    0.149486 0.150077 0.929246 0.281685
H34   H     H_    0.971435 0.215037 0.952789 0.212727
H35   H     H_    0.943761 0.079814 0.904096 0.279304
P8    P     P_3+3 0.533571 0.346071 0.793960 0.457547
C15   C     C_3   0.553129 0.152940 0.834967 0.426390
H36   H     H_    0.670207 0.189812 0.870618 0.041419
O23   O     O_2   0.420722 0.423834 0.833719 -0.385419
O24   O     O_3   0.437476 0.223919 0.831501 -0.495801
H37   H     H_    0.577487 0.122864 0.762230 0.106843
H38   H     H_    0.472860 0.088984 0.968136 0.246313
C16   C     C_3   0.483140 0.060573 0.893355 -0.931367
H39   H     H_    0.565777 0.998749 0.890289 0.256528
H40   H     H_    0.358402 0.025463 0.866489 0.275320
C17   C     C_R   0.986565 0.443323 0.061294 -0.119685
C18   C     C_R   0.183639 0.498621 0.196159 0.254387
C19   C     C_R   0.338836 0.550313 0.226294 -0.530429
C20   C     C_R   0.451434 0.597441 0.162607 0.261427
C21   C     C_R   0.406247 0.600801 0.067880 -0.309459
C22   C     C_R   0.249329 0.552264 0.035016 0.053676
C23   C     C_R   0.138136 0.497191 0.098287 -0.006857
H41   H     H_    0.375310 0.549895 0.299749 0.179900
C24   C     C_R   0.054256 0.501517 0.901898 -0.006207
C25   C     C_R   0.943212 0.446470 0.965245 0.072590
C26   C     C_R   0.009515 0.498467 0.803741 0.250389
C27   C     C_R   0.857882 0.441608 0.772982 -0.510649
C28   C     C_R   0.744486 0.395581 0.836847 0.209722
C29   C     C_R   0.787048 0.396869 0.932366 -0.337818
C30   C     C_R   0.205098 0.556436 0.939112 -0.120191
H42   H     H_    0.494201 0.640141 0.019904 0.160799
H43   H     H_    0.697594 0.360157 0.980930 0.154774
H44   H     H_    0.822576 0.439786 0.699178 0.173793
H45   H     H_    0.900318 0.398138 0.106329 0.165837
H46   H     H_    0.290952 0.601985 0.894114 0.169483
C31   C     C_R   0.769862 0.177366 0.531590 -0.546989
C32   C     C_R   0.428756 0.815544 0.465351 -0.518527
C33   C     C_R   0.406471 0.995321 0.429889 -0.177495
C34   C     C_R   0.340416 0.888575 0.426695 0.224748
C35   C     C_R   0.574589 0.848681 0.517585 0.285500
C36   C     C_R   0.638866 0.959689 0.528307 -0.216817
C37   C     C_R   0.556095 0.032570 0.479072 -0.068382
C38   C     C_R   0.621678 0.141810 0.483347 0.286020
C39   C     C_R   0.854895 0.107491 0.576895 0.096511
C40   C     C_R   0.782586 0.001904 0.584080 0.297188
H47   H     H_    0.337181 0.048244 0.394942 0.174936
H48   H     H_    0.822113 0.260412 0.531682 0.179335
H49   H     H_    0.378526 0.732066 0.458998 0.170734
N1    N     N_R   0.837203 0.948251 0.661380 0.264831
O25   O     O_R   0.982127 0.918401 0.658765 -0.362698
O26   O     O_R   0.771035 0.962324 0.743134 -0.444233

loop_
_geom_bond_atom_site_label_1
_geom_bond_atom_site_label_2
_geom_bond_distance
_ccdc_geom_bond_type
C12   H28   1.109383 S    
H38   C16   1.111689 S    
C11   H26   1.110490 S    
C19   C20   1.392393 A    
P4    C26   1.865674 S    
C21   C22   1.405069 A    
C30   H46   1.080364 S    
C32   C34   1.389675 A    
O12   Ba2   2.828030 S    
P4    O13   1.559768 S    
C14   H33   1.110140 S    
C4    C5    1.523667 S    
C26   C27   1.395811 A    
C13   H32   1.110938 S    
O4    P6    1.544167 D    
C31   C38   1.390772 A    
C1    H24   1.109506 S    
O1    Ba1   2.827524 S    
C5    H10   1.108477 S    
C2    H5    1.109107 S    
O11   C2    1.405604 S    
H1    C10   1.110703 S    
C12   H29   1.110774 S    
C35   C36   1.435523 A    
C25   C29   1.403927 A    
C6    C7    1.518661 S    
O13   Ba2   2.903960 S    
C36   C37   1.432206 A    
C31   C39   1.386322 A    
P1    O1    1.504483 D    
C8    C9    1.522777 S    
C24   C25   1.422165 A    
C13   C14   1.521672 S    
P2    O10   1.751009 S    
C27   H44   1.082041 S    
P7    O21   1.569070 D    
C17   C25   1.409313 A    
C1    H2    1.110465 S    
O6    P6    1.749101 S    
P3    C34   1.836721 S    
P5    O18   1.546081 D    
P2    C35   1.850896 S    
C8    H19   1.108910 S    
C12   H27   1.110856 S    
C11   C12   1.521860 S    
C10   H23   1.111148 S    
P2    Ba1   3.406448 S    
C31   H48   1.082169 S    
C27   C28   1.392982 A    
Ba1   Ba2   4.546608 S    
O16   P7    1.758940 S    
O6    C10   1.408188 S    
P5    O17   1.732371 S    
C18   C23   1.433097 A    
C14   H34   1.109570 S    
C24   C30   1.409934 A    
C11   O22   1.402289 S    
O19   C13   1.404555 S    
C13   H31   1.111792 S    
P1    O5    1.750445 S    
Ba2   O20   2.814319 S    
C2    C3    1.521462 S    
C32   H49   1.082087 S    
C5    H12   1.107579 S    
O16   Ba2   2.891367 S    
P4    O15   1.747795 S    
C4    H8    1.103657 S    
C15   H37   1.112731 S    
P1    Ba1   3.379455 S    
Ba2   O21   2.876028 S    
C36   C40   1.432001 A    
C1    C10   1.520872 S    
O10   C8    1.395793 S    
C9    H20   1.110851 S    
C4    O15   1.395812 S    
C21   H42   1.083179 S    
P4    Ba2   3.379907 S    
P2    O20   1.586907 S    
P4    O12   1.504849 D    
C22   C23   1.422278 A    
C6    H13   1.099699 S    
C20   C21   1.395317 A    
C17   C23   1.409038 A    
C9    H21   1.106034 S    
O3    Ba1   2.784106 S    
C33   C37   1.410486 A    
P3    O11   1.751702 S    
C8    H18   1.103010 S    
C24   C26   1.434080 A    
C16   H40   1.108161 S    
P1    C18   1.863317 S    
C1    H3    1.110058 S    
C3    H7    1.110321 S    
C7    H16   1.107096 S    
O2    Ba2   2.786139 S    
Ba1   O16   2.814981 S    
P8    O23   1.540483 D    
C22   C30   1.410684 A    
N1    O26   1.300636 A    
C33   C34   1.387083 A    
P8    C28   1.834854 S    
C14   H35   1.110730 S    
C7    H15   1.106649 S    
O14   Ba2   2.783513 S    
C7    H17   1.110341 S    
O7    Ba1   2.875806 S    
O8    Ba1   2.778773 S    
C39   C40   1.398182 A    
C4    H9    1.109576 S    
C15   O24   1.403445 S    
O5    C6    1.395729 S    
C17   H45   1.080364 S    
C2    H4    1.110271 S    
P3    O8    1.740087 S    
P2    O7    1.495034 D    
Ba1   O20   2.892143 S    
C37   C38   1.415284 A    
P7    C38   1.841974 S    
C15   C16   1.521656 S    
C5    H11   1.107289 S    
C18   C19   1.394453 A    
C6    H14   1.108857 S    
C29   H43   1.083387 S    
P6    C20   1.830627 S    
O2    Ba1   2.903203 S    
C9    H22   1.110765 S    
Ba1   O13   2.785572 S    
C11   H25   1.108698 S    
P5    C39   1.848245 S    
P5    O19   1.750370 S    
C33   H47   1.078441 S    
C16   H39   1.110179 S    
C15   H36   1.108280 S    
P3    O9    1.545664 D    
O3    P6    1.744099 S    
C28   C29   1.395083 A    
C3    H6    1.110139 S    
P7    O22   1.750646 S    
C3    H30   1.110399 S    
P1    O2    1.559886 S    
C19   H41   1.082080 S    
C32   C35   1.397733 A    
P8    O24   1.750420 S    
C40   N1    1.424222 S    
O14   P8    1.751004 S    
N1    O25   1.297258 A    
O17   Ba2   2.779353 S    
