data_mof_unit_60443.cif
_audit_creation_date              2012-12-10T18:15:25-0500
_audit_creation_method            fapswitch 2.2
_symmetry_space_group_name_H-M    P1
_symmetry_Int_Tables_number       1
_space_group_crystal_system       tetragonal
_cell_length_a                    18.354107
_cell_length_b                    18.354107
_cell_length_c                    39.678931
_cell_angle_alpha                 90.0
_cell_angle_beta                  90.0
_cell_angle_gamma                 90.0
_cell_volume                      13366.7701952

loop_
_atom_site_label
_atom_site_type_symbol
_atom_type_description
_atom_site_fract_x
_atom_site_fract_y
_atom_site_fract_z
_atom_type_partial_charge
C1    C     C_R   0.933973 0.500000 0.431258 -0.116398
C2    C     C_R   0.566026 0.000000 0.068742 -0.116398
C3    C     C_R   0.309889 0.743533 0.728428 -0.136296
C4    C     C_R   0.256466 0.309888 0.271572 -0.136296
C5    C     C_R   0.743533 0.690111 0.728428 -0.136296
C6    C     C_R   0.309889 0.743533 0.271572 -0.136296
C7    C     C_R   0.690111 0.256467 0.728428 -0.136296
C8    C     C_R   0.196300 0.696300 0.250000 0.040078
C9    C     C_R   0.803700 0.303699 0.750000 0.040078
C10   C     C_R   0.303699 0.196300 0.250000 0.040078
C11   C     C_R   0.696300 0.803700 0.750000 0.040078
C12   C     C_R   0.803700 0.303699 0.250000 0.040078
C13   C     C_R   0.000000 0.433973 0.931258 -0.116398
C14   C     C_R   0.196300 0.696300 0.750000 0.040078
C15   C     C_R   0.696300 0.803700 0.250000 0.040078
C16   C     C_R   0.303699 0.196300 0.750000 0.040078
C17   C     C_R   0.196300 0.303699 0.750000 0.040078
C18   C     C_R   0.803700 0.696300 0.250000 0.040078
C19   C     C_R   0.303699 0.803700 0.750000 0.040078
C20   C     C_R   0.696300 0.196300 0.250000 0.040078
C21   C     C_R   0.803700 0.696300 0.750000 0.040078
C22   C     C_R   0.196300 0.303699 0.250000 0.040078
C23   C     C_R   0.696300 0.196300 0.750000 0.040078
C24   C     C_R   0.000000 0.566026 0.068742 -0.116398
C25   C     C_R   0.303699 0.803700 0.250000 0.040078
C26   C     C_R   0.000000 0.500000 0.378184 0.034273
C27   C     C_R   1.000000 0.500000 0.621815 0.034273
C28   C     C_R   0.500000 0.000000 0.378184 0.034273
C29   C     C_R   0.500000 0.000000 0.621815 0.034273
C30   C     C_R   0.500000 0.000000 0.878185 0.034273
C31   C     C_R   0.500000 1.000000 0.121815 0.034273
C32   C     C_R   0.000000 0.500000 0.878185 0.034273
C33   C     C_R   1.000000 0.500000 0.121815 0.034273
C34   C     C_R   0.566026 0.000000 0.931258 -0.116398
C35   C     C_R   0.433973 0.000000 0.068742 -0.116398
C36   C     C_R   0.000000 0.566026 0.931258 -0.116398
C37   C     C_R   0.000000 0.433973 0.068742 -0.116398
C38   C     C_R   0.933886 0.500000 0.396100 -0.126294
C39   C     C_R   0.066113 0.500000 0.603900 -0.126294
C40   C     C_R   0.500000 0.933886 0.396100 -0.126294
C41   C     C_R   0.066027 0.500000 0.568742 -0.116398
C42   C     C_R   0.500000 0.066113 0.603900 -0.126294
C43   C     C_R   0.066113 0.500000 0.396100 -0.126294
C44   C     C_R   0.933886 0.500000 0.603900 -0.126294
C45   C     C_R   0.500000 0.066113 0.396100 -0.126294
C46   C     C_R   0.500000 0.933886 0.603900 -0.126294
C47   C     C_R   0.433887 0.000000 0.896100 -0.126294
C48   C     C_R   0.566113 0.000000 0.103900 -0.126294
C49   C     C_R   0.000000 0.433887 0.896100 -0.126294
C50   C     C_R   0.000000 0.566113 0.103900 -0.126294
C51   C     C_R   0.566113 0.000000 0.896100 -0.126294
C52   C     C_R   0.500000 0.933973 0.431258 -0.116398
C53   C     C_R   0.433887 0.000000 0.103900 -0.126294
C54   C     C_R   0.000000 0.566113 0.896100 -0.126294
C55   C     C_R   1.000000 0.433887 0.103900 -0.126294
C56   C     C_R   1.000000 0.500000 0.448812 0.038401
C57   C     C_R   1.000000 0.500000 0.551188 0.038401
C58   C     C_R   0.500000 1.000000 0.448812 0.038401
C59   C     C_R   0.500000 0.000000 0.551188 0.038401
C60   C     C_R   0.500000 0.000000 0.948812 0.038401
C61   C     C_R   0.500000 0.000000 0.051188 0.038401
C62   C     C_R   0.000000 0.500000 0.948812 0.038401
C63   C     C_R   0.500000 0.066027 0.568742 -0.116398
C64   C     C_R   1.000000 0.500000 0.051188 0.038401
C65   C     C_1   1.000000 0.500000 0.484871 -0.029125
C66   C     C_1   0.000000 0.500000 0.515129 -0.029125
C67   C     C_1   0.500000 1.000000 0.484871 -0.029125
C68   C     C_1   0.500000 0.000000 0.515129 -0.029125
C69   C     C_1   0.500000 0.000000 0.984871 -0.029125
C70   C     C_1   0.500000 0.000000 0.015129 -0.029125
C71   C     C_1   0.000000 0.500000 0.984871 -0.029125
C72   C     C_1   0.000000 0.500000 0.015129 -0.029125
C73   C     C_R   0.500000 0.000000 0.341052 0.501826
C74   C     C_R   0.066027 0.500000 0.431258 -0.116398
C75   C     C_R   0.500000 0.000000 0.658948 0.501826
C76   C     C_R   0.000000 0.500000 0.341052 0.501826
C77   C     C_R   0.000000 0.500000 0.658948 0.501826
C78   C     C_R   0.000000 0.500000 0.841051 0.501826
C79   C     C_R   0.000000 0.500000 0.158948 0.501826
C80   C     C_R   0.500000 0.000000 0.841051 0.501826
C81   C     C_R   0.500000 0.000000 0.158948 0.501826
C82   C     C_R   0.359803 0.140196 0.250000 0.507608
C83   C     C_R   0.640196 0.859804 0.750000 0.507608
C84   C     C_R   0.859804 0.359803 0.250000 0.507609
C85   C     C_R   0.933973 0.500000 0.568742 -0.116398
C86   C     C_R   0.140196 0.640196 0.750000 0.507609
C87   C     C_R   0.640196 0.859804 0.250000 0.507608
C88   C     C_R   0.359803 0.140196 0.750000 0.507608
C89   C     C_R   0.140196 0.640196 0.250000 0.507609
C90   C     C_R   0.859804 0.359803 0.750000 0.507609
C91   C     C_R   0.359803 0.859804 0.750000 0.507609
C92   C     C_R   0.640196 0.140196 0.250000 0.507609
C93   C     C_R   0.859804 0.640196 0.750000 0.507608
C94   C     C_R   0.140196 0.359803 0.250000 0.507608
C95   C     C_R   0.640196 0.140196 0.750000 0.507609
C96   C     C_R   0.500000 0.066027 0.431258 -0.116398
C97   C     C_R   0.359803 0.859804 0.250000 0.507609
C98   C     C_R   0.140196 0.359803 0.750000 0.507608
C99   C     C_R   0.859804 0.640196 0.250000 0.507608
C100  C     C_R   0.243533 0.809889 0.228428 -0.136296
C101  C     C_R   0.756467 0.190111 0.771572 -0.136296
C102  C     C_R   0.190111 0.243534 0.228428 -0.136296
C103  C     C_R   0.809888 0.756466 0.771572 -0.136296
C104  C     C_R   0.756467 0.190111 0.228428 -0.136296
C105  C     C_R   0.243533 0.809889 0.771572 -0.136296
C106  C     C_R   0.809888 0.756466 0.228428 -0.136296
C107  C     C_R   0.500000 0.933973 0.568742 -0.116398
C108  C     C_R   0.190111 0.243534 0.771572 -0.136296
C109  C     C_R   0.243534 0.190111 0.771572 -0.136296
C110  C     C_R   0.756466 0.809888 0.228428 -0.136296
C111  C     C_R   0.190111 0.756467 0.771572 -0.136296
C112  C     C_R   0.809889 0.243533 0.228428 -0.136296
C113  C     C_R   0.756466 0.809888 0.771572 -0.136296
C114  C     C_R   0.243534 0.190111 0.228428 -0.136296
C115  C     C_R   0.809889 0.243533 0.771572 -0.136296
C116  C     C_R   0.190111 0.756467 0.228428 -0.136296
C117  C     C_R   0.743533 0.309889 0.728428 -0.136296
C118  C     C_R   0.433973 0.000000 0.931258 -0.116398
C119  C     C_R   0.256467 0.690111 0.271572 -0.136296
C120  C     C_R   0.690111 0.743533 0.728428 -0.136296
C121  C     C_R   0.309888 0.256466 0.271572 -0.136296
C122  C     C_R   0.256467 0.690111 0.728428 -0.136296
C123  C     C_R   0.743533 0.309889 0.271572 -0.136296
C124  C     C_R   0.309888 0.256466 0.728428 -0.136296
C125  C     C_R   0.690111 0.743533 0.271572 -0.136296
C126  C     C_R   0.743533 0.690111 0.271572 -0.136296
C127  C     C_R   0.256466 0.309888 0.728428 -0.136296
C128  C     C_R   0.690111 0.256467 0.271572 -0.136296
H1    H     H_    0.882626 0.500000 0.444738 0.110173
H2    H     H_    0.617374 0.000000 0.055262 0.110173
H3    H     H_    0.000000 0.382626 0.944738 0.110173
H4    H     H_    0.000000 0.617374 0.055262 0.110173
H5    H     H_    0.617374 0.000000 0.944738 0.110173
H6    H     H_    0.382626 1.000000 0.055262 0.110173
H7    H     H_    0.000000 0.617374 0.944738 0.110173
H8    H     H_    1.000000 0.382626 0.055262 0.110173
H9    H     H_    0.237669 0.855913 0.211559 0.136326
H10   H     H_    0.762331 0.144087 0.788441 0.136326
H11   H     H_    0.144087 0.237670 0.211559 0.136326
H12   H     H_    0.117374 0.500000 0.555262 0.110173
H13   H     H_    0.855913 0.762330 0.788441 0.136326
H14   H     H_    0.762331 0.144087 0.211559 0.136326
H15   H     H_    0.237669 0.855913 0.788441 0.136326
H16   H     H_    0.855913 0.762330 0.211559 0.136326
H17   H     H_    0.144087 0.237670 0.788441 0.136326
H18   H     H_    0.237670 0.144087 0.788441 0.136326
H19   H     H_    0.762330 0.855913 0.211559 0.136326
H20   H     H_    0.144087 0.762331 0.788441 0.136326
H21   H     H_    0.855913 0.237669 0.211559 0.136326
H22   H     H_    0.762330 0.855913 0.788441 0.136326
H23   H     H_    0.500000 0.882626 0.444738 0.110173
H24   H     H_    0.237670 0.144087 0.211559 0.136326
H25   H     H_    0.855913 0.237669 0.788441 0.136326
H26   H     H_    0.144087 0.762331 0.211559 0.136326
H27   H     H_    0.737669 0.355913 0.711559 0.136326
H28   H     H_    0.262331 0.644087 0.288441 0.136326
H29   H     H_    0.644087 0.737670 0.711559 0.136326
H30   H     H_    0.355913 0.262330 0.288441 0.136326
H31   H     H_    0.262331 0.644087 0.711559 0.136326
H32   H     H_    0.737669 0.355913 0.288441 0.136326
H33   H     H_    0.355913 0.262330 0.711559 0.136326
H34   H     H_    0.500000 0.117374 0.555262 0.110173
H35   H     H_    0.644087 0.737670 0.288441 0.136326
H36   H     H_    0.737670 0.644087 0.288441 0.136326
H37   H     H_    0.262330 0.355913 0.711559 0.136326
H38   H     H_    0.644087 0.262331 0.288441 0.136326
H39   H     H_    0.355913 0.737669 0.711559 0.136326
H40   H     H_    0.262330 0.355913 0.288441 0.136326
H41   H     H_    0.737670 0.644087 0.711559 0.136326
H42   H     H_    0.355913 0.737669 0.288441 0.136326
H43   H     H_    0.644087 0.262331 0.711559 0.136326
H44   H     H_    0.882138 0.500000 0.382990 0.132651
H45   H     H_    0.117374 0.500000 0.444738 0.110173
H46   H     H_    0.117862 0.500000 0.617010 0.132651
H47   H     H_    0.500000 0.882138 0.382990 0.132651
H48   H     H_    0.500000 0.117862 0.617010 0.132651
H49   H     H_    0.117862 0.500000 0.382990 0.132651
H50   H     H_    0.882138 0.500000 0.617010 0.132651
H51   H     H_    0.500000 0.117862 0.382990 0.132651
H52   H     H_    0.500000 0.882138 0.617010 0.132651
H53   H     H_    0.382138 0.000000 0.882990 0.132651
H54   H     H_    0.617862 0.000000 0.117010 0.132651
H55   H     H_    0.000000 0.382138 0.882990 0.132651
H56   H     H_    0.882626 0.500000 0.555262 0.110173
H57   H     H_    0.000000 0.617862 0.117010 0.132651
H58   H     H_    0.617862 0.000000 0.882990 0.132651
H59   H     H_    0.382138 0.000000 0.117010 0.132651
H60   H     H_    0.000000 0.617862 0.882990 0.132651
H61   H     H_    0.000000 0.382138 0.117010 0.132651
H62   H     H_    0.500000 0.117374 0.444738 0.110173
H63   H     H_    0.500000 0.882626 0.555262 0.110173
H64   H     H_    0.382626 0.000000 0.944738 0.110173
O1    O     O_3   0.500000 0.000000 0.250000 -0.431558
O2    O     O_R   0.500000 0.939240 0.675070 -0.547129
O3    O     O_R   0.939240 0.500000 0.324930 -0.547129
O4    O     O_R   0.060760 0.500000 0.675070 -0.547129
O5    O     O_R   0.000000 0.439240 0.824930 -0.547129
O6    O     O_R   0.000000 0.560760 0.175070 -0.547129
O7    O     O_R   0.560760 0.000000 0.824930 -0.547129
O8    O     O_R   0.439240 0.000000 0.175070 -0.547129
O9    O     O_R   0.000000 0.560760 0.824930 -0.547129
O10   O     O_R   0.000000 0.439240 0.175070 -0.547129
O11   O     O_R   0.439240 0.000000 0.824930 -0.547129
O12   O     O_3   0.500000 0.000000 0.750000 -0.431558
O13   O     O_R   0.560760 0.000000 0.175070 -0.547129
O14   O     O_R   0.414510 0.146130 0.269710 -0.549092
O15   O     O_R   0.585490 0.853870 0.730290 -0.549092
O16   O     O_R   0.853870 0.414510 0.269710 -0.549092
O17   O     O_R   0.146130 0.585490 0.730290 -0.549092
O18   O     O_R   0.585490 0.853870 0.269710 -0.549092
O19   O     O_R   0.414510 0.146130 0.730290 -0.549092
O20   O     O_R   0.146130 0.585490 0.269710 -0.549092
O21   O     O_R   0.853870 0.414510 0.730290 -0.549092
O22   O     O_R   0.414510 0.853870 0.730290 -0.549092
O23   O     O_3   0.000000 0.500000 0.250000 -0.431558
O24   O     O_R   0.585490 0.146130 0.269710 -0.549092
O25   O     O_R   0.853870 0.585490 0.730290 -0.549092
O26   O     O_R   0.146130 0.414510 0.269710 -0.549092
O27   O     O_R   0.585490 0.146130 0.730290 -0.549092
O28   O     O_R   0.414510 0.853870 0.269710 -0.549092
O29   O     O_R   0.146130 0.414510 0.730290 -0.549092
O30   O     O_R   0.853870 0.585490 0.269710 -0.549092
O31   O     O_R   0.914510 0.646130 0.769710 -0.549092
O32   O     O_R   0.085490 0.353870 0.230290 -0.549092
O33   O     O_R   0.353870 0.914510 0.769710 -0.549092
O34   O     O_3   0.000000 0.500000 0.750000 -0.431558
O35   O     O_R   0.646130 0.085490 0.230290 -0.549092
O36   O     O_R   0.085490 0.353870 0.769710 -0.549092
O37   O     O_R   0.914510 0.646130 0.230290 -0.549092
O38   O     O_R   0.646130 0.085490 0.769710 -0.549092
O39   O     O_R   0.353870 0.914510 0.230290 -0.549092
O40   O     O_R   0.914510 0.353870 0.230290 -0.549092
O41   O     O_R   0.085490 0.646130 0.769710 -0.549092
O42   O     O_R   0.353870 0.085490 0.230290 -0.549092
O43   O     O_R   0.646130 0.914510 0.769710 -0.549092
O44   O     O_R   0.085490 0.646130 0.230290 -0.549092
O45   O     O_R   0.500000 0.939240 0.324930 -0.547129
O46   O     O_R   0.914510 0.353870 0.769710 -0.549092
O47   O     O_R   0.646130 0.914510 0.230290 -0.549092
O48   O     O_R   0.353870 0.085490 0.769710 -0.549092
O49   O     O_R   0.500000 0.060760 0.675070 -0.547129
O50   O     O_R   0.060760 0.500000 0.324930 -0.547129
O51   O     O_R   0.939240 0.500000 0.675070 -0.547129
O52   O     O_R   0.500000 0.060760 0.324930 -0.547129
Zn1   Zn    Zn3+2 0.413200 0.000000 0.222070 0.932637
Zn2   Zn    Zn3+2 0.086800 0.500000 0.277930 0.932637
Zn3   Zn    Zn3+2 0.500000 0.913200 0.722070 0.932637
Zn4   Zn    Zn3+2 0.500000 0.086800 0.277930 0.932637
Zn5   Zn    Zn3+2 0.086800 0.500000 0.722070 0.932637
Zn6   Zn    Zn3+2 0.913200 0.500000 0.277930 0.932637
Zn7   Zn    Zn3+2 0.500000 0.086800 0.722070 0.932637
Zn8   Zn    Zn3+2 0.500000 0.913200 0.277930 0.932637
Zn9   Zn    Zn3+2 0.586800 0.000000 0.777930 0.932637
Zn10  Zn    Zn3+2 0.000000 0.413200 0.222070 0.932637
Zn11  Zn    Zn3+2 1.000000 0.586800 0.777930 0.932637
Zn12  Zn    Zn3+2 0.586800 0.000000 0.222070 0.932637
Zn13  Zn    Zn3+2 0.413200 0.000000 0.777930 0.932637
Zn14  Zn    Zn3+2 1.000000 0.586800 0.222070 0.932637
Zn15  Zn    Zn3+2 0.000000 0.413200 0.777930 0.932637
Zn16  Zn    Zn3+2 0.913200 0.500000 0.722070 0.932637

loop_
_geom_bond_atom_site_label_1
_geom_bond_atom_site_label_2
_ccdc_geom_bond_type
C61   C70   S    
C33   C55   A    
C63   H34   S    
C34   C60   A    
C30   C51   A    
O3    Zn6   S    
C119  H28   S    
C14   C122  A    
C7    H43   S    
C29   C42   A    
O34   Zn5   S    
C9    C117  A    
C7    C117  A    
C76   O50   A    
C109  H18   S    
C100  C116  A    
C78   O9    A    
C114  H24   S    
C57   C66   S    
C47   H53   S    
C10   C121  A    
C81   O8    A    
O36   Zn15  S    
C3    H39   S    
C39   C41   A    
C97   O39   A    
C20   C92   S    
C34   C51   A    
O50   Zn2   S    
O25   Zn16  S    
C23   C95   S    
C102  C114  A    
C31   C81   S    
C55   H61   S    
C89   O44   A    
C15   C87   S    
C103  C113  A    
C77   O4    A    
C20   C128  A    
C91   O22   A    
C1    H1    S    
C29   C75   S    
C6    H42   S    
C126  H36   S    
C6    C25   A    
C35   C53   A    
C123  H32   S    
C28   C40   A    
C33   C79   S    
C56   C65   S    
C88   O48   A    
C98   O29   A    
C121  H30   S    
C94   O26   A    
C37   C55   A    
C108  C109  A    
C12   C84   S    
C84   O40   A    
C93   O25   A    
O1    Zn8   S    
C96   H62   S    
C58   C96   A    
C41   H12   S    
C83   O15   A    
C49   H55   S    
O12   Zn7   S    
C118  H64   S    
C27   C44   A    
C47   C118  A    
C13   C62   A    
C92   O35   A    
C27   C39   A    
C88   O19   A    
O49   Zn7   S    
O4    Zn5   S    
C117  H27   S    
O23   Zn6   S    
C26   C76   S    
C122  H31   S    
C86   O17   A    
O45   Zn8   S    
C3    C19   A    
O22   Zn3   S    
C78   O5    A    
O48   Zn13  S    
C17   C98   S    
C116  H26   S    
C10   C114  A    
C3    C122  A    
O5    Zn15  S    
C102  H11   S    
C30   C80   S    
O37   Zn14  S    
O38   Zn9   S    
C43   C74   A    
C125  C126  A    
C105  C111  A    
C99   O30   A    
C24   C64   A    
C79   O6    A    
O27   Zn7   S    
C115  H25   S    
C95   O38   A    
C94   O32   A    
C22   C94   S    
C15   C110  A    
O39   Zn1   S    
C4    C121  A    
C39   H46   S    
C36   C62   A    
C11   C120  A    
C103  H13   S    
C35   H6    S    
O18   Zn8   S    
C99   O37   A    
C2    C61   A    
C73   O52   A    
C26   C43   A    
C89   O20   A    
C98   O36   A    
C24   C50   A    
C14   C111  A    
C28   C45   A    
C37   H8    S    
C86   O41   A    
C56   C74   A    
C90   O46   A    
C5    C120  A    
O32   Zn10  S    
C67   C68   T    
C9    C115  A    
O1    Zn12  S    
C46   H52   S    
C30   C47   A    
C87   O47   A    
O43   Zn9   S    
C74   H45   S    
C35   C61   A    
C17   C108  A    
O34   Zn16  S    
C41   C57   A    
C104  C112  A    
C8    C116  A    
C17   C127  A    
C45   H51   S    
C34   H5    S    
C2    C48   A    
C33   C50   A    
C40   C52   A    
C80   O7    A    
C10   C82   S    
O23   Zn10  S    
C59   C107  A    
C4    H40   S    
C21   C103  A    
O34   Zn15  S    
O14   Zn4   S    
C18   C106  A    
C73   O45   A    
C75   O49   A    
C76   O3    A    
C59   C68   S    
C4    C22   A    
O12   Zn13  S    
C84   O16   A    
C25   C100  A    
C95   O27   A    
C127  H37   S    
C79   O10   A    
O52   Zn4   S    
C46   C107  A    
C13   H3    S    
C97   O28   A    
O40   Zn10  S    
O46   Zn15  S    
C93   O31   A    
O16   Zn6   S    
C31   C53   A    
C60   C118  A    
C16   C109  A    
C14   C86   S    
O13   Zn12  S    
C52   C58   A    
C1    C38   A    
C32   C54   A    
C124  C127  A    
C13   C49   A    
O30   Zn6   S    
O20   Zn2   S    
O34   Zn11  S    
O6    Zn14  S    
C83   O43   A    
C85   H56   S    
O2    Zn3   S    
O28   Zn8   S    
O21   Zn16  S    
C120  H29   S    
C101  C115  A    
C87   O18   A    
C104  H14   S    
C18   C99   S    
C9    C90   S    
C44   H50   S    
C110  H19   S    
C36   H7    S    
O26   Zn2   S    
C6    C119  A    
C82   O14   A    
C37   C64   A    
O12   Zn9   S    
O23   Zn14  S    
C81   O13   A    
C108  H17   S    
C106  C110  A    
C25   C97   S    
C91   O33   A    
C43   H49   S    
C5    H41   S    
C28   C73   S    
C77   O51   A    
O44   Zn14  S    
C113  H22   S    
C1    C56   A    
C19   C91   S    
O7    Zn9   S    
C106  H16   S    
O29   Zn5   S    
C27   C77   S    
O15   Zn3   S    
O8    Zn1   S    
C105  H15   S    
C40   H47   S    
C101  H10   S    
C128  H38   S    
C38   H44   S    
O35   Zn12  S    
C20   C104  A    
O24   Zn4   S    
C124  H33   S    
C59   C63   A    
C22   C102  A    
C54   H60   S    
C29   C46   A    
C31   C48   A    
C26   C38   A    
C82   O42   A    
C53   H59   S    
O33   Zn13  S    
C71   C72   T    
O42   Zn1   S    
C51   H58   S    
O9    Zn11  S    
C111  H20   S    
C12   C112  A    
C48   H54   S    
C24   H4    S    
C50   H57   S    
C11   C83   S    
C123  C128  A    
O10   Zn10  S    
C12   C123  A    
C21   C93   S    
C60   C69   S    
C52   H23   S    
C7    C23   A    
C125  H35   S    
C2    H2    S    
O1    Zn4   S    
C57   C85   A    
C62   C71   S    
C92   O24   A    
O11   Zn13  S    
O51   Zn16  S    
C64   C72   S    
C16   C124  A    
C69   C70   T    
C11   C113  A    
C32   C49   A    
O12   Zn3   S    
C36   C54   A    
C100  H9    S    
O41   Zn11  S    
C23   C101  A    
C32   C78   S    
C80   O11   A    
C75   O2    A    
O31   Zn11  S    
C58   C67   S    
C5    C21   A    
C19   C105  A    
O23   Zn2   S    
C65   C66   T    
C15   C125  A    
C107  H63   S    
O47   Zn12  S    
C16   C88   S    
O1    Zn1   S    
C112  H21   S    
C42   H48   S    
C8    C89   S    
O19   Zn7   S    
C45   C96   A    
C42   C63   A    
C90   O21   A    
C18   C126  A    
C44   C85   A    
C8    C119  A    
O17   Zn5   S    
