data_mof_unit_64854.cif
_audit_creation_date              2012-10-26T19:00:39-0400
_audit_creation_method            fapswitch 2.2
_symmetry_space_group_name_H-M    P1
_symmetry_Int_Tables_number       1
_space_group_crystal_system       triclinic
_cell_length_a                    17.724541
_cell_length_b                    16.489527
_cell_length_c                    10.926799
_cell_angle_alpha                 92.584142
_cell_angle_beta                  90.824555
_cell_angle_gamma                 89.935546
_cell_volume                      3189.98956027

loop_
_atom_site_label
_atom_site_type_symbol
_atom_type_description
_atom_site_fract_x
_atom_site_fract_y
_atom_site_fract_z
_atom_type_partial_charge
C1    C     C_R   0.355291 0.500014 0.499513 0.563047
C2    C     C_R   0.452094 0.741706 0.424447 0.474181
C3    C     C_R   0.500148 0.872993 0.503586 -0.097272
C4    C     C_1   0.500287 0.962472 0.505285 0.014280
C5    C     C_1   0.500259 0.036904 0.506084 0.084842
C6    C     C_R   0.556898 0.172960 0.565692 0.190131
C7    C     C_R   0.442636 0.167938 0.443950 0.189026
C8    C     C_R   0.552891 0.259667 0.569439 0.370255
C9    C     C_R   0.447215 0.253789 0.433247 0.351902
C10   C     C_R   0.499898 0.126573 0.505617 -0.032523
C11   C     C_R   0.503019 0.498024 0.265409 0.580896
C12   C     C_R   0.644696 0.499959 0.500025 0.532836
C13   C     C_R   0.495526 0.502220 0.734906 0.581931
C14   C     C_2   0.462623 0.448722 0.932133 0.369062
C15   C     C_2   0.456745 0.459303 0.065171 0.380006
C16   C     C_2   0.483826 0.511405 0.866250 0.264765
C17   C     C_2   0.513881 0.491249 0.133578 0.271646
C18   C     C_R   0.846470 0.572744 0.489221 0.293347
C19   C     C_R   0.153164 0.573290 0.495925 0.289161
C20   C     C_R   0.767551 0.572880 0.492230 -0.103898
C21   C     C_R   0.232149 0.573344 0.498563 -0.100921
C22   C     C_R   0.727595 0.499688 0.498581 -0.036351
C23   C     C_R   0.885511 0.498982 0.496702 0.041734
C24   C     C_R   0.272348 0.499846 0.498261 -0.019507
C25   C     C_R   0.767502 0.426214 0.503357 -0.145278
C26   C     C_R   0.232634 0.426105 0.496758 -0.120973
C27   C     C_R   0.846072 0.425999 0.502837 -0.174396
C28   C     C_R   0.154061 0.425874 0.496391 -0.167063
C29   C     C_3   0.601026 0.291188 0.762494 -0.049873
C30   C     C_3   0.406876 0.273313 0.237750 -0.036045
C31   C     C_3   0.423887 0.629326 0.922757 -0.090217
C32   C     C_3   0.641634 0.526063 0.162428 -0.103238
C33   C     C_3   0.888017 0.668800 0.364748 -0.111487
C34   C     C_R   0.114388 0.499140 0.496863 0.042382
C35   C     C_3   0.108880 0.674398 0.381091 -0.100525
C36   C     C_3   0.677979 0.130412 0.549936 -0.117067
C37   C     C_3   0.321352 0.129160 0.467016 -0.099383
C38   C     C_1   0.966147 0.497882 0.497196 0.026038
C39   C     C_1   0.033762 0.497939 0.497250 0.026896
C40   C     C_R   0.548586 0.830433 0.580623 -0.125115
C41   C     C_R   0.451481 0.827377 0.424916 -0.124967
C42   C     C_R   0.547643 0.744733 0.577741 0.475181
Cu1   Cu    Cu3+1 0.500000 0.580420 0.500000 1.112670
Cu2   Cu    Cu3+1 0.500000 0.419580 0.500000 1.071316
F1    F     F_    0.440988 0.376629 0.877276 -0.656886
F2    F     F_    0.390787 0.438298 0.117336 -0.655588
F3    F     F_    0.594631 0.705387 0.653972 -0.592526
F4    F     F_    0.404043 0.699458 0.348034 -0.614743
H1    H     H_    0.737884 0.630251 0.489356 0.163829
H2    H     H_    0.543311 0.274331 0.791666 0.171189
H3    H     H_    0.617068 0.347657 0.815549 0.147321
H4    H     H_    0.402902 0.207232 0.214704 0.142102
H5    H     H_    0.462473 0.296258 0.208663 0.138831
H6    H     H_    0.362004 0.302138 0.183131 0.216435
H7    H     H_    0.381801 0.597858 0.978400 0.134957
H8    H     H_    0.401276 0.636630 0.828358 0.119529
H9    H     H_    0.432472 0.690959 0.965578 0.173528
H10   H     H_    0.651397 0.474294 0.222596 0.090638
H11   H     H_    0.631024 0.583258 0.217231 0.142378
H12   H     H_    0.261671 0.630894 0.500848 0.163321
H13   H     H_    0.694198 0.534775 0.110758 0.151616
H14   H     H_    0.917093 0.622324 0.305171 0.108175
H15   H     H_    0.920888 0.725889 0.362295 0.148282
H16   H     H_    0.830492 0.681127 0.327798 0.106455
H17   H     H_    0.078743 0.630209 0.317715 0.113832
H18   H     H_    0.165611 0.688367 0.345095 0.130498
H19   H     H_    0.075771 0.731558 0.384095 0.147308
H20   H     H_    0.699517 0.192227 0.533033 0.134354
H21   H     H_    0.665293 0.096651 0.461469 0.113570
H22   H     H_    0.723658 0.097252 0.596906 0.145986
H23   H     H_    0.738112 0.368927 0.508233 0.163151
H24   H     H_    0.300609 0.192698 0.479235 0.145265
H25   H     H_    0.334864 0.103934 0.557611 0.118496
H26   H     H_    0.274797 0.092300 0.424554 0.142970
H27   H     H_    0.262194 0.368572 0.496397 0.168246
H28   H     H_    0.876102 0.368916 0.507557 0.117054
H29   H     H_    0.124217 0.368537 0.496052 0.118179
H30   H     H_    0.586927 0.863251 0.642987 0.153096
H31   H     H_    0.413026 0.857803 0.364158 0.148839
H32   H     H_    0.642090 0.243622 0.787320 0.150279
N1    N     N_R   0.500000 0.701220 0.500000 -0.219825
N2    N     N_R   0.500000 0.298780 0.500000 -0.252606
O1    O     O_R   0.391260 0.567930 0.500000 -0.479920
O2    O     O_3   0.394424 0.293149 0.362948 -0.530856
O3    O     O_3   0.493831 0.588303 0.921611 -0.538676
O4    O     O_3   0.582194 0.509334 0.077737 -0.586267
O5    O     O_3   0.885472 0.645195 0.487004 -0.535077
O6    O     O_3   0.113996 0.645875 0.500602 -0.543477
O7    O     O_3   0.614420 0.133768 0.626082 -0.570312
O8    O     O_3   0.383929 0.124088 0.388876 -0.570560
O9    O     O_R   0.608740 0.567930 0.500000 -0.478365
O10   O     O_R   0.391280 0.432120 0.500000 -0.454194
O11   O     O_R   0.608720 0.432120 0.500000 -0.477395
O12   O     O_R   0.500000 0.567890 0.321940 -0.461255
O13   O     O_R   0.500000 0.567890 0.678060 -0.452318
O14   O     O_R   0.500030 0.432070 0.321950 -0.504458
O15   O     O_R   0.499970 0.432070 0.678050 -0.456204
O16   O     O_3   0.605588 0.305823 0.636338 -0.539633

loop_
_geom_bond_atom_site_label_1
_geom_bond_atom_site_label_2
_ccdc_geom_bond_type
C11   O14   A    
C36   O7    S    
C7    C10   A    
C37   H26   S    
C31   O3    S    
Cu1   O1    S    
C12   O9    A    
C32   H10   S    
C30   H6    S    
C37   O8    S    
C13   O13   A    
C8    N2    A    
C19   C21   A    
C24   C26   A    
C32   H13   S    
Cu2   N2    S    
C38   C39   T    
C35   H17   S    
C2    C41   A    
C12   C22   S    
Cu1   O12   S    
C7    C9    A    
Cu2   O15   S    
C8    O16   S    
C37   H25   S    
Cu2   O11   S    
C34   C39   S    
C11   C17   S    
C33   H14   S    
C22   C25   A    
Cu1   O13   S    
C25   H23   S    
C23   C27   A    
C31   H8    S    
C18   C20   A    
Cu2   O10   S    
C9    N2    A    
C40   C42   A    
C28   C34   A    
C13   O15   A    
C42   N1    A    
C36   H22   S    
C14   F1    S    
C29   H2    S    
C30   H5    S    
C18   C23   A    
C21   H12   S    
C19   O6    S    
C6    C8    A    
C35   H18   S    
C2    F4    S    
C7    O8    S    
Cu1   O9    S    
C17   O4    S    
Cu1   Cu2   S    
C41   H31   S    
C20   H1    S    
Cu2   O14   S    
C35   O6    S    
C35   H19   S    
C33   H15   S    
C32   O4    S    
C26   H27   S    
C28   H29   S    
C29   O16   S    
C11   O12   A    
C20   C22   A    
C3    C40   A    
C1    O10   A    
C16   O3    S    
Cu1   N1    S    
C14   C16   D    
C12   O11   A    
C37   H24   S    
C1    O1    A    
C21   C24   A    
C3    C4    S    
C23   C38   S    
C36   H21   S    
C29   H3    S    
C15   C17   D    
C30   H4    S    
C3    C41   A    
C4    C5    T    
C19   C34   A    
C6    C10   A    
C36   H20   S    
C25   C27   A    
C6    O7    S    
C26   C28   A    
C18   O5    S    
C15   F2    S    
C31   H9    S    
C33   O5    S    
C5    C10   S    
C29   H32   S    
C33   H16   S    
C40   H30   S    
C42   F3    S    
C30   O2    S    
C9    O2    S    
C1    C24   S    
C13   C16   S    
C14   C15   S    
C2    N1    A    
C32   H11   S    
C31   H7    S    
C27   H28   S    
