data_mof_unit_55466.cif
_audit_creation_date              2013-03-05T15:56:47-0500
_audit_creation_method            fapswitch 2.2
_symmetry_space_group_name_H-M    P1
_symmetry_Int_Tables_number       1
_space_group_crystal_system       triclinic
_cell_length_a                    20.878628
_cell_length_b                    21.947159
_cell_length_c                    13.910817
_cell_angle_alpha                 89.894921
_cell_angle_beta                  90.32959
_cell_angle_gamma                 90.093096
_cell_volume                      6374.18144847

loop_
_atom_site_label
_atom_site_type_symbol
_atom_site_description
_atom_site_fract_x
_atom_site_fract_y
_atom_site_fract_z
_atom_type_partial_charge
O1    O     O_R   0.064880 0.435140 0.582280 -0.539793
O2    O     O_R   0.935120 0.564860 0.417720 -0.494446
O3    O     O_R   0.935120 0.564860 0.582280 -0.598880
O4    O     O_R   0.064880 0.435140 0.417720 -0.557566
O5    O     O_R   0.935120 0.435140 0.417720 -0.514785
O6    O     O_R   0.064880 0.564860 0.582280 -0.539394
O7    O     O_R   0.064880 0.564860 0.417720 -0.528955
O8    O     O_R   0.935120 0.435140 0.582280 -0.508268
O9    O     O_R   0.564880 0.935140 0.582280 -0.536076
O10   O     O_R   0.435120 0.064860 0.417720 -0.506809
O11   O     O_R   0.435120 0.064860 0.582280 -0.523464
O12   O     O_R   0.564880 0.935140 0.417720 -0.509054
O13   O     O_R   0.435120 0.935140 0.417720 -0.573300
O14   O     O_R   0.564880 0.064860 0.582280 -0.496346
O15   O     O_R   0.564880 0.064860 0.417720 -0.570336
O16   O     O_R   0.435120 0.935140 0.582280 -0.515179
C1    C     C_R   0.087677 0.416081 0.499381 0.912157
C2    C     C_R   0.916258 0.587601 0.499238 0.900698
C3    C     C_R   0.913152 0.415954 0.499671 0.901732
C4    C     C_R   0.084916 0.586275 0.500487 0.944913
C5    C     C_R   0.586865 0.915965 0.500408 0.908567
C6    C     C_R   0.412114 0.083165 0.499578 0.892483
C7    C     C_R   0.415056 0.913366 0.500040 0.883711
C8    C     C_R   0.584055 0.087361 0.500479 0.893191
Cu1   Cu    Cu3+1 1.000000 0.500000 0.597420 1.040812
Cu2   Cu    Cu3+1 1.000000 0.500000 0.402580 1.125207
Cu3   Cu    Cu3+1 0.500000 0.000000 0.597420 1.129110
Cu4   Cu    Cu3+1 0.500000 0.000000 0.402580 1.061373
C9    C     C_R   0.116342 0.693008 0.545312 0.364199
C10   C     C_R   0.873882 0.316345 0.555791 0.409337
C11   C     C_R   0.864761 0.677506 0.577924 0.402483
C12   C     C_R   0.141293 0.326523 0.573297 0.364353
C13   C     C_R   0.639412 0.173914 0.417652 0.364905
C14   C     C_R   0.360660 0.825704 0.418094 0.367174
C15   C     C_R   0.364631 0.175849 0.429222 0.410231
C16   C     C_R   0.625580 0.815554 0.448386 0.385996
C17   C     C_R   0.131901 0.636423 0.502086 -0.290599
C18   C     C_R   0.864087 0.368357 0.498507 -0.313033
C19   C     C_R   0.869483 0.638600 0.497214 -0.291517
C20   C     C_R   0.137960 0.368451 0.496026 -0.317231
C21   C     C_R   0.631553 0.137777 0.501389 -0.297565
C22   C     C_R   0.365366 0.864929 0.498742 -0.301556
C23   C     C_R   0.360080 0.128215 0.496698 -0.297780
C24   C     C_R   0.636602 0.869018 0.501589 -0.281334
C25   C     C_R   0.192633 0.628269 0.460444 0.377936
C26   C     C_R   0.809395 0.372845 0.438517 0.304143
C27   C     C_R   0.828416 0.649078 0.416611 0.411101
C28   C     C_R   0.179436 0.361395 0.414685 0.261868
C29   C     C_R   0.670921 0.149711 0.583326 0.413023
C30   C     C_R   0.319843 0.859025 0.573769 0.426249
C31   C     C_R   0.304513 0.122875 0.554314 0.271437
C32   C     C_R   0.693709 0.876041 0.556089 0.261710
C33   C     C_R   0.228829 0.679937 0.437177 -0.051937
C34   C     C_R   0.769613 0.321575 0.427666 -0.046783
C35   C     C_R   0.773893 0.685385 0.429989 -0.075533
C36   C     C_R   0.220472 0.309872 0.411712 -0.064519
C37   C     C_R   0.726025 0.185397 0.570695 -0.063095
C38   C     C_R   0.263548 0.826140 0.554376 -0.062630
C39   C     C_R   0.261622 0.172409 0.558047 -0.049658
C40   C     C_R   0.735227 0.825746 0.565714 -0.055293
C41   C     C_R   0.217616 0.734333 0.487117 -0.067605
C42   C     C_R   0.774890 0.273107 0.493741 -0.070436
C43   C     C_R   0.774336 0.729019 0.503719 -0.075930
C44   C     C_R   0.220900 0.267290 0.488153 -0.055735
C45   C     C_R   0.727966 0.227041 0.493955 -0.072443
C46   C     C_R   0.265017 0.779914 0.485329 -0.069657
C47   C     C_R   0.265369 0.218773 0.488057 -0.065259
C48   C     C_R   0.727430 0.775128 0.504312 -0.049880
C49   C     C_R   0.162298 0.740946 0.545114 -0.052515
C50   C     C_R   0.825749 0.271581 0.561384 -0.092656
C51   C     C_R   0.823547 0.728323 0.573598 -0.080927
C52   C     C_R   0.177342 0.272765 0.564663 -0.080128
C53   C     C_R   0.681213 0.224398 0.420331 -0.078344
C54   C     C_R   0.316655 0.776717 0.420287 -0.070337
C55   C     C_R   0.313379 0.216524 0.417362 -0.095293
C56   C     C_R   0.674218 0.771478 0.441180 -0.093176
C57   C     C_R   0.280247 0.676385 0.372782 -0.207593
C58   C     C_R   0.722799 0.318858 0.354930 -0.195826
C59   C     C_R   0.720811 0.681444 0.368170 -0.163559
C60   C     C_R   0.260521 0.298427 0.332415 -0.239134
C61   C     C_R   0.777512 0.182662 0.635711 -0.160518
C62   C     C_R   0.207588 0.835784 0.606665 -0.178499
C63   C     C_R   0.213243 0.175302 0.627422 -0.238587
C64   C     C_R   0.786311 0.825948 0.632076 -0.231074
C65   C     C_R   0.827226 0.225135 0.631908 0.470465
C66   C     C_R   0.155966 0.794389 0.602005 0.510291
C67   C     C_R   0.170062 0.223785 0.630005 0.469346
C68   C     C_R   0.830326 0.778384 0.636213 0.470355
C69   C     C_R   0.323115 0.725159 0.360477 0.482443
C70   C     C_R   0.677660 0.271912 0.351941 0.463247
C71   C     C_R   0.671054 0.723715 0.373110 0.471602
C72   C     C_R   0.308336 0.254494 0.336225 0.478354
H1    H     H_    0.287326 0.635519 0.331650 0.204496
H2    H     H_    0.720935 0.352849 0.298702 0.211913
H3    H     H_    0.717404 0.645122 0.315755 0.215833
H4    H     H_    0.256067 0.322832 0.265567 0.238343
H5    H     H_    0.779662 0.147207 0.689894 0.214999
H6    H     H_    0.204295 0.876236 0.650700 0.205663
H7    H     H_    0.209148 0.140972 0.682509 0.186796
H8    H     H_    0.793373 0.862845 0.682192 0.201065
C73   C     C_R   0.047643 0.529627 0.795723 0.481877
C74   C     C_R   0.962205 0.459647 0.203902 0.571569
C75   C     C_R   0.952579 0.469668 0.795089 0.558945
C76   C     C_R   0.039770 0.539150 0.204482 0.603915
C77   C     C_R   0.540782 0.962326 0.796344 0.570716
C78   C     C_R   0.451953 0.029208 0.204440 0.549131
C79   C     C_R   0.459124 0.037679 0.795508 0.587545
C80   C     C_R   0.547708 0.970277 0.205166 0.536095
N1    N     N_R   1.000000 0.500000 0.743810 -0.270564
N2    N     N_R   0.000000 0.500000 0.256190 -0.258090
N3    N     N_R   0.500000 0.000000 0.743810 -0.246535
N4    N     N_R   0.500000 0.000000 0.256190 -0.273315
C81   C     C_R   0.954020 0.466586 0.897256 -0.090314
C82   C     C_R   0.042906 0.536748 0.102235 -0.086544
C83   C     C_R   0.045425 0.533667 0.897591 -0.081001
C84   C     C_R   0.957153 0.463387 0.102054 -0.107299
C85   C     C_R   0.455122 0.034272 0.897607 -0.117898
C86   C     C_R   0.546694 0.967820 0.103118 -0.092962
C87   C     C_R   0.544520 0.965397 0.898424 -0.108366
C88   C     C_R   0.452832 0.031616 0.102336 -0.088680
C89   C     C_R   0.999279 0.500690 0.948518 0.015982
C90   C     C_R   0.999235 0.500846 0.051037 0.011964
C91   C     C_R   0.499912 0.999936 0.949145 0.017659
C92   C     C_R   0.499882 0.999887 0.051664 0.010810
C93   C     C_R   0.910616 0.430097 0.949304 -0.162509
C94   C     C_R   0.089203 0.569835 0.050104 -0.137378
C95   C     C_R   0.090161 0.568634 0.949737 -0.173678
C96   C     C_R   0.912597 0.428069 0.049930 -0.147102
C97   C     C_R   0.407464 0.065519 0.949271 -0.158606
C98   C     C_R   0.592307 0.934065 0.051370 -0.158379
C99   C     C_R   0.591383 0.933066 0.950908 -0.157034
C100  C     C_R   0.406543 0.064470 0.049703 -0.150936
H9    H     H_    0.875404 0.402169 0.912596 0.174644
H10   H     H_    0.125619 0.596530 0.086273 0.175188
H11   H     H_    0.126427 0.595236 0.913341 0.174958
H12   H     H_    0.878764 0.398878 0.086721 0.190714
H13   H     H_    0.370144 0.090756 0.912609 0.169143
H14   H     H_    0.628974 0.907915 0.088068 0.172724
H15   H     H_    0.627738 0.906679 0.914699 0.175463
H16   H     H_    0.369179 0.089637 0.085667 0.161077
O17   O     O_3   0.055422 0.702317 0.581769 -0.570103
C101  C     C_3   0.053025 0.685344 0.679902 -0.058129
H17   H     H_    0.025973 0.720417 0.719757 0.187557
H18   H     H_    0.100722 0.680140 0.715611 0.138740
H19   H     H_    0.024797 0.643072 0.687872 0.220476
O18   O     O_3   0.930371 0.310176 0.607231 -0.497132
C102  C     C_3   0.974162 0.278397 0.549067 -0.192378
H20   H     H_    0.987991 0.305846 0.485102 0.092334
H21   H     H_    0.955074 0.233208 0.526352 0.141021
H22   H     H_    0.017971 0.269766 0.591636 0.237628
O19   O     O_3   0.904377 0.668464 0.656749 -0.540565
C103  C     C_3   0.867710 0.644746 0.733354 -0.228045
H23   H     H_    0.832319 0.609839 0.709485 0.111667
H24   H     H_    0.842202 0.681713 0.771611 0.194440
H25   H     H_    0.900649 0.622558 0.785555 0.161608
O20   O     O_3   0.107986 0.338202 0.657172 -0.515390
C104  C     C_3   0.151735 0.357785 0.728828 -0.171778
H26   H     H_    0.124748 0.382521 0.785021 0.167409
H27   H     H_    0.189294 0.389053 0.700495 0.092961
H28   H     H_    0.175490 0.318414 0.764097 0.184854
O21   O     O_3   0.603011 0.161994 0.336225 -0.525396
C105  C     C_3   0.642597 0.135460 0.265580 -0.153289
H29   H     H_    0.678468 0.103209 0.296212 0.100187
H30   H     H_    0.668118 0.171007 0.223846 0.187837
H31   H     H_    0.611840 0.109636 0.214623 0.164224
O22   O     O_3   0.402810 0.832460 0.342235 -0.510263
C106  C     C_3   0.369380 0.857224 0.262635 -0.166436
H32   H     H_    0.334910 0.893411 0.283388 0.099710
H33   H     H_    0.343123 0.821211 0.222841 0.159131
H34   H     H_    0.404629 0.877913 0.212836 0.169944
O23   O     O_3   0.418564 0.181135 0.372446 -0.487430
C107  C     C_3   0.461908 0.220780 0.418913 -0.185457
H35   H     H_    0.479912 0.200669 0.487414 0.107836
H36   H     H_    0.440310 0.266347 0.432141 0.136554
H37   H     H_    0.503463 0.227805 0.371255 0.235853
O24   O     O_3   0.567385 0.807331 0.402012 -0.509056
C108  C     C_3   0.526815 0.774242 0.464046 -0.122600
H38   H     H_    0.510515 0.803395 0.524433 0.096708
H39   H     H_    0.549965 0.732137 0.492497 0.138687
H40   H     H_    0.484045 0.759322 0.422954 0.248176
S1    S     S_3+6 0.236363 0.560161 0.482982 0.015590
O25   O     O_2   0.266388 0.537328 0.392290 -0.250670
O26   O     O_2   0.289012 0.575147 0.553273 -0.296207
O27   O     O_3   0.190814 0.505148 0.530862 -0.574459
H41   H     H_    0.221352 0.472772 0.550033 0.347234
S2    S     S_3+6 0.783957 0.444025 0.390132 0.036207
O28   O     O_2   0.802834 0.447078 0.286298 -0.205607
O29   O     O_2   0.712293 0.449469 0.396267 -0.312985
O30   O     O_3   0.816100 0.502724 0.450333 -0.519850
H42   H     H_    0.796723 0.500803 0.515102 0.308260
S3    S     S_3+6 0.854033 0.636161 0.295838 0.021508
O31   O     O_2   0.816546 0.674264 0.225441 -0.320255
O32   O     O_2   0.923214 0.653833 0.287650 -0.338574
O33   O     O_3   0.845505 0.562589 0.266283 -0.416622
H43   H     H_    0.862832 0.559422 0.200348 0.355238
S4    S     S_3+6 0.185393 0.416726 0.318304 0.042918
O34   O     O_2   0.150176 0.391733 0.232477 -0.308751
O35   O     O_2   0.158793 0.478375 0.340759 -0.154387
O36   O     O_3   0.262470 0.427881 0.287604 -0.481142
H44   H     H_    0.286920 0.425520 0.348734 0.357786
S5    S     S_3+6 0.643566 0.137529 0.703539 0.014757
O37   O     O_2   0.679510 0.176643 0.774297 -0.322922
O38   O     O_2   0.574131 0.154482 0.708755 -0.345152
O39   O     O_3   0.652424 0.064195 0.734976 -0.415165
H45   H     H_    0.637545 0.061939 0.802373 0.359190
S6    S     S_3+6 0.342568 0.867717 0.697155 0.026479
O40   O     O_2   0.294487 0.838477 0.762853 -0.317605
O41   O     O_2   0.405637 0.836347 0.712155 -0.346440
O42   O     O_3   0.350363 0.941159 0.727862 -0.406267
H46   H     H_    0.361645 0.940503 0.797116 0.356945
S7    S     S_3+6 0.279672 0.051372 0.602498 0.038247
O43   O     O_2   0.209860 0.041955 0.579882 -0.293084
O44   O     O_2   0.316294 0.000265 0.557744 -0.286987
O45   O     O_3   0.289016 0.049607 0.722705 -0.445941
H47   H     H_    0.296120 0.092307 0.742769 0.322444
S8    S     S_3+6 0.719549 0.948871 0.598874 0.043113
O46   O     O_2   0.789062 0.957476 0.574639 -0.285301
O47   O     O_2   0.682599 0.999512 0.552358 -0.288518
O48   O     O_3   0.711781 0.953196 0.719012 -0.438076
H48   H     H_    0.704128 0.911023 0.741486 0.327799
O49   O     O_3   0.876742 0.220905 0.698028 -0.557259
C109  C     C_3   0.857520 0.249487 0.783916 -0.198064
H49   H     H_    0.817466 0.224196 0.818437 0.162486
H50   H     H_    0.843774 0.297954 0.771423 0.178249
H51   H     H_    0.898608 0.249355 0.834862 0.186734
O50   O     O_3   0.099534 0.805769 0.651387 -0.568933
C110  C     C_3   0.111929 0.822744 0.747886 -0.350953
H52   H     H_    0.120590 0.872560 0.753022 0.198843
H53   H     H_    0.152371 0.796690 0.780575 0.184421
H54   H     H_    0.068987 0.812698 0.791614 0.171839
O51   O     O_3   0.121821 0.224509 0.698328 -0.562320
C111  C     C_3   0.081298 0.173372 0.686937 -0.257490
H55   H     H_    0.102661 0.132394 0.721258 0.177361
H56   H     H_    0.069587 0.164118 0.610038 0.147655
H57   H     H_    0.035487 0.182758 0.724083 0.215441
O52   O     O_3   0.881130 0.782691 0.699986 -0.578283
C112  C     C_3   0.929721 0.817821 0.656727 -0.178290
H58   H     H_    0.912566 0.864184 0.636750 0.161477
H59   H     H_    0.949569 0.794229 0.592727 0.208998
H60   H     H_    0.969081 0.823845 0.709454 0.195795
O53   O     O_3   0.377543 0.719103 0.303889 -0.538641
C113  C     C_3   0.363138 0.693541 0.213130 -0.276032
H61   H     H_    0.316331 0.709452 0.183517 0.126237
H62   H     H_    0.364503 0.643023 0.217075 0.188899
H63   H     H_    0.400724 0.707960 0.161805 0.202770
O54   O     O_3   0.629817 0.272771 0.282468 -0.560932
C114  C     C_3   0.587777 0.321742 0.300281 -0.239052
H64   H     H_    0.609823 0.365891 0.279374 0.186134
H65   H     H_    0.572242 0.323149 0.376769 0.142404
H66   H     H_    0.544187 0.315557 0.255360 0.202762
O55   O     O_3   0.619959 0.718092 0.310054 -0.540713
C115  C     C_3   0.636275 0.746849 0.222760 -0.178157
H67   H     H_    0.676814 0.723197 0.187143 0.155428
H68   H     H_    0.647955 0.795908 0.233676 0.176233
H69   H     H_    0.594377 0.744534 0.173500 0.188967
O56   O     O_3   0.350280 0.249734 0.260019 -0.533030
C116  C     C_3   0.323248 0.210219 0.191005 -0.211845
H70   H     H_    0.278327 0.229428 0.160078 0.132835
H71   H     H_    0.314098 0.164201 0.221755 0.168959
H72   H     H_    0.357791 0.204777 0.131362 0.189710
O57   O     O_3   0.097239 0.558789 0.749659 -0.592682
C117  C     C_3   0.151012 0.520213 0.748448 -0.256913
H73   H     H_    0.163820 0.502192 0.820889 0.128393
H74   H     H_    0.192676 0.546646 0.721974 0.223742
H75   H     H_    0.142605 0.482310 0.698004 0.210033
O58   O     O_3   0.929362 0.413459 0.249045 -0.521691
C118  C     C_3   0.967575 0.360430 0.247987 -0.284251
H76   H     H_    0.015129 0.368271 0.282265 0.194600
H77   H     H_    0.973914 0.343018 0.173626 0.152071
H78   H     H_    0.942908 0.324428 0.289972 0.167062
O59   O     O_3   0.905191 0.437231 0.748498 -0.530434
C119  C     C_3   0.849592 0.473434 0.741482 -0.343545
H79   H     H_    0.855468 0.508543 0.685061 0.183675
H80   H     H_    0.836291 0.495063 0.810928 0.139147
H81   H     H_    0.809067 0.443821 0.719161 0.186101
O60   O     O_3   0.083438 0.576276 0.250916 -0.530361
C120  C     C_3   0.065756 0.638422 0.242162 -0.253048
H82   H     H_    0.043830 0.654296 0.309979 0.217332
H83   H     H_    0.032495 0.648819 0.181328 0.159127
H84   H     H_    0.109837 0.665844 0.231424 0.150571
O61   O     O_3   0.582590 0.923650 0.750985 -0.541033
C121  C     C_3   0.558134 0.863555 0.753597 -0.292988
H85   H     H_    0.597437 0.831720 0.735352 0.155161
H86   H     H_    0.520294 0.857833 0.698322 0.224117
H87   H     H_    0.539466 0.849864 0.825284 0.158624
O62   O     O_3   0.404298 0.060981 0.250598 -0.523942
C122  C     C_3   0.349208 0.023991 0.258479 -0.314622
H88   H     H_    0.353668 0.993466 0.321495 0.202281
H89   H     H_    0.338568 0.997103 0.192382 0.119450
H90   H     H_    0.307373 0.053843 0.271615 0.177372
O63   O     O_3   0.417134 0.076095 0.748780 -0.533785
C123  C     C_3   0.434747 0.137960 0.762021 -0.255772
H91   H     H_    0.391411 0.164228 0.781637 0.131777
H92   H     H_    0.452142 0.157003 0.693062 0.207442
H93   H     H_    0.471653 0.146214 0.818843 0.177644
O64   O     O_3   0.594650 0.937288 0.251825 -0.539413
C124  C     C_3   0.650596 0.973035 0.260666 -0.301892
H94   H     H_    0.646181 0.004596 0.322174 0.203145
H95   H     H_    0.662624 0.998668 0.193937 0.121610
H96   H     H_    0.691416 0.942298 0.276732 0.189994

loop_
_geom_bond_atom_site_label_1
_geom_bond_atom_site_label_2
_geom_bond_distance
_ccdc_geom_bond_type
C63   C67   1.396423 A    
O23   C107  1.409473 S    
C104  H26   1.109442 S    
C83   C89   1.399166 A    
C73   O57   1.377116 S    
O5    Cu2   1.975238 S    
O2    C2    1.303065 A    
C15   O23   1.383735 S    
S5    O37   1.503823 D    
O27   H41   0.990627 S    
C33   C57   1.404480 A    
O63   C123  1.418159 S    
C14   C22   1.418229 A    
S8    O48   1.682856 S    
C23   C31   1.418448 A    
C117  H75   1.102471 S    
O21   C105  1.414561 S    
C80   O64   1.378161 S    
C47   C55   1.409266 A    
C29   C37   1.402430 A    
C91   C92   1.426122 A    
C106  H33   1.108306 S    
C71   O55   1.382713 S    
S1    O25   1.499391 D    
Cu4   N4    2.036405 S    
C15   C55   1.403467 A    
C121  H85   1.109438 S    
C94   C95   1.396738 A    
C7    C22   1.484254 S    
C84   C90   1.397922 A    
O12   Cu4   1.976747 S    
C54   C69   1.412837 A    
C19   C27   1.426165 A    
O20   C104  1.415091 S    
C75   C81   1.422856 A    
C95   H11   1.082786 S    
C53   C70   1.412015 A    
O53   C113  1.413110 S    
C96   H12   1.082974 S    
C88   C100  1.407904 A    
O62   C122  1.411438 S    
C82   C94   1.411177 A    
C118  H78   1.109565 S    
S6    O41   1.500247 D    
C114  H66   1.109306 S    
O6    Cu1   1.975235 S    
C81   C93   1.410606 A    
C73   N1    1.387496 A    
O59   C119  1.410592 S    
C46   C54   1.413369 A    
C32   S8    1.788073 S    
C45   C53   1.411970 A    
O52   C112  1.410170 S    
O13   C7    1.310748 A    
O3    C2    1.316033 A    
C20   C28   1.437556 A    
C116  H70   1.112845 S    
C124  H95   1.114236 S    
O14   C8    1.304432 A    
C14   C54   1.413486 A    
C110  H52   1.110244 S    
C119  H81   1.109339 S    
C32   C40   1.410327 A    
C39   C47   1.409405 A    
C12   O20   1.386241 S    
C33   C41   1.403052 A    
C41   C46   1.406341 A    
C38   C46   1.398842 A    
C102  H20   1.112866 S    
C79   O63   1.376881 S    
C119  H79   1.106064 S    
C108  H39   1.114488 S    
C110  H54   1.107965 S    
C35   C43   1.404472 A    
C93   C96   1.400788 A    
C113  H62   1.110388 S    
O19   C103  1.413747 S    
C122  H89   1.114538 S    
O13   Cu4   1.975238 S    
O24   C108  1.411972 S    
C69   O53   1.392776 S    
C39   C63   1.402604 A    
O14   Cu3   1.975235 S    
C60   H4    1.075912 S    
C16   C56   1.407750 A    
C76   O60   1.380257 S    
C59   C71   1.395992 A    
C107  H37   1.105369 S    
Cu1   N1    2.036405 S    
C97   C100  1.397489 A    
C85   C97   1.410362 A    
C24   C32   1.417615 A    
O16   Cu3   1.974133 S    
S1    O26   1.503405 D    
O33   H43   0.990516 S    
C77   N3    1.391260 A    
C83   C95   1.406927 A    
Cu3   N3    2.036405 S    
O36   H44   0.990633 S    
C104  H27   1.114463 S    
C78   O62   1.378319 S    
C120  H82   1.107986 S    
C28   S4    1.811952 S    
O1    Cu1   1.978962 S    
C8    C21   1.484684 S    
S5    O38   1.499472 D    
C42   C50   1.415138 A    
C109  H49   1.113636 S    
C87   C99   1.409233 A    
S4    O36   1.684713 S    
C123  H92   1.108535 S    
C21   C29   1.425822 A    
C10   C50   1.406626 A    
C107  H36   1.113739 S    
O11   Cu3   1.976747 S    
C10   O18   1.382687 S    
C106  H34   1.109654 S    
C9    C49   1.422777 A    
C114  H65   1.114628 S    
C120  H83   1.115127 S    
C68   O52   1.382122 S    
O42   H46   0.990530 S    
C29   S5    1.789699 S    
C102  H21   1.113852 S    
O8    C3    1.305116 A    
C101  H19   1.104065 S    
C62   H6    1.082059 S    
C25   S1    1.779241 S    
S3    O31   1.503728 D    
C113  H63   1.109288 S    
C44   C47   1.413896 A    
C80   C86   1.420717 A    
O55   C115  1.410753 S    
C102  H22   1.103238 S    
C74   C84   1.422337 A    
S8    O46   1.503392 D    
C73   C83   1.421024 A    
C12   C52   1.406198 A    
C5    C24   1.464044 S    
C110  H53   1.114869 S    
C37   C45   1.404762 A    
C106  H32   1.112266 S    
C65   O49   1.382926 S    
O45   H47   0.989024 S    
O39   H45   0.990496 S    
C117  H74   1.109107 S    
C124  H96   1.109297 S    
C34   C42   1.408585 A    
C109  H51   1.109598 S    
Cu1   Cu2   2.710382 S    
C62   C66   1.409759 A    
O12   C5    1.305248 A    
O10   C6    1.302833 A    
C111  H57   1.109499 S    
C58   C70   1.395721 A    
C80   N4    1.390487 A    
C88   C92   1.399574 A    
C116  H71   1.112757 S    
C1    C20   1.483717 S    
C75   O59   1.377598 S    
C60   C72   1.389765 A    
C13   O21   1.385509 S    
C2    C19   1.486739 S    
S3    O32   1.499874 D    
S7    O43   1.503410 D    
C59   H3    1.083296 S    
O49   C109  1.411066 S    
C86   C98   1.409294 A    
C3    C18   1.461952 S    
C105  H31   1.109552 S    
C35   C59   1.401528 A    
C115  H68   1.114076 S    
C77   O61   1.375250 S    
C122  H88   1.105904 S    
O51   C111  1.412999 S    
C103  H25   1.109718 S    
O3    Cu1   1.976747 S    
C114  H64   1.111029 S    
C108  H40   1.106905 S    
C9    O17   1.387582 S    
O56   C116  1.409813 S    
C26   C34   1.405339 A    
C111  H56   1.114885 S    
C113  H61   1.114734 S    
C112  H60   1.106290 S    
C122  H90   1.108922 S    
C97   H13   1.081588 S    
O2    Cu2   1.978962 S    
C86   C92   1.398283 A    
C48   C56   1.414476 A    
C103  H23   1.113288 S    
C109  H50   1.115245 S    
O7    Cu2   1.974130 S    
C40   C48   1.411204 A    
C89   C90   1.426135 A    
C117  H73   1.113194 S    
C55   C72   1.405315 A    
C22   C30   1.421254 A    
C115  H69   1.109262 S    
C76   C82   1.425298 A    
O4    C1    1.297928 A    
C30   S6    1.788597 S    
C13   C53   1.409741 A    
O15   C8    1.313647 A    
S7    O44   1.497055 D    
C43   C51   1.410442 A    
O7    C4    1.310468 A    
O16   C7    1.307083 A    
C12   C20   1.415181 A    
C112  H59   1.113132 S    
C11   C51   1.410767 A    
C84   C96   1.408518 A    
O22   C106  1.413794 S    
C66   O50   1.390473 S    
S5    O39   1.677275 S    
O10   Cu4   1.978962 S    
C16   C24   1.406383 A    
C31   C39   1.410823 A    
C40   C64   1.406564 A    
S2    O29   1.504133 D    
C98   H14   1.082553 S    
C72   O56   1.383110 S    
O48   H48   0.989438 S    
C52   C67   1.415046 A    
C15   C23   1.407163 A    
C107  H35   1.113111 S    
O9    Cu3   1.978962 S    
C85   C91   1.396068 A    
C27   C35   1.404063 A    
O18   C102  1.410567 S    
C103  H24   1.109661 S    
S1    O27   1.675223 S    
C93   H9    1.082734 S    
C28   C36   1.420627 A    
Cu2   N2    2.036405 S    
O54   C114  1.411925 S    
O64   C124  1.410945 S    
C42   C45   1.406702 A    
C78   C88   1.421458 A    
S6    O40   1.503702 D    
C57   C69   1.405061 A    
C79   N3    1.393178 A    
C123  H93   1.115532 S    
C64   C68   1.392782 A    
S8    O47   1.497828 D    
S4    O34   1.502648 D    
C123  H91   1.109316 S    
C11   O19   1.383900 S    
C64   H8    1.078898 S    
O4    Cu2   1.976747 S    
C118  H76   1.112233 S    
C16   O24   1.384082 S    
C105  H29   1.113738 S    
O5    C3    1.300352 A    
C87   C91   1.397030 A    
C104  H28   1.109218 S    
C100  H16   1.082050 S    
O6    C4    1.301299 A    
C43   C48   1.409469 A    
O11   C6    1.307000 A    
O1    C1    1.319125 A    
C36   C60   1.411177 A    
C75   N1    1.391591 A    
C116  H72   1.109197 S    
C41   C49   1.420418 A    
S2    O30   1.675122 S    
C38   C62   1.396472 A    
C98   C99   1.397751 A    
O61   C121  1.414002 S    
S3    O33   1.675893 S    
C13   C21   1.418163 A    
C105  H30   1.109124 S    
C14   O22   1.385540 S    
O17   C101  1.415502 S    
O8    Cu1   1.974133 S    
C76   N2    1.395507 A    
C4    C17   1.473252 S    
C118  H77   1.112094 S    
S6    O42   1.675677 S    
O9    C5    1.301276 A    
O15   Cu4   1.974130 S    
O57   C117  1.407446 S    
C78   N4    1.388376 A    
C61   H5    1.083153 S    
C58   H2    1.080491 S    
C74   N2    1.389099 A    
C67   O51   1.388927 S    
C25   C33   1.400161 A    
C70   O54   1.386012 S    
C26   S2    1.780538 S    
C57   H1    1.075613 S    
C111  H55   1.110394 S    
C36   C44   1.414376 A    
C11   C19   1.415772 A    
C101  H18   1.116250 S    
C44   C52   1.409322 A    
C27   S3    1.789293 S    
O30   H42   0.990570 S    
C37   C61   1.402142 A    
C18   C26   1.413896 A    
S4    O35   1.497557 D    
C99   H15   1.082659 S    
O58   C118  1.412270 S    
C108  H38   1.112125 S    
C56   C71   1.415112 A    
C121  H86   1.106453 S    
C51   C68   1.409754 A    
C82   C90   1.397045 A    
C124  H94   1.106195 S    
C31   S7    1.782816 S    
S7    O45   1.682782 S    
C81   C89   1.397719 A    
O60   C120  1.418429 S    
C94   H10   1.081534 S    
C121  H87   1.113401 S    
C119  H80   1.113954 S    
O50   C110  1.416066 S    
C74   O58   1.375675 S    
C120  H84   1.109514 S    
C9    C17   1.419724 A    
Cu3   Cu4   2.710382 S    
C101  H17   1.107024 S    
C77   C87   1.423432 A    
C63   H7    1.077323 S    
C10   C18   1.405507 A    
S2    O28   1.500752 D    
C112  H58   1.113499 S    
C50   C65   1.413698 A    
C17   C25   1.408905 A    
C79   C85   1.425032 A    
C6    C23   1.470468 S    
C61   C65   1.395124 A    
C49   C66   1.422908 A    
C30   C38   1.403374 A    
C115  H67   1.112869 S    
C34   C58   1.404048 A    
