data_mof_unit_40806.cif
_audit_creation_date              2012-12-11T15:59:35-0500
_audit_creation_method            fapswitch 2.2
_symmetry_space_group_name_H-M    P1
_symmetry_Int_Tables_number       1
_space_group_crystal_system       triclinic
_cell_length_a                    10.749328
_cell_length_b                    10.748276
_cell_length_c                    17.129618
_cell_angle_alpha                 99.983402
_cell_angle_beta                  99.660668
_cell_angle_gamma                 60.267719
_cell_volume                      1684.7672141

loop_
_atom_site_label
_atom_site_type_symbol
_atom_type_description
_atom_site_fract_x
_atom_site_fract_y
_atom_site_fract_z
_atom_type_partial_charge
C1    C     C_R   0.354866 0.776971 0.401525 0.542132
C2    C     C_R   0.815146 0.237439 0.193333 -0.035383
C3    C     C_R   0.824848 0.220806 0.274163 0.004287
C4    C     C_R   0.917315 0.389954 0.312538 -0.132188
C5    C     C_R   0.932844 0.387430 0.233444 0.216859
C6    C     C_R   0.754169 0.166580 0.135501 -0.088349
C7    C     C_R   0.724098 0.065719 0.156607 -0.096659
C8    C     C_R   0.749861 0.037549 0.235335 -0.130372
C9    C     C_R   0.801484 0.112101 0.293547 -0.088230
C10   C     C_R   0.854069 0.316231 0.332648 -0.033881
C11   C     C_R   0.317755 0.861737 0.168643 0.007473
C12   C     C_R   0.400608 0.369070 0.354394 0.568566
C13   C     C_R   0.453447 0.813863 0.211989 0.016566
C14   C     C_R   0.462112 0.819902 0.295643 0.033024
C15   C     C_R   0.205525 0.896344 0.287408 -0.155741
C16   C     C_R   0.194630 0.906451 0.207787 -0.138705
C17   C     C_R   0.580139 0.760118 0.174310 -0.104809
C18   C     C_R   0.710641 0.727549 0.219095 -0.126870
C19   C     C_R   0.717166 0.749610 0.301770 -0.134049
C20   C     C_R   0.593996 0.797869 0.339875 -0.061431
C21   C     C_R   0.339057 0.844764 0.331096 0.001310
C22   C     C_R   0.299796 0.276097 0.799496 -0.005389
C23   C     C_R   0.780434 0.372223 0.405066 0.548775
C24   C     C_R   0.427254 0.175644 0.762926 0.034318
C25   C     C_R   0.478229 0.224635 0.711877 0.034698
C26   C     C_R   0.246165 0.444771 0.706157 -0.147756
C27   C     C_R   0.208966 0.409178 0.769507 -0.146599
C28   C     C_R   0.509475 0.029692 0.778834 -0.086924
C29   C     C_R   0.648568 0.943489 0.756447 -0.110896
C30   C     C_R   0.708613 0.001421 0.718113 -0.115133
C31   C     C_R   0.624610 0.140618 0.696126 -0.088384
C32   C     C_R   0.379722 0.352830 0.676133 -0.005240
C33   C     C_1   0.818362 0.341986 0.708979 -0.061888
C34   C     C_R   0.357919 0.768977 0.627499 0.548577
C35   C     C_1   0.845879 0.313455 0.776500 -0.050787
C36   C     C_1   0.338862 0.809312 0.709463 -0.054044
C37   C     C_1   0.313304 0.837048 0.777506 -0.063041
C38   C     C_R   0.901909 0.307061 0.091378 0.557591
C39   C     C_R   0.298825 0.271256 0.124917 0.596079
C40   C     C_R   0.291348 0.896071 0.087149 0.537851
C41   C     C_R   0.887203 0.297056 0.858756 0.545500
C42   C     C_R   0.279306 0.252455 0.877014 0.545529
C43   C     C_R   0.279336 0.884338 0.857286 0.543639
C44   C     C_R   0.406836 0.375392 0.600158 0.548973
C45   C     C_R   0.773081 0.380755 0.629862 0.541337
C46   C     C_1   0.359157 0.344284 0.273200 -0.029833
C47   C     C_1   0.328176 0.315782 0.204954 0.007806
C48   C     C_R   0.871453 0.320161 0.172895 0.037464
Cr1   Cr    Cr6+3 0.608100 0.610860 0.522250 1.010451
Cr2   Cr    Cr6+3 0.288890 0.599990 0.488420 1.009396
Cr3   Cr    Cr6+3 0.603040 0.289190 0.489390 0.995438
Cr4   Cr    Cr6+3 0.053960 0.052250 0.967380 1.014867
Cr5   Cr    Cr6+3 0.059890 0.373160 0.992710 1.044952
Cr6   Cr    Cr6+3 0.373370 0.061690 0.991710 0.989168
H1    H     H_    0.949229 0.454757 0.358345 0.125261
H2    H     H_    0.805180 0.693148 0.189229 0.170867
H3    H     H_    0.817465 0.731966 0.336404 0.103069
H4    H     H_    0.603195 0.822555 0.403723 0.144357
H5    H     H_    0.170756 0.544476 0.680940 0.144513
H6    H     H_    0.468060 0.981656 0.809548 0.151616
H7    H     H_    0.109694 0.486054 0.795280 0.144922
H8    H     H_    0.710957 0.833350 0.771013 0.121729
H9    H     H_    0.818965 0.937559 0.703604 0.119216
H10   H     H_    0.675241 0.180692 0.666263 0.153644
H11   H     H_    0.729620 0.187613 0.073780 0.139659
H12   H     H_    0.683197 0.007428 0.111675 0.139799
H13   H     H_    0.727726 0.959768 0.252099 0.130537
H14   H     H_    0.826930 0.079977 0.353057 0.135688
H15   H     H_    0.110078 0.920811 0.313849 0.136768
H16   H     H_    0.580160 0.741762 0.110240 0.133280
H17   H     H_    0.087490 0.949215 0.176813 0.162680
O1    O     O_R   0.749810 0.499790 0.438040 -0.513276
O2    O     O_R   0.298970 0.468800 0.557390 -0.490775
O3    O     O_R   0.489400 0.255930 0.561910 -0.512864
O4    O     O_R   0.723890 0.306050 0.584610 -0.537734
O5    O     O_3   0.500010 0.500010 0.500020 -0.277848
O6    O     O_R   0.171100 0.914680 0.053100 -0.515460
O7    O     O_R   0.941680 0.184840 0.050710 -0.524109
O8    O     O_R   0.922080 0.403420 0.072610 -0.464731
O9    O     O_R   0.196880 0.369150 0.083850 -0.453924
O10   O     O_R   0.411730 0.181020 0.091530 -0.529531
O11   O     O_R   0.365010 0.944360 0.063320 -0.521135
O12   O     O_R   0.477660 0.726260 0.439290 -0.510422
O13   O     O_R   0.159380 0.906670 0.876210 -0.497176
O14   O     O_R   0.930820 0.177420 0.886730 -0.492337
O15   O     O_R   0.910360 0.395420 0.895720 -0.527214
O16   O     O_R   0.186010 0.361730 0.919870 -0.492250
O17   O     O_R   0.400000 0.173010 0.914630 -0.514511
O18   O     O_R   0.354140 0.936940 0.899340 -0.535861
O19   O     O_3   0.162410 0.162370 0.983930 -0.285321
O20   O     O_R   0.260150 0.743000 0.412270 -0.524253
O21   O     O_R   0.297740 0.466550 0.394720 -0.496491
O22   O     O_R   0.488080 0.253500 0.386430 -0.503485
O23   O     O_R   0.722670 0.303800 0.421940 -0.522257
O24   O     O_R   0.751130 0.502220 0.613520 -0.501857
O25   O     O_R   0.478890 0.728510 0.601960 -0.492086
O26   O     O_R   0.261470 0.745430 0.587750 -0.523574
O27   O     O_3   0.007502 0.450321 0.214382 -0.700966
H18   H     H_    0.040381 0.494070 0.263596 0.313796

loop_
_geom_bond_atom_site_label_1
_geom_bond_atom_site_label_2
_ccdc_geom_bond_type
C25   C31   A    
C1    C21   S    
C33   C45   S    
Cr4   O19   S    
C19   C20   A    
Cr3   O3    S    
C7    C8    A    
C19   H3    S    
C26   C32   A    
C41   O15   A    
C26   C27   A    
C43   O18   A    
C14   C21   A    
C28   C29   A    
Cr5   O8    S    
Cr3   O4    S    
Cr6   O19   S    
C30   C31   A    
C38   O8    A    
C15   C16   A    
C34   O26   A    
C14   C20   A    
C18   C19   A    
Cr4   O13   S    
C27   H7    S    
C29   H8    S    
C6    H11   S    
C8    C9    A    
Cr1   O1    S    
Cr5   O15   S    
C26   H5    S    
C38   C48   S    
C18   H2    S    
C25   C32   A    
C17   H16   S    
C1    O20   A    
C30   H9    S    
C43   O13   A    
C2    C6    A    
C16   H17   S    
Cr4   O7    S    
C31   H10   S    
C28   H6    S    
C15   H15   S    
C5    C48   A    
C40   O11   A    
Cr5   O9    S    
C24   C25   A    
C39   O10   A    
Cr6   O18   S    
C12   C46   S    
Cr2   O2    S    
C38   O7    A    
C2    C48   A    
Cr1   O24   S    
C37   C43   S    
C29   C30   A    
C3    C9    A    
Cr2   O5    S    
C11   C16   A    
C17   C18   A    
C32   C44   S    
Cr1   O5    S    
Cr5   O16   S    
Cr3   O5    S    
C44   O3    A    
Cr3   O22   S    
Cr2   O21   S    
C22   C27   A    
C4    H1    S    
C22   C24   A    
C12   O22   A    
C42   O17   A    
C4    C10   A    
Cr4   O6    S    
C45   O24   A    
Cr6   O11   S    
C39   C47   S    
C44   O2    A    
C46   C47   T    
Cr4   O14   S    
Cr2   O26   S    
C23   O1    A    
C12   O21   A    
C24   C28   A    
C34   O25   A    
C4    C5    A    
C6    C7    A    
C10   C23   S    
C1    O12   A    
C41   O14   A    
C23   O23   A    
C13   C17   A    
C45   O4    A    
C39   O9    A    
Cr1   O12   S    
C2    C3    A    
C9    H14   S    
C3    C10   A    
C7    H12   S    
Cr6   O17   S    
C11   C13   A    
C22   C42   S    
C33   C35   T    
C34   C36   S    
Cr1   O25   S    
C11   C40   S    
C35   C41   S    
Cr3   O23   S    
Cr2   O20   S    
C15   C21   A    
C5    O27   S    
C8    H13   S    
C36   C37   T    
O27   H18   S    
Cr5   O19   S    
C40   O6    A    
C42   O16   A    
C13   C14   A    
C20   H4    S    
Cr6   O10   S    
