data_mof_unit_58408.cif
_audit_creation_date              2013-03-05T15:59:58-0500
_audit_creation_method            fapswitch 2.2
_symmetry_space_group_name_H-M    P1
_symmetry_Int_Tables_number       1
_space_group_crystal_system       triclinic
_cell_length_a                    12.644061
_cell_length_b                    13.101655
_cell_length_c                    19.146701
_cell_angle_alpha                 91.807284
_cell_angle_beta                  103.331566
_cell_angle_gamma                 80.207228
_cell_volume                      3041.26526903

loop_
_atom_site_label
_atom_site_type_symbol
_atom_site_description
_atom_site_fract_x
_atom_site_fract_y
_atom_site_fract_z
_atom_type_partial_charge
O1    O     O_R   0.366740 0.627160 0.482470 -0.590826
O2    O     O_R   0.544830 0.662520 0.505920 -0.561700
C1    C     C_R   0.436988 0.692022 0.488529 0.840283
O3    O     O_R   0.410920 0.482320 0.590130 -0.602357
O4    O     O_R   0.589010 0.517690 0.613590 -0.654213
C2    C     C_R   0.501654 0.500088 0.633748 0.966536
Zn1   Zn    Zn3+2 0.381090 0.476390 0.484340 0.985638
Zn2   Zn    Zn3+2 0.618910 0.523610 0.515660 0.985398
O5    O     O_R   0.455170 0.337480 0.494080 -0.608084
O6    O     O_R   0.633260 0.372840 0.517530 -0.634787
O7    O     O_R   0.410990 0.482310 0.386410 -0.636657
O8    O     O_R   0.589080 0.517680 0.409870 -0.551919
C3    C     C_R   0.562403 0.307945 0.511167 0.908479
C4    C     C_R   0.496725 0.502580 0.365944 0.868196
C5    C     C_R   0.501875 0.593316 0.746547 0.446517
C6    C     C_R   0.497036 0.593738 0.818217 -0.277513
H1    H     H_    0.498520 0.665580 0.847866 0.182022
C7    C     C_R   0.490945 0.502460 0.851803 -0.077387
C8    C     C_R   0.490708 0.407722 0.814099 -0.099794
C9    C     C_R   0.501852 0.406461 0.742790 0.382670
C10   C     C_R   0.504891 0.499599 0.709352 -0.252338
N1    N     N_R   0.574436 0.453344 0.975679 -0.133328
N2    N     N_R   0.574024 0.458095 0.044899 -0.154139
C11   C     C_R   0.490187 0.517855 0.067881 0.320803
N3    N     N_R   0.407043 0.573299 0.018954 -0.098380
N4    N     N_R   0.407579 0.569159 0.949691 -0.149107
C12   C     C_R   0.490766 0.508253 0.927231 0.403949
C13   C     C_R   0.561908 0.442773 0.189218 -0.181633
H2    H     H_    0.619617 0.385399 0.168998 0.189533
C14   C     C_R   0.561991 0.439033 0.261064 -0.165463
H3    H     H_    0.617367 0.378725 0.294530 0.183246
C15   C     C_R   0.488116 0.509142 0.289535 -0.136943
C16   C     C_R   0.407540 0.582247 0.245008 -0.165218
C17   C     C_R   0.412425 0.590630 0.172511 0.563771
C18   C     C_R   0.488214 0.518379 0.144221 -0.068025
C19   C     C_R   0.732873 0.043257 0.510623 -0.194098
H4    H     H_    0.775300 0.192631 0.531509 0.157179
H5    H     H_    0.814911 0.011897 0.504355 0.176430
C20   C     C_R   0.600883 0.195883 0.521101 -0.056511
C21   C     C_R   0.295059 0.846470 0.499915 -0.063064
C22   C     C_R   0.289224 0.938978 0.537746 -0.240636
C23   C     C_R   0.378474 0.992568 0.553104 -0.010291
C24   C     C_R   0.466194 0.964180 0.516952 0.014793
C25   C     C_R   0.472806 0.870416 0.478637 0.018583
C26   C     C_R   0.547158 0.026032 0.516890 0.044219
C27   C     C_R   0.648084 0.983086 0.499085 0.103723
C28   C     C_R   0.655016 0.889241 0.460977 -0.056060
C29   C     C_R   0.560150 0.841395 0.442214 -0.044112
C30   C     C_R   0.522565 0.133292 0.522463 -0.274085
C31   C     C_R   0.709650 0.148743 0.524087 -0.156951
C32   C     C_R   0.395502 0.804580 0.481200 -0.132072
H6    H     H_    0.438548 0.168986 0.521263 0.180502
H7    H     H_    0.217543 0.965346 0.559638 0.178470
C33   C     C_R   0.078751 0.400055 0.370486 -0.222290
H8    H     H_    0.250368 0.361246 0.371348 0.145137
H9    H     H_    0.055559 0.359440 0.320694 0.179526
N5    N     N_R   0.222200 0.444680 0.463280 -0.107482
C34   C     C_R   0.803609 0.621997 0.591758 -0.051021
C35   C     C_R   0.906074 0.655069 0.607494 0.477386
C36   C     C_R   0.983356 0.616193 0.568176 -0.204614
C37   C     C_R   0.957683 0.548033 0.511196 -0.042748
C38   C     C_R   0.850707 0.520879 0.493899 0.101881
C39   C     C_R   0.036648 0.500648 0.473192 -0.001050
C40   C     C_R   0.000773 0.450663 0.407281 0.097227
C41   C     C_R   0.888881 0.443294 0.383575 -0.053812
C42   C     C_R   0.826020 0.452883 0.435793 -0.014088
C43   C     C_R   0.150481 0.497264 0.499453 0.034537
C44   C     C_R   0.189695 0.397333 0.400101 0.022366
N6    N     N_R   0.776960 0.554780 0.536340 -0.178426
H10   H     H_    0.184504 0.535289 0.548144 0.115222
H11   H     H_    0.062063 0.642137 0.582504 0.137157
O9    O     O_3   0.509677 0.683538 0.713923 -0.587064
C45   C     C_3   0.402680 0.740028 0.689471 -0.259607
H12   H     H_    0.351089 0.696133 0.648293 0.133919
H13   H     H_    0.409395 0.812627 0.663844 0.207034
H14   H     H_    0.361714 0.762036 0.734626 0.166856
C46   C     C_2   0.752419 0.852081 0.430463 0.471115
H15   H     H_    0.743241 0.847349 0.372771 0.118274
O10   O     O_2   0.843284 0.825378 0.469672 -0.605787
C47   C     C_2   0.197079 0.794287 0.485404 0.448787
H16   H     H_    0.140130 0.806834 0.520689 0.039943
O11   O     O_2   0.175219 0.742110 0.431677 -0.519118
C48   C     C_2   0.383456 0.068649 0.612670 0.398372
H17   H     H_    0.461586 0.090230 0.639812 0.096333
O12   O     O_2   0.300753 0.106667 0.633023 -0.552547
C49   C     C_2   0.545310 0.767913 0.380985 0.381949
H18   H     H_    0.462720 0.761834 0.351688 0.009106
O13   O     O_2   0.622982 0.713037 0.363513 -0.559549
C50   C     C_2   0.844729 0.406960 0.310106 0.431260
H19   H     H_    0.797852 0.344316 0.301102 0.101237
O14   O     O_2   0.861483 0.447813 0.258141 -0.536589
C51   C     C_2   0.725643 0.663252 0.635910 0.623174
H20   H     H_    0.722236 0.619776 0.682352 0.068791
O15   O     O_2   0.670327 0.749362 0.623695 -0.555468
O16   O     O_3   0.934401 0.717580 0.666156 -0.625001
C52   C     C_3   0.928971 0.819122 0.641689 -0.201990
H21   H     H_    0.949730 0.869188 0.688966 0.182350
H22   H     H_    0.844190 0.851508 0.611518 0.206681
H23   H     H_    0.989730 0.822473 0.608384 0.160366
C53   C     C_2   0.797953 0.355361 0.454403 0.417019
H24   H     H_    0.825618 0.330724 0.509959 0.049984
O17   O     O_2   0.749207 0.300890 0.409724 -0.633850
C54   C     C_2   0.475714 0.310306 0.846057 0.474942
H25   H     H_    0.495164 0.236466 0.820692 0.111624
O18   O     O_2   0.437995 0.310995 0.899323 -0.550587
O19   O     O_3   0.502041 0.315430 0.703970 -0.602319
C55   C     C_3   0.612535 0.268796 0.708311 -0.358425
H26   H     H_    0.655704 0.317102 0.681191 0.166984
H27   H     H_    0.613272 0.193367 0.680379 0.197462
H28   H     H_    0.658466 0.252999 0.764975 0.163528
C56   C     C_2   0.319478 0.649064 0.273790 0.449615
H29   H     H_    0.324568 0.654219 0.330970 0.085750
O20   O     O_2   0.238554 0.698249 0.233973 -0.474738
O21   O     O_3   0.342397 0.668347 0.129310 -0.555508
C57   C     C_3   0.394354 0.756465 0.135462 -0.190107
H30   H     H_    0.338618 0.818950 0.100771 0.203546
H31   H     H_    0.472611 0.740193 0.116765 0.140857
H32   H     H_    0.410279 0.785755 0.191498 0.153242

loop_
_geom_bond_atom_site_label_1
_geom_bond_atom_site_label_2
_geom_bond_distance
_ccdc_geom_bond_type
C45   H13   1.108516 S    
C22   C23   1.398697 A    
O16   C52   1.409784 S    
H8    C44   1.081717 S    
C46   H15   1.084655 S    
Zn1   O7    2.002689 S    
C5    O9    1.382687 S    
Zn2   N6    2.054176 S    
C48   H17   1.083934 S    
C13   H2    1.082912 S    
C7    C8    1.416169 A    
O4    C2    1.308055 A    
O7    C4    1.303699 A    
C49   O13   1.220453 D    
C33   C44   1.381316 A    
O19   C55   1.411147 S    
C57   H30   1.109139 S    
C52   H23   1.112618 S    
C17   C18   1.416416 A    
C45   H12   1.113411 S    
C42   C53   1.458313 S    
C37   C39   1.416854 A    
O5    C3    1.311515 A    
C51   H20   1.083968 S    
C8    C54   1.491444 S    
C54   O18   1.220629 D    
C8    C9    1.403836 A    
C13   C18   1.400479 A    
C6    H1    1.084416 S    
C57   H31   1.113317 S    
C52   H22   1.112672 S    
N2    C11   1.356973 A    
C21   C47   1.482162 S    
C19   C27   1.409583 A    
C16   C56   1.493589 S    
C50   O14   1.220927 D    
C9    O19   1.385225 S    
C30   H6    1.080816 S    
C35   C36   1.388064 A    
C55   H27   1.108400 S    
C35   O16   1.384504 S    
N5    C43   1.350426 A    
O3    Zn1   1.974536 S    
C51   O15   1.220435 D    
N3    N4    1.327081 A    
O21   C57   1.411400 S    
C33   H9    1.081757 S    
C46   O10   1.219842 D    
C39   C43   1.404410 A    
C11   C18   1.467389 S    
C5    C6    1.387428 A    
C38   C42   1.414482 A    
C11   N3    1.356255 A    
C47   O11   1.220950 D    
C1    C32   1.478359 S    
C49   H18   1.080206 S    
C47   H16   1.085822 S    
C36   H11   1.079097 S    
C34   C35   1.399913 A    
C26   C27   1.416171 A    
C2    C10   1.438864 S    
C38   N6    1.383072 A    
C36   C37   1.402457 A    
O1    C1    1.314378 A    
C41   C50   1.484266 S    
C24   C25   1.410949 A    
C28   C29   1.415506 A    
C26   C30   1.392874 A    
Zn2   O8    1.974536 S    
C57   H32   1.113374 S    
C52   H21   1.109091 S    
C53   O17   1.220229 D    
C16   C17   1.412117 A    
N4    C12   1.352580 A    
C56   O20   1.220803 D    
C24   C26   1.409783 A    
C22   H7    1.084450 S    
C25   C32   1.418936 A    
O3    C2    1.305583 A    
C21   C22   1.392096 A    
C48   O12   1.221449 D    
O8    C4    1.313493 A    
N1    C12   1.351976 A    
C55   H28   1.113493 S    
C29   C49   1.491721 S    
C23   C24   1.430095 A    
C28   C46   1.484942 S    
C55   H26   1.112229 S    
C19   C31   1.391799 A    
Zn1   O5    1.893495 S    
C27   C28   1.409973 A    
C56   H29   1.082416 S    
C20   C30   1.394009 A    
O1    Zn1   1.953382 S    
Zn2   O6    1.953382 S    
O2    Zn2   1.893493 S    
C7    C12   1.444301 S    
C4    C15   1.445976 S    
O9    C45   1.409389 S    
O6    C3    1.320103 A    
O4    Zn2   2.002689 S    
C34   N6    1.375536 A    
C17   O21   1.383345 S    
C21   C32   1.415233 A    
C43   H10   1.077526 S    
C15   C16   1.414628 A    
C19   H5    1.080984 S    
O2    C1    1.318717 A    
C23   C48   1.488224 S    
C40   C41   1.401598 A    
C14   C15   1.387356 A    
H4    C31   1.068961 S    
C14   H3    1.077946 S    
C33   C40   1.405903 A    
C13   C14   1.377780 A    
C53   H24   1.081527 S    
C45   H14   1.113072 S    
C37   C38   1.419681 A    
C3    C20   1.469843 S    
C39   C40   1.418500 A    
C5    C10   1.399172 A    
C20   C31   1.397525 A    
C9    C10   1.406058 A    
C6    C7    1.397251 A    
C41   C42   1.404162 A    
C54   H25   1.084796 S    
N1    N2    1.326010 A    
N5    C44   1.351711 A    
C50   H19   1.078923 S    
C34   C51   1.467242 S    
Zn1   N5    2.066664 S    
C25   C29   1.430456 A    
