data_mof_unit_38698.cif
_audit_creation_date              2013-03-05T16:33:14-0500
_audit_creation_method            fapswitch 2.2
_symmetry_space_group_name_H-M    P1
_symmetry_Int_Tables_number       1
_space_group_crystal_system       triclinic
_cell_length_a                    27.701648
_cell_length_b                    10.822528
_cell_length_c                    9.561382
_cell_angle_alpha                 90.21638
_cell_angle_beta                  90.717274
_cell_angle_gamma                 90.312325
_cell_volume                      2866.23172665

loop_
_atom_site_label
_atom_site_type_symbol
_atom_site_description
_atom_site_fract_x
_atom_site_fract_y
_atom_site_fract_z
_atom_type_partial_charge
O1    O     O_R   0.500000 0.319640 0.618810 -0.590005
O2    O     O_R   0.500010 0.319680 0.381230 -0.562331
C1    C     C_R   0.498714 0.262480 0.499742 0.805619
O3    O     O_R   0.430260 0.500000 0.618780 -0.598301
O4    O     O_R   0.430270 0.500040 0.381190 -0.529993
C2    C     C_R   0.407766 0.497771 0.499141 0.801609
Cu1   Cu    Cu3+1 0.500000 0.499980 0.640670 0.955672
Cu2   Cu    Cu3+1 0.500000 0.500020 0.359330 1.008319
O5    O     O_R   0.499990 0.680320 0.618770 -0.578365
O6    O     O_R   0.500000 0.680360 0.381190 -0.547205
O7    O     O_R   0.569730 0.499960 0.618810 -0.567852
O8    O     O_R   0.569740 0.500000 0.381220 -0.586469
C3    C     C_R   0.497715 0.737706 0.499515 0.868601
C4    C     C_R   0.592293 0.499108 0.500641 0.896995
C5    C     C_R   0.179017 0.474578 0.615321 0.579277
O9    O     O_2   0.204611 0.472380 0.736320 -0.516351
N1    N     N_R   0.202518 0.480340 0.490549 -0.449884
C6    C     C_R   0.177733 0.485344 0.366101 0.538649
C7    C     C_R   0.278642 0.594412 0.475183 -0.138557
C8    C     C_R   0.328823 0.598351 0.477892 -0.244286
C9    C     C_R   0.331249 0.375197 0.512555 0.181016
C10   C     C_R   0.280314 0.371498 0.508186 0.272969
C11   C     C_R   0.254281 0.481887 0.490570 0.283973
C12   C     C_R   0.102117 0.472425 0.490872 -0.046939
C13   C     C_R   0.128387 0.471160 0.617936 -0.030691
C14   C     C_R   0.103583 0.469596 0.744387 -0.141818
C15   C     C_R   0.127074 0.480749 0.363805 -0.022811
C16   C     C_R   0.355233 0.489863 0.496798 -0.068073
H1    H     H_    0.122786 0.474686 0.843671 0.186268
C17   C     C_R   0.645103 0.496040 0.501352 -0.247836
C18   C     C_R   0.975454 0.434843 0.618214 -0.068498
C19   C     C_R   0.973638 0.485686 0.366447 0.060376
C20   C     C_R   0.949210 0.462827 0.493761 0.036168
C21   C     C_R   0.949392 0.391572 0.736413 0.300100
C22   C     C_R   0.899107 0.402059 0.738363 -0.195920
C23   C     C_R   0.873288 0.441742 0.620537 -0.096711
C24   C     C_R   0.898072 0.467842 0.496460 -0.043156
C25   C     C_R   0.871591 0.498972 0.374978 -0.022614
C26   C     C_R   0.821055 0.504576 0.380364 0.556936
N2    N     N_R   0.797825 0.481561 0.502923 -0.435398
C27   C     C_R   0.822694 0.450032 0.621774 0.603839
C28   C     C_R   0.719338 0.385158 0.459321 -0.157596
C29   C     C_R   0.669048 0.388079 0.456757 0.170268
C30   C     C_R   0.671888 0.599649 0.550041 0.225588
C31   C     C_R   0.722911 0.594611 0.551922 0.195177
C32   C     C_R   0.746151 0.487181 0.505549 0.229356
O10   O     O_2   0.798484 0.426068 0.740329 -0.522203
C33   C     C_R   0.026389 0.452097 0.619327 0.063667
C34   C     C_R   0.050918 0.466698 0.491049 0.072585
C35   C     C_R   0.024746 0.477647 0.363349 0.049264
C36   C     C_R   0.053453 0.462820 0.745026 -0.122451
H2    H     H_    0.737900 0.302994 0.424317 0.173491
H3    H     H_    0.879929 0.371931 0.830341 0.223101
H4    H     H_    0.036335 0.469864 0.845524 0.162158
O11   O     O_2   0.202075 0.494125 0.245117 -0.518754
C37   C     C_R   0.101035 0.483626 0.237674 -0.138014
H5    H     H_    0.347161 0.686297 0.465870 0.141799
H6    H     H_    0.258498 0.679089 0.461661 0.159194
H7    H     H_    0.119370 0.487596 0.138340 0.185581
C38   C     C_R   0.946010 0.518060 0.246880 -0.140000
C39   C     C_R   0.895978 0.524144 0.251209 -0.118482
O12   O     O_2   0.795276 0.532845 0.264224 -0.532577
C40   C     C_R   0.050829 0.482323 0.237167 -0.176578
H8    H     H_    0.962143 0.543037 0.148912 0.154438
H9    H     H_    0.876474 0.549611 0.156799 0.193935
H10   H     H_    0.033409 0.482475 0.135727 0.159241
C41   C     C_R   0.490044 0.064213 0.623342 0.110661
C42   C     C_R   0.492316 0.129854 0.498678 -0.130823
C43   C     C_R   0.485098 0.065987 0.372130 -0.247948
H11   H     H_    0.482719 0.115515 0.274120 0.199455
C44   C     C_R   0.483095 0.936698 0.369902 0.231816
C45   C     C_R   0.490465 0.870907 0.497003 -0.122259
C46   C     C_R   0.489613 0.937275 0.622500 0.065150
C47   C     C_3   0.521078 0.930926 0.750214 -0.436098
C48   C     C_3   0.521125 0.071147 0.751677 -0.435356
H12   H     H_    0.501820 0.890384 0.840608 0.189571
H13   H     H_    0.557186 0.891436 0.728233 0.248309
H14   H     H_    0.501618 0.110984 0.842068 0.201721
H15   H     H_    0.557210 0.112316 0.732130 0.201906
C49   C     C_R   0.541312 0.524687 0.075315 0.182660
N3    N     N_R   0.500300 0.500930 0.147930 -0.242416
C50   C     C_R   0.460778 0.459244 0.070804 0.397829
C51   C     C_R   0.460742 0.462450 0.922818 -0.141723
H16   H     H_    0.428935 0.432429 0.865702 0.176691
N4    N     N_R   0.500310 0.500890 0.852020 -0.212849
C52   C     C_R   0.541498 0.523195 0.928311 0.219764
C53   C     C_3   0.572210 0.636437 0.923927 -0.425256
C54   C     C_3   0.571441 0.638841 0.082833 -0.447819
H17   H     H_    0.608525 0.616695 0.881560 0.239234
H18   H     H_    0.553274 0.715317 0.875267 0.212106
H19   H     H_    0.607416 0.621702 0.131555 0.220728
H20   H     H_    0.551631 0.719057 0.126250 0.228712
N5    N     N_2   0.357622 0.262738 0.522277 -0.436345
H21   H     H_    0.386712 0.257676 0.456365 0.283717
C55   C     C_3   0.369679 0.224143 0.663040 -0.676056
H22   H     H_    0.399202 0.282535 0.706725 0.237064
H23   H     H_    0.382177 0.126884 0.660909 0.232130
H24   H     H_    0.337865 0.229982 0.732226 0.244926
N6    N     N_R   0.647438 0.711287 0.589205 0.108058
O13   O     O_R   0.656699 0.764718 0.708676 -0.401484
O14   O     O_R   0.615740 0.760269 0.504861 -0.405220
N7    N     N_2   0.751617 0.697308 0.596160 -0.408856
H25   H     H_    0.743257 0.731745 0.693368 0.304755
C56   C     C_3   0.757821 0.792250 0.491802 -0.585425
H26   H     H_    0.783848 0.862827 0.531616 0.224439
H27   H     H_    0.722862 0.838111 0.468452 0.251023
H28   H     H_    0.772407 0.752041 0.394107 0.251768
N8    N     N_2   0.476474 0.875080 0.239107 -0.419724
H29   H     H_    0.490624 0.921955 0.155088 0.241754
C57   C     C_3   0.427494 0.833658 0.212006 -0.605222
H30   H     H_    0.403106 0.914353 0.200969 0.222756
H31   H     H_    0.414613 0.773784 0.298132 0.225360
H32   H     H_    0.426220 0.779037 0.113445 0.227969
N9    N     N_2   0.254839 0.257383 0.519088 -0.421689
H33   H     H_    0.268638 0.198396 0.593618 0.277201
C58   C     C_3   0.246072 0.195558 0.386801 -0.597977
H34   H     H_    0.223915 0.111301 0.403956 0.222817
H35   H     H_    0.280794 0.168051 0.339025 0.242578
H36   H     H_    0.226052 0.256657 0.313730 0.258809
N10   N     N_R   0.419405 0.407267 0.136265 0.134584
O15   O     O_R   0.422717 0.299463 0.194928 -0.396215
O16   O     O_R   0.376812 0.450909 0.106859 -0.361615
N11   N     N_2   0.643297 0.280816 0.410402 -0.422494
H37   H     H_    0.611128 0.297010 0.358720 0.263105
C59   C     C_3   0.639358 0.185061 0.514718 -0.632942
H38   H     H_    0.619509 0.104428 0.469831 0.241784
H39   H     H_    0.619325 0.220159 0.606480 0.209070
H40   H     H_    0.675782 0.153966 0.548899 0.249761
N12   N     N_R   0.972091 0.321065 0.845911 0.104883
O17   O     O_R   0.956298 0.327649 0.973323 -0.383409
O18   O     O_R   0.003036 0.235536 0.814592 -0.327912

loop_
_geom_bond_atom_site_label_1
_geom_bond_atom_site_label_2
_geom_bond_distance
_ccdc_geom_bond_type
C53   C54   1.519900 S    
N5    H21   1.030772 S    
C22   H3    1.083481 S    
C55   H22   1.107489 S    
C46   C47   1.493409 S    
C7    C8    1.390448 A    
C12   C15   1.408313 A    
C50   N10   1.426644 S    
C15   C37   1.398014 A    
C56   H27   1.111166 S    
N9    H33   1.029929 S    
C55   H24   1.110469 S    
Cu1   Cu2   2.690000 S    
Cu1   N4    2.020696 S    
C31   C32   1.405083 A    
N10   O15   1.299644 A    
Cu1   O7    1.945512 S    
N1    C11   1.433919 S    
C47   H12   1.111739 S    
C51   H16   1.078727 S    
C23   C24   1.406899 A    
O4    C2    1.295672 A    
O7    C4    1.298073 A    
N11   C59   1.445665 S    
C5    O9    1.349644 S    
N8    H29   1.032057 S    
Cu1   O5    1.963721 S    
C21   C22   1.398566 A    
C28   C32   1.394763 A    
C43   C44   1.400111 A    
O5    C3    1.301466 A    
C57   H30   1.111556 S    
C49   C52   1.405664 A    
C33   C36   1.412605 A    
C2    C16   1.457184 S    
C1    C42   1.445279 S    
C21   N12   1.438246 S    
C58   H35   1.111539 S    
C42   C43   1.402817 A    
C47   H13   1.112006 S    
C59   H40   1.111054 S    
C18   C20   1.421149 A    
C41   C46   1.373769 A    
C25   C39   1.396958 A    
C40   H10   1.077918 S    
N5    C55   1.446356 S    
C9    C10   1.411418 A    
C35   C40   1.414955 A    
C17   C30   1.415252 A    
C23   C27   1.405075 A    
N7    H25   1.029618 S    
C4    C17   1.463430 S    
O3    Cu1   1.940615 S    
C56   H26   1.110460 S    
N10   O16   1.301183 A    
N3    C50   1.384875 A    
C7    H6    1.082866 S    
C18   C21   1.427756 A    
C47   C48   1.517547 S    
C41   C42   1.391825 A    
C58   H36   1.109385 S    
C54   H20   1.111450 S    
N11   H37   1.029715 S    
C12   C13   1.408490 A    
O3    C2    1.295834 A    
C26   N2    1.366985 A    
C52   C53   1.489117 S    
C45   C46   1.396658 A    
C8    C16   1.397892 A    
C13   C14   1.398204 A    
N4    C52   1.366391 A    
C20   C24   1.418507 A    
Cu2   N3    2.021459 S    
C38   C39   1.389031 A    
O1    C1    1.293620 A    
C22   C23   1.397144 A    
C7    C11   1.398193 A    
C24   C25   1.408933 A    
N6    O13   1.300429 A    
C54   H19   1.111577 S    
Cu2   O8    1.940609 S    
N1    C6    1.367707 A    
C27   O10   1.349581 S    
C37   C40   1.390723 A    
N7    C56   1.446043 S    
C57   H32   1.110625 S    
C19   C35   1.419606 A    
C6    O11   1.349637 S    
N2    C27   1.366851 A    
C51   N4    1.359575 A    
C9    C16   1.413884 A    
O8    C4    1.294783 A    
C50   C51   1.415486 A    
C18   C33   1.422187 A    
C53   H17   1.110706 S    
C59   H38   1.110896 S    
C17   C29   1.413760 A    
C41   C48   1.491562 S    
C28   C29   1.393569 A    
N2    C32   1.433625 S    
C29   N11   1.425506 S    
C30   C31   1.414653 A    
N12   O17   1.301390 A    
C12   C34   1.419341 A    
C5    N1    1.367675 A    
C26   O12   1.349732 S    
C33   C34   1.418519 A    
N6    O14   1.301155 A    
O1    Cu1   1.962109 S    
O2    Cu2   1.963723 S    
C6    C15   1.403828 A    
C49   N3    1.362638 A    
O6    C3    1.290763 A    
O4    Cu2   1.945514 S    
N9    C58   1.445913 S    
C55   H23   1.110045 S    
C3    C45   1.456827 S    
C37   H7    1.083524 S    
C38   H8    1.077630 S    
C36   H4    1.079472 S    
C19   C20   1.421976 A    
O2    C1    1.294058 A    
C44   C45   1.423877 A    
C49   C54   1.488170 S    
C14   C36   1.390321 A    
C25   C26   1.403146 A    
C9    N5    1.425668 S    
C30   N6    1.438954 S    
N8    C57   1.446653 S    
C58   H34   1.110280 S    
C43   H11   1.082798 S    
C48   H14   1.111869 S    
C57   H31   1.110947 S    
C5    C13   1.403373 A    
C31   N7    1.423007 S    
C39   H9    1.083525 S    
C10   N9    1.423898 S    
C14   H1    1.083421 S    
Cu2   O6    1.962108 S    
C34   C35   1.417865 A    
C53   H18   1.105515 S    
C59   H39   1.110843 S    
C19   C38   1.414028 A    
C10   C11   1.408404 A    
C8    H5    1.083609 S    
C44   N8    1.424402 S    
C48   H15   1.110466 S    
C56   H28   1.110618 S    
C28   H2    1.083590 S    
N12   O18   1.301655 A    
