data_mof_unit_27297.cif
_audit_creation_date              2012-12-11T17:25:02-0500
_audit_creation_method            fapswitch 2.2
_symmetry_space_group_name_H-M    P1
_symmetry_Int_Tables_number       1
_space_group_crystal_system       triclinic
_cell_length_a                    6.954365
_cell_length_b                    20.540565
_cell_length_c                    24.498563
_cell_angle_alpha                 90.085742
_cell_angle_beta                  90.355532
_cell_angle_gamma                 89.398887
_cell_volume                      3499.27254449

loop_
_atom_site_label
_atom_site_type_symbol
_atom_type_description
_atom_site_fract_x
_atom_site_fract_y
_atom_site_fract_z
_atom_type_partial_charge
O1    O     O_R   0.507280 0.423750 0.460310 -0.537718
O2    O     O_R   0.171030 0.555650 0.437630 -0.531843
O3    O     O_R   0.004080 0.576250 0.539690 -0.538502
C1    C     C_R   0.339132 0.575644 0.421793 0.715365
O4    O     O_R   0.177330 0.422980 0.453960 -0.538437
O5    O     O_R   0.010420 0.442640 0.556140 -0.532182
C2    C     C_R   0.346397 0.399111 0.443289 0.696291
O6    O     O_R   0.500930 0.557360 0.443860 -0.532239
O7    O     O_3   0.340310 0.506600 0.533500 -0.365323
V1    V     V_3+5 0.064140 0.498780 0.493780 1.469549
O8    O     O_R   0.680890 0.444350 0.562370 -0.533949
C3    C     C_R   0.850556 0.424406 0.578138 0.716563
O9    O     O_R   0.674590 0.577020 0.546040 -0.538744
C4    C     C_R   0.842378 0.600898 0.556790 0.694642
V2    V     V_3+5 0.564550 0.501220 0.506220 1.468017
O10   O     O_3   0.838250 0.493400 0.466500 -0.363798
C5    C     C_R   0.979302 0.838082 0.911173 -0.115732
C6    C     C_R   0.844966 0.661436 0.589264 -0.046605
C7    C     C_R   0.080299 0.725024 0.903690 0.459408
C8    C     C_R   0.056234 0.781714 0.934600 -0.232398
C9    C     C_R   0.923108 0.837739 0.855996 -0.230402
C10   C     C_R   0.945272 0.780867 0.823022 0.031726
C11   C     C_R   0.022952 0.724010 0.848257 0.024564
C12   C     C_R   0.897112 0.778784 0.765814 0.085723
C13   C     C_R   0.925729 0.719796 0.735122 0.057040
C14   C     C_R   0.000098 0.664791 0.762680 -0.196706
C15   C     C_R   0.047045 0.666968 0.817745 -0.159803
C16   C     C_R   0.822854 0.833866 0.738132 -0.187072
C17   C     C_R   0.778721 0.831880 0.682843 -0.205599
C18   C     C_R   0.804947 0.775016 0.652576 0.139317
C19   C     C_R   0.878862 0.717813 0.677870 0.083624
C20   C     C_R   0.754533 0.775015 0.597024 -0.161081
C21   C     C_R   0.772516 0.718622 0.565898 -0.167636
C22   C     C_R   0.899431 0.660996 0.644689 -0.208438
H1    H     H_    0.105189 0.623127 0.836369 0.179657
H2    H     H_    0.950804 0.615195 0.660753 0.105874
H3    H     H_    0.727435 0.719344 0.523480 0.109747
H4    H     H_    0.721858 0.875554 0.663555 0.124048
H5    H     H_    0.101229 0.781980 0.977044 0.142975
H6    H     H_    0.868540 0.883121 0.839960 0.109098
H7    H     H_    0.025743 0.618838 0.742719 0.138854
H8    H     H_    0.796684 0.879837 0.757985 0.122609
H9    H     H_    0.697368 0.818638 0.577766 0.113687
H10   H     H_    0.647637 0.174530 0.769168 0.127166
C23   C     C_R   0.748189 0.252030 0.717987 -0.163794
H11   H     H_    0.618371 0.252612 0.693321 0.161500
C24   C     C_R   0.897395 0.295469 0.706695 0.069455
C25   C     C_R   0.065202 0.293341 0.739338 0.273259
C26   C     C_R   0.081605 0.248325 0.782417 -0.176063
H12   H     H_    0.211265 0.247177 0.807165 0.151138
C27   C     C_R   0.931877 0.205127 0.793644 0.081195
C28   C     C_R   0.765018 0.207367 0.761159 -0.147655
C29   C     C_1   0.877409 0.341288 0.661520 0.049832
C30   C     C_1   0.948708 0.158991 0.838596 -0.033368
C31   C     C_1   0.961347 0.120729 0.876330 -0.189232
C32   C     C_1   0.863250 0.379342 0.623680 -0.139954
C33   C     C_R   0.587489 0.747157 0.217782 0.254933
C34   C     C_R   0.442806 0.793954 0.206148 0.010694
C35   C     C_R   0.275837 0.795091 0.238034 -0.158114
H13   H     H_    0.163114 0.830585 0.229743 0.160725
C36   C     C_R   0.251590 0.750484 0.280726 -0.142185
H14   H     H_    0.120791 0.752528 0.304493 0.165543
C37   C     C_R   0.394335 0.703855 0.292832 0.012155
C38   C     C_R   0.563799 0.702398 0.261258 0.247540
C39   C     C_1   0.462177 0.840542 0.161382 0.058925
C40   C     C_1   0.366850 0.658489 0.338101 0.072344
C41   C     C_1   0.349606 0.620668 0.376023 -0.140547
C42   C     C_1   0.475611 0.879016 0.123784 -0.158628
C43   C     C_R   0.471868 0.161576 0.089035 -0.044431
C44   C     C_R   0.353122 0.338529 0.411022 -0.044692
C45   C     C_R   0.529356 0.277223 0.094507 -0.147564
C46   C     C_R   0.521759 0.220006 0.064150 -0.162538
C47   C     C_R   0.430145 0.160602 0.145134 -0.212333
C48   C     C_R   0.440182 0.218304 0.177453 0.087378
C49   C     C_R   0.490452 0.276886 0.150658 0.126454
C50   C     C_R   0.404803 0.219954 0.235211 0.059703
C51   C     C_R   0.420322 0.280168 0.264845 0.050890
C52   C     C_R   0.470145 0.336685 0.235707 -0.172677
C53   C     C_R   0.503955 0.334890 0.179955 -0.180708
C54   C     C_R   0.355067 0.163432 0.264354 -0.184976
C55   C     C_R   0.321329 0.165219 0.320107 -0.200648
C56   C     C_R   0.334775 0.223222 0.349402 0.140499
C57   C     C_R   0.384918 0.281816 0.322603 0.086395
C58   C     C_R   0.295940 0.222869 0.405556 -0.161158
C59   C     C_R   0.303436 0.280084 0.435913 -0.169491
C60   C     C_R   0.394793 0.339523 0.354919 -0.206850
H15   H     H_    0.542402 0.379653 0.159514 0.144445
H16   H     H_    0.429671 0.386187 0.337843 0.105727
H17   H     H_    0.269047 0.278880 0.478978 0.109863
H18   H     H_    0.282979 0.120448 0.340551 0.122657
H19   H     H_    0.568481 0.321906 0.074087 0.127966
H20   H     H_    0.556186 0.221200 0.021087 0.114165
H21   H     H_    0.395053 0.113954 0.162201 0.092993
H22   H     H_    0.484999 0.383585 0.254815 0.140758
H23   H     H_    0.340292 0.116527 0.245251 0.122665
H24   H     H_    0.256934 0.178175 0.425978 0.113779
O11   O     O_R   0.323320 0.942780 0.056240 -0.534852
O12   O     O_R   0.647300 0.077050 0.046060 -0.538536
O13   O     O_R   0.813840 0.057330 0.943840 -0.536148
C61   C     C_R   0.478334 0.100988 0.056763 0.693146
O14   O     O_R   0.653250 0.944380 0.062400 -0.530929
O15   O     O_R   0.819830 0.923720 0.960300 -0.535232
C62   C     C_R   0.485181 0.924431 0.078265 0.719002
O16   O     O_R   0.317330 0.076390 0.039790 -0.536418
O17   O     O_3   0.483830 0.993470 0.966560 -0.369407
V3    V     V_3+5 0.760140 0.001210 0.006210 1.442251
O18   O     O_R   0.149290 0.922840 0.953850 -0.540346
C63   C     C_R   0.981450 0.898955 0.943224 0.726880
O19   O     O_R   0.143340 0.055500 0.937510 -0.538189
C64   C     C_R   0.973702 0.075521 0.921796 0.721072
V4    V     V_3+5 0.259690 0.998600 0.993650 1.432336
O20   O     O_3   0.986130 0.006520 0.033440 -0.365982
Br1   Br    Br    0.275015 0.351119 0.726449 -0.582269
Br2   Br    Br    0.763175 0.639463 0.277819 -0.503179
Br3   Br    Br    0.816542 0.744300 0.173976 -0.496784
O21   O     O_3   0.155264 0.669710 0.928382 -0.550237
C65   C     C_3   0.357122 0.675288 0.931084 -0.201142
H25   H     H_    0.400691 0.715776 0.958576 0.142064
H26   H     H_    0.420159 0.681911 0.889790 0.127740
H27   H     H_    0.418057 0.629534 0.948252 0.185848

loop_
_geom_bond_atom_site_label_1
_geom_bond_atom_site_label_2
_ccdc_geom_bond_type
C13   C19   A    
C18   C20   A    
C65   H25   S    
C47   C48   A    
C4    C6    S    
O2    C1    A    
C7    C8    A    
C42   C62   S    
C47   H21   S    
C1    O6    A    
C2    C44   S    
C53   H15   S    
C55   C56   A    
C33   Br3   S    
V3    O20   S    
C23   H11   S    
C14   C15   A    
C48   C50   A    
C16   C17   A    
O19   V4    S    
O5    C3    A    
C18   C19   A    
O11   V4    S    
C60   H16   S    
C51   C57   A    
V2    O10   S    
C61   O16   A    
C5    C8    A    
O21   C65   S    
C58   H24   S    
C36   C37   A    
O8    V2    S    
V4    O20   S    
C26   C27   A    
C17   H4    S    
O18   C63   A    
C43   C47   A    
O1    V2    S    
C11   C15   A    
O7    V1    S    
C24   C29   S    
H10   C28   S    
C40   C41   T    
O17   V4    S    
C37   C40   S    
C35   H13   S    
O14   C62   A    
O9    C4    A    
C50   C51   A    
C23   C24   A    
C35   C36   A    
C38   Br2   S    
C48   C49   A    
C27   C28   A    
C50   C54   A    
C12   C13   A    
C65   H27   S    
O4    C2    A    
C8    H5    S    
C59   H17   S    
C52   C53   A    
C23   C28   A    
C15   H1    S    
C13   C14   A    
C51   C52   A    
O13   C64   A    
C21   H3    S    
C43   C46   A    
C7    C11   A    
C17   C18   A    
C1    C41   S    
C34   C39   S    
C24   C25   A    
C39   C42   T    
C19   C22   A    
C3    C32   S    
C58   C59   A    
C54   H23   S    
O15   C63   A    
C6    C22   A    
O11   C62   A    
O3    C4    A    
C55   H18   S    
C25   C26   A    
C56   C57   A    
O6    V2    S    
C56   C58   A    
O9    V2    S    
C31   C64   S    
C10   C12   A    
C5    C63   S    
O2    V1    S    
C33   C38   A    
C29   C32   T    
O14   V3    S    
O13   V3    S    
C30   C31   T    
O1    C2    A    
O18   V4    S    
C12   C16   A    
C54   C55   A    
O5    V1    S    
O16   V4    S    
O8    C3    A    
O17   V3    S    
O12   C61   A    
O12   V3    S    
C27   C30   S    
C20   C21   A    
C65   H26   S    
C34   C35   A    
C45   C46   A    
O3    V1    S    
V1    O10   S    
O19   C64   A    
C45   C49   A    
C33   C34   A    
C9    H6    S    
C7    O21   S    
C52   H22   S    
C46   H20   S    
C16   H8    S    
C20   H9    S    
O15   V3    S    
C22   H2    S    
O7    V2    S    
C36   H14   S    
C6    C21   A    
C5    C9    A    
C37   C38   A    
C43   C61   S    
O4    V1    S    
C57   C60   A    
C45   H19   S    
C26   H12   S    
C10   C11   A    
C9    C10   A    
C44   C59   A    
C49   C53   A    
C14   H7    S    
C25   Br1   S    
C44   C60   A    
