data_mof_unit_47758.cif
_audit_creation_date              2012-12-10T17:31:15-0500
_audit_creation_method            fapswitch 2.2
_symmetry_space_group_name_H-M    P1
_symmetry_Int_Tables_number       1
_space_group_crystal_system       triclinic
_cell_length_a                    12.19049
_cell_length_b                    12.938513
_cell_length_c                    15.574087
_cell_angle_alpha                 84.989558
_cell_angle_beta                  116.626278
_cell_angle_gamma                 92.235208
_cell_volume                      2187.55032092

loop_
_atom_site_label
_atom_site_type_symbol
_atom_type_description
_atom_site_fract_x
_atom_site_fract_y
_atom_site_fract_z
_atom_type_partial_charge
C1    C     C_R   0.478006 0.300135 0.497688 0.912915
C2    C     C_R   0.664974 0.961748 0.544905 0.455938
C3    C     C_R   0.347398 0.144853 0.456106 -0.177860
C4    C     C_R   0.652575 0.855159 0.543826 -0.178392
C5    C     C_R   0.568486 0.129108 0.524437 -0.257275
C6    C     C_R   0.431443 0.870903 0.475410 -0.257128
C7    C     C_R   0.559006 0.023180 0.516918 0.006083
C8    C     C_R   0.440927 0.976833 0.482931 0.006071
C9    C     C_R   0.006516 0.612024 0.422839 -0.284466
C10   C     C_R   0.993479 0.387965 0.577160 -0.284362
C11   C     C_R   0.124552 0.602021 0.428709 0.075045
C12   C     C_R   0.521986 0.699866 0.502296 0.913060
C13   C     C_R   0.875428 0.397962 0.571266 0.075112
C14   C     C_R   0.158453 0.448733 0.532654 0.048471
C15   C     C_R   0.841596 0.551320 0.467419 0.048355
C16   C     C_R   0.577313 0.495803 0.680355 0.912029
C17   C     C_R   0.422690 0.504248 0.319636 0.912212
C18   C     C_R   0.038454 0.458688 0.527695 0.001900
C19   C     C_R   0.961569 0.541328 0.472341 0.001992
C20   C     C_R   0.625624 0.490335 0.785125 -0.087922
C21   C     C_R   0.374438 0.510185 0.214851 -0.088085
C22   C     C_R   0.775784 0.430795 0.946490 -0.008473
C23   C     C_R   0.641963 0.473096 0.114221 -0.203554
C24   C     C_R   0.224395 0.570445 0.053658 -0.008738
C25   C     C_R   0.741049 0.449246 0.847527 -0.220712
C26   C     C_R   0.258989 0.551316 0.152553 -0.220298
C27   C     C_R   0.546530 0.517526 0.821395 -0.181061
C28   C     C_R   0.453690 0.483620 0.178507 -0.180781
C29   C     C_R   0.572787 0.493619 0.917471 0.085322
C30   C     C_R   0.427544 0.508183 0.082536 0.085380
C31   C     C_R   0.692268 0.456602 0.982369 0.082267
C32   C     C_R   0.308053 0.545217 0.017721 0.082058
C33   C     C_R   0.482909 0.507294 0.950120 0.081777
C34   C     C_R   0.358486 0.529414 0.885823 -0.202961
C35   C     C_R   0.517496 0.494923 0.049891 0.081735
C36   C     C_2   0.840201 0.313192 0.624372 0.925619
C37   C     C_2   0.159771 0.686819 0.375614 0.925313
C38   C     C_2   0.894368 0.376355 0.007414 0.931144
C39   C     C_2   0.105763 0.624895 0.992905 0.930984
C40   C     C_2   0.763192 0.639270 0.408175 0.946834
C41   C     C_2   0.237056 0.361019 0.592192 0.947653
C42   C     C_R   0.726365 0.451931 0.081077 -0.150241
C43   C     C_R   0.274075 0.550423 0.919014 -0.150275
C44   C     C_R   0.536103 0.810369 0.507037 -0.157377
C45   C     C_R   0.463862 0.189638 0.492888 -0.157466
C46   C     C_R   0.334970 0.038263 0.454964 0.455862
H1    H     H_    0.819869 0.436367 0.134155 0.193507
H2    H     H_    0.322076 0.529103 0.808736 0.173105
H3    H     H_    0.342725 0.834689 0.444101 0.212581
H4    H     H_    0.657181 0.165320 0.555702 0.212697
H5    H     H_    0.734137 0.807716 0.569797 0.223663
H6    H     H_    0.265856 0.192297 0.430190 0.223752
H7    H     H_    0.764583 0.268053 0.712932 0.334883
H8    H     H_    0.235557 0.732032 0.287183 0.334884
H9    H     H_    0.990102 0.271914 0.118143 0.359773
H10   H     H_    0.009952 0.729711 0.882531 0.359871
H11   H     H_    0.225697 0.935725 0.470996 0.361079
H12   H     H_    0.180600 0.566146 0.865940 0.193637
H13   H     H_    0.774217 0.064262 0.528819 0.361022
H14   H     H_    0.731344 0.792936 0.394085 0.351016
H15   H     H_    0.269852 0.207528 0.606560 0.350909
H16   H     H_    0.949441 0.676473 0.378234 0.201235
H17   H     H_    0.050533 0.323492 0.621738 0.201154
H18   H     H_    0.536579 0.442836 0.227256 0.164072
H19   H     H_    0.463677 0.558233 0.772479 0.163881
H20   H     H_    0.197546 0.572005 0.181197 0.221930
H21   H     H_    0.802351 0.428057 0.818925 0.221886
H22   H     H_    0.678339 0.473745 0.191287 0.173572
N1    N     N_R   0.799120 0.480200 0.517090 -0.171294
N2    N     N_R   0.200880 0.519800 0.482910 -0.171337
O1    O     O_R   0.580150 0.341050 0.504560 -0.618758
O2    O     O_R   0.779994 0.333093 0.678585 -0.784411
O3    O     O_2   0.126300 0.775421 0.373119 -0.629824
O4    O     O_R   0.220165 0.666975 0.321523 -0.784423
O5    O     O_2   0.980733 0.390159 0.987872 -0.609546
O6    O     O_R   0.905519 0.304534 0.083369 -0.801783
O7    O     O_2   0.019389 0.610720 0.012390 -0.609833
O8    O     O_R   0.094564 0.697128 0.917202 -0.801682
O9    O     O_3   0.218875 0.997579 0.426716 -0.700597
O10   O     O_3   0.781062 0.002433 0.573130 -0.700537
O11   O     O_2   0.683888 0.627447 0.326657 -0.634941
O12   O     O_R   0.419850 0.658950 0.495440 -0.618627
O13   O     O_R   0.788226 0.738003 0.442281 -0.796364
O14   O     O_2   0.315738 0.373015 0.673848 -0.634913
O15   O     O_R   0.212902 0.262293 0.558173 -0.796499
O16   O     O_R   0.388090 0.353760 0.493600 -0.616196
O17   O     O_R   0.611910 0.646240 0.506400 -0.616428
O18   O     O_R   0.650890 0.490020 0.640860 -0.569044
O19   O     O_R   0.349110 0.509980 0.359140 -0.569104
O20   O     O_R   0.458830 0.502730 0.629890 -0.602842
O21   O     O_R   0.541170 0.497270 0.370110 -0.602441
O22   O     O_2   0.873540 0.224567 0.626791 -0.629906
Zn1   Zn    Zn3+2 0.628240 0.491510 0.507320 1.001806
Zn2   Zn    Zn3+2 0.371760 0.508490 0.492680 1.001714

loop_
_geom_bond_atom_site_label_1
_geom_bond_atom_site_label_2
_ccdc_geom_bond_type
C21   C26   A    
C16   O20   A    
O12   Zn2   S    
C31   C42   A    
C27   C29   A    
H11   O9    S    
C10   H17   S    
C17   O21   A    
C37   O4    S    
C11   N2    A    
C7    C8    A    
C38   O6    S    
C15   C19   A    
C1    O1    A    
C23   C42   A    
C30   C35   A    
C39   O7    D    
N2    Zn2   S    
C24   C26   A    
N1    Zn1   S    
C46   O9    S    
H14   O13   S    
C20   C25   A    
C22   C38   S    
C29   C33   A    
C24   C39   S    
H10   O8    S    
C18   C19   A    
O19   Zn2   S    
C11   C37   S    
C14   C18   A    
O16   Zn2   S    
C43   H12   S    
H8    O4    S    
C9    C19   A    
C2    C7    A    
C22   C25   A    
C25   H21   S    
C36   O22   D    
C6    C44   A    
C14   N2    A    
C40   O13   S    
O20   Zn2   S    
C38   O5    D    
C15   N1    A    
C22   C31   A    
C4    H5    S    
C9    H16   S    
C26   H20   S    
C39   O8    S    
C17   O19   A    
C13   C36   S    
C5    C7    A    
C6    C8    A    
C4    C44   A    
C41   O14   D    
C5    C45   A    
C3    C45   A    
C17   C21   S    
C23   H22   S    
C2    C4    A    
C24   C32   A    
C27   H19   S    
O21   Zn1   S    
C16   C20   S    
C33   C34   A    
C12   O12   A    
C9    C11   A    
H15   O15   S    
C14   C41   S    
H9    O6    S    
C28   H18   S    
C21   C28   A    
C23   C35   A    
C5    H4    S    
C34   H2    S    
C1    O16   A    
C37   O3    D    
O18   Zn1   S    
C12   O17   A    
C40   O11   D    
C34   C43   A    
C10   C13   A    
H13   O10   S    
C3    H6    S    
O1    Zn1   S    
C20   C27   A    
C41   O15   S    
C3    C46   A    
C28   C30   A    
C12   C44   S    
C30   C32   A    
C1    C45   S    
C13   N1    A    
C10   C18   A    
O17   Zn1   S    
C33   C35   A    
C32   C43   A    
C42   H1    S    
C6    H3    S    
C8    C46   A    
C15   C40   S    
C2    O10   S    
C29   C31   A    
C16   O18   A    
H7    O2    S    
C36   O2    S    
