data_mof_unit_16997.cif
_audit_creation_date              2013-03-05T15:50:47-0500
_audit_creation_method            fapswitch 2.2
_symmetry_space_group_name_H-M    P1
_symmetry_Int_Tables_number       1
_space_group_crystal_system       triclinic
_cell_length_a                    14.320606
_cell_length_b                    14.794475
_cell_length_c                    33.164682
_cell_angle_alpha                 97.990352
_cell_angle_beta                  90.465466
_cell_angle_gamma                 118.722613
_cell_volume                      6079.32719062

loop_
_atom_site_label
_atom_site_type_symbol
_atom_site_description
_atom_site_fract_x
_atom_site_fract_y
_atom_site_fract_z
_atom_type_partial_charge
O1    O     O_R   0.318160 0.824460 0.443680 -0.461548
O2    O     O_R   0.525040 0.857250 0.449830 -0.508591
C1    C     C_R   0.617543 0.909154 0.437217 0.566082
O3    O     O_R   0.684760 0.998800 0.456360 -0.433443
O4    O     O_R   0.647540 0.166310 0.470260 -0.456946
C2    C     C_R   0.594981 0.207177 0.457250 0.564627
O5    O     O_R   0.500960 0.181750 0.467450 -0.482534
O6    O     O_R   0.331100 0.981120 0.457080 -0.457293
C3    C     C_R   0.291212 0.890853 0.435121 0.572487
O7    O     O_R   0.315560 0.821140 0.532010 -0.508021
O8    O     O_R   0.522630 0.854180 0.531710 -0.513848
C4    C     C_R   0.614895 0.904653 0.551303 0.554985
O9    O     O_R   0.682160 0.995480 0.544690 -0.444652
O10   O     O_R   0.645130 0.163230 0.552140 -0.501018
C5    C     C_R   0.589509 0.198785 0.571241 0.574379
O11   O     O_R   0.498360 0.178430 0.555780 -0.425670
O12   O     O_R   0.328690 0.978040 0.538950 -0.449035
C6    C     C_R   0.288155 0.886809 0.548373 0.557386
Cr1   Cr    Cr6+3 0.424820 0.846020 0.489780 1.103265
Cr2   Cr    Cr6+3 0.657880 0.078580 0.505700 1.188705
Cr3   Cr    Cr6+3 0.417280 0.075360 0.504550 1.210701
O13   O     O_3   0.499990 0.999990 0.500010 -0.317878
C7    C     C_R   0.737956 0.449676 0.105765 0.006275
C8    C     C_R   0.668656 0.462399 0.132887 -0.148296
C9    C     C_R   0.675164 0.451451 0.173521 -0.121262
C10   C     C_R   0.751249 0.427690 0.188288 -0.011785
C11   C     C_R   0.817148 0.409308 0.161120 -0.076516
C12   C     C_R   0.810322 0.418426 0.119720 0.201952
C13   C     C_R   0.763680 0.334142 0.243371 -0.074298
C14   C     C_R   0.752904 0.315979 0.283807 0.208102
C15   C     C_R   0.739080 0.386490 0.313529 -0.006491
C16   C     C_R   0.742253 0.477127 0.302694 0.202610
C17   C     C_R   0.751101 0.491725 0.261823 -0.081372
C18   C     C_R   0.758214 0.419028 0.231890 -0.041610
C19   C     C_R   0.601779 0.320975 0.362495 -0.064225
C20   C     C_R   0.567329 0.278949 0.397963 -0.122882
C21   C     C_R   0.749482 0.322350 0.419131 0.211870
C22   C     C_R   0.782498 0.361991 0.382689 0.001252
C23   C     C_R   0.708377 0.358683 0.354033 0.051603
C24   C     C_R   0.639072 0.274447 0.425682 0.008587
H1    H     H_    0.612187 0.485903 0.123267 0.168692
H2    H     H_    0.768540 0.277466 0.220263 0.160256
H3    H     H_    0.544088 0.318751 0.340480 0.153616
H4    H     H_    0.874177 0.388101 0.172171 0.172956
H5    H     H_    0.188300 0.732997 0.101535 0.168646
H6    H     H_    0.236080 0.767085 0.175167 0.192940
C25   C     C_R   0.229220 0.871188 0.395310 -0.037791
C26   C     C_R   0.223344 0.954649 0.380994 0.158441
C27   C     C_R   0.208045 0.951038 0.339003 -0.138546
C28   C     C_R   0.188802 0.862823 0.311348 -0.054297
C29   C     C_R   0.173782 0.771789 0.325693 0.221094
C30   C     C_R   0.193350 0.775674 0.368001 0.169088
C31   C     C_R   0.196745 0.805516 0.162891 -0.071247
C32   C     C_R   0.169940 0.786683 0.120884 -0.098345
C33   C     C_R   0.088791 0.898228 0.130683 -0.118613
C34   C     C_R   0.115170 0.916491 0.172814 -0.111502
C35   C     C_R   0.165494 0.866872 0.189040 0.029031
C36   C     C_1   0.174750 0.868993 0.232346 0.035090
C37   C     C_1   0.180505 0.866526 0.268379 0.063662
C38   C     C_R   0.111176 0.828843 0.104589 0.017108
H7    H     H_    0.090723 0.964221 0.192860 0.127428
H8    H     H_    0.042927 0.931157 0.119091 0.133424
H9    H     H_    0.209910 0.017249 0.327764 0.180009
H10   H     H_    0.876170 0.950637 0.125242 0.148284
H11   H     H_    0.825835 0.958923 0.326707 0.172665
C39   C     C_R   0.638926 0.874284 0.395872 -0.027766
C40   C     C_R   0.551423 0.799800 0.368558 -0.128444
C41   C     C_R   0.561407 0.784085 0.326522 0.220327
C42   C     C_R   0.659798 0.846891 0.311506 0.000509
C43   C     C_R   0.749351 0.914423 0.338613 -0.089869
C44   C     C_R   0.741005 0.926479 0.380893 0.208590
C45   C     C_R   0.779715 0.916551 0.175660 -0.145226
C46   C     C_R   0.797030 0.903234 0.134504 -0.124084
C47   C     C_R   0.614622 0.762361 0.119664 -0.108254
C48   C     C_R   0.595250 0.777160 0.160838 0.211965
C49   C     C_R   0.680841 0.851308 0.189235 0.021012
C50   C     C_1   0.673594 0.851726 0.232435 0.084611
C51   C     C_1   0.668049 0.849480 0.268479 0.092833
C52   C     C_R   0.716259 0.822559 0.106568 -0.012401
H12   H     H_    0.551286 0.701558 0.098001 0.171019
H13   H     H_    0.709789 0.158337 0.620362 0.184476
C53   C     C_R   0.619179 0.240112 0.615511 0.008249
C54   C     C_R   0.575907 0.297742 0.638255 0.217934
C55   C     C_R   0.582260 0.307624 0.681236 -0.065767
C56   C     C_R   0.633179 0.263926 0.701393 -0.008454
C57   C     C_R   0.682670 0.214497 0.679115 -0.097952
C58   C     C_R   0.676044 0.202909 0.636683 -0.147743
C59   C     C_R   0.749693 0.320343 0.846254 0.189414
C60   C     C_R   0.766972 0.362080 0.887969 -0.102970
C61   C     C_R   0.581686 0.319362 0.889716 -0.073082
C62   C     C_R   0.561728 0.276702 0.847936 0.198529
C63   C     C_R   0.648308 0.284254 0.825600 0.023578
C64   C     C_1   0.639095 0.273611 0.781591 0.124860
C65   C     C_1   0.635070 0.269046 0.745012 0.072061
C66   C     C_R   0.685138 0.367348 0.909357 -0.058562
H14   H     H_    0.547427 0.349211 0.699023 0.174362
C67   C     C_R   0.056667 0.745758 0.906275 0.016337
C68   C     C_R   0.088301 0.841510 0.892918 -0.085746
C69   C     C_R   0.100236 0.848685 0.851690 -0.013097
C70   C     C_R   0.078933 0.759822 0.823527 0.086656
C71   C     C_R   0.050891 0.665115 0.836911 -0.035362
C72   C     C_R   0.041184 0.658430 0.878166 -0.082793
C73   C     C_R   0.165477 0.751244 0.759270 0.195472
C74   C     C_R   0.174171 0.761910 0.718179 -0.072248
C75   C     C_R   0.107820 0.788778 0.697691 -0.031952
C76   C     C_R   0.028023 0.800619 0.717594 -0.046500
C77   C     C_R   0.015496 0.788540 0.758613 0.197802
C78   C     C_R   0.086310 0.765979 0.779899 -0.015797
C79   C     C_R   0.161885 0.911138 0.646531 0.214487
C80   C     C_R   0.204560 0.935260 0.608885 0.189178
C81   C     C_R   0.172355 0.756867 0.590178 -0.131583
C82   C     C_R   0.128868 0.732891 0.626854 -0.144477
C83   C     C_R   0.128683 0.810537 0.656002 -0.030044
C84   C     C_R   0.217069 0.859329 0.581864 -0.027656
H15   H     H_    0.099784 0.909474 0.914073 0.156487
H16   H     H_    0.236727 0.754281 0.702458 0.178095
H17   H     H_    0.975770 0.819456 0.701065 0.176148
H18   H     H_    0.034738 0.596249 0.815277 0.173124
C85   C     C_R   0.655454 0.753377 0.915103 -0.039436
C86   C     C_R   0.578397 0.664955 0.888088 0.164260
C87   C     C_R   0.560292 0.674782 0.847872 -0.107891
C88   C     C_R   0.615091 0.770916 0.834257 -0.027563
C89   C     C_R   0.683285 0.861616 0.862055 0.235776
C90   C     C_R   0.699338 0.853477 0.902989 0.175123
C91   C     C_R   0.570433 0.840519 0.775422 0.276184
C92   C     C_R   0.578329 0.850591 0.734003 -0.039123
C93   C     C_R   0.614967 0.794134 0.707740 0.026241
C94   C     C_R   0.642090 0.724964 0.722158 -0.029206
C95   C     C_R   0.636266 0.714934 0.763228 -0.070474
C96   C     C_R   0.603442 0.773973 0.790357 0.048127
C97   C     C_R   0.544748 0.739467 0.633891 0.201229
C98   C     C_R   0.551270 0.767290 0.594998 -0.124207
C99   C     C_R   0.720726 0.925110 0.616844 0.178094
C100  C     C_R   0.713560 0.898280 0.655953 -0.128949
C101  C     C_R   0.624635 0.808925 0.665032 -0.047042
C102  C     C_R   0.633846 0.863330 0.586907 -0.032273
H19   H     H_    0.555391 0.902117 0.721878 0.151193
H20   H     H_    0.504383 0.606335 0.826650 0.195319
H21   H     H_    0.661434 0.663780 0.774276 0.163238
H22   H     H_    0.486153 0.717197 0.571868 0.187276
O14   O     O_R   0.828710 0.851830 0.052170 -0.490665
O15   O     O_R   0.005980 0.823990 0.047210 -0.503594
C103  C     C_R   0.052508 0.781489 0.063799 0.536873
O16   O     O_R   0.031900 0.688850 0.050170 -0.490275
O17   O     O_R   0.830940 0.518420 0.048680 -0.446728
C104  C     C_R   0.743772 0.485895 0.066040 0.566829
O18   O     O_R   0.668160 0.499860 0.053480 -0.515834
O19   O     O_R   0.689170 0.693840 0.050110 -0.503855
C105  C     C_R   0.743215 0.789618 0.066404 0.551890
O20   O     O_R   0.803860 0.812940 0.962540 -0.459452
O21   O     O_R   0.982950 0.787950 0.964120 -0.495422
C106  C     C_R   0.019997 0.730842 0.947048 0.540875
O22   O     O_R   0.007050 0.649970 0.960540 -0.503138
O23   O     O_R   0.807910 0.482370 0.965590 -0.490837
C107  C     C_R   0.711676 0.436192 0.949480 0.560648
O24   O     O_R   0.643310 0.460980 0.963840 -0.473361
O25   O     O_R   0.666140 0.657800 0.967020 -0.448552
C108  C     C_R   0.708781 0.741579 0.951110 0.580261
Cr4   Cr    Cr6+3 0.903360 0.812540 0.006510 1.100711
Cr5   Cr    Cr6+3 0.914630 0.587050 0.006280 1.125048
Cr6   Cr    Cr6+3 0.673560 0.582680 0.008540 1.117570
O26   O     O_3   0.830520 0.660760 0.007110 -0.289188
H23   H     H_    0.483048 0.244091 0.402384 0.198280
N1    N     N_R   0.828415 0.331764 0.448946 0.099889
O27   O     O_R   0.823226 0.358551 0.487593 -0.278449
O28   O     O_R   0.913831 0.329238 0.437326 -0.229942
N2    N     N_R   0.135564 0.675155 0.297833 0.128632
O29   O     O_R   0.053299 0.590695 0.305550 -0.259777
O30   O     O_R   0.179356 0.671985 0.263818 -0.251924
N3    N     N_R   0.176341 0.683004 0.383176 0.122393
O31   O     O_R   0.216102 0.626022 0.366028 -0.207804
O32   O     O_R   0.119247 0.654436 0.413999 -0.255853
N4    N     N_R   0.230080 0.042092 0.408561 0.110759
O33   O     O_R   0.270555 0.133721 0.397538 -0.310479
O34   O     O_R   0.177040 0.026090 0.440901 -0.216606
N5    N     N_R   0.875719 0.394330 0.092466 0.090140
O35   O     O_R   0.835398 0.339911 0.056298 -0.278459
O36   O     O_R   0.969983 0.412761 0.105741 -0.289169
H24   H     H_    0.845555 0.973930 0.197298 0.147285
N6    N     N_R   0.836109 0.991952 0.407918 0.117564
O37   O     O_R   0.915110 0.072782 0.396285 -0.233511
O38   O     O_R   0.850585 0.962185 0.441453 -0.225858
H25   H     H_    0.473609 0.756613 0.379663 0.194911
N7    N     N_R   0.490277 0.714525 0.173446 0.097367
O39   O     O_R   0.453958 0.753459 0.202852 -0.262687
O40   O     O_R   0.425719 0.623182 0.152422 -0.292236
N8    N     N_R   0.470686 0.706940 0.299446 0.119450
O41   O     O_R   0.483178 0.650757 0.268362 -0.238997
O42   O     O_R   0.374342 0.684182 0.308293 -0.230922
H26   H     H_    0.846317 0.395585 0.903232 0.186260
H27   H     H_    0.865626 0.394546 0.376364 0.198273
N9    N     N_R   0.836772 0.319506 0.824966 0.102185
O43   O     O_R   0.935295 0.383224 0.839404 -0.309049
O44   O     O_R   0.818314 0.247728 0.793672 -0.252970
H28   H     H_    0.723374 0.181512 0.694479 0.184723
N10   N     N_R   0.526799 0.346951 0.618483 0.113760
O45   O     O_R   0.456675 0.366810 0.636439 -0.208028
O46   O     O_R   0.562490 0.385149 0.585331 -0.271317
N11   N     N_R   0.454765 0.229931 0.828454 0.104508
O47   O     O_R   0.424537 0.159171 0.795861 -0.246843
O48   O     O_R   0.383327 0.248855 0.845743 -0.232974
H29   H     H_    0.517222 0.319379 0.906548 0.211906
H30   H     H_    0.015041 0.583317 0.887630 0.170710
H31   H     H_    0.101625 0.654954 0.633694 0.171381
N12   N     N_R   0.750631 0.222930 0.293421 0.088240
O49   O     O_R   0.808590 0.187570 0.274420 -0.303864
O50   O     O_R   0.680613 0.165365 0.316564 -0.339223
N13   N     N_R   0.239775 0.729061 0.779607 0.093918
O51   O     O_R   0.274467 0.768277 0.817732 -0.251123
O52   O     O_R   0.282076 0.678688 0.758846 -0.271591
H32   H     H_    0.123038 0.922463 0.841507 0.180620
N14   N     N_R   0.930940 0.799334 0.778011 0.073647
O53   O     O_R   0.877732 0.739648 0.804226 -0.365150
O54   O     O_R   0.898651 0.860611 0.766033 -0.278050
N15   N     N_R   0.158280 0.990512 0.675735 0.101301
O55   O     O_R   0.109874 0.040147 0.665394 -0.192379
O56   O     O_R   0.209927 0.018697 0.711682 -0.246271
N16   N     N_R   0.241816 0.038575 0.599877 0.117811
O57   O     O_R   0.314328 0.119192 0.624490 -0.241558
O58   O     O_R   0.196437 0.052681 0.569010 -0.207872
H33   H     H_    0.177386 0.696196 0.569488 0.192581
N17   N     N_R   0.519754 0.564450 0.900421 0.102345
O59   O     O_R   0.466889 0.555016 0.932719 -0.264957
O60   O     O_R   0.500124 0.480671 0.875118 -0.303040
N18   N     N_R   0.764232 0.946614 0.931876 0.124992
O61   O     O_R   0.730198 0.961429 0.967134 -0.273512
O62   O     O_R   0.860091 0.013141 0.924233 -0.226092
H34   H     H_    0.776929 0.948253 0.679778 0.200823
N19   N     N_R   0.530400 0.898578 0.801412 0.126195
O63   O     O_R   0.526844 0.977510 0.789845 -0.271715
O64   O     O_R   0.491725 0.870075 0.835637 -0.241785
H35   H     H_    0.669862 0.680698 0.701825 0.151212
N20   N     N_R   0.454207 0.643921 0.641332 0.097570
O65   O     O_R   0.405745 0.565630 0.611604 -0.233637
O66   O     O_R   0.413413 0.637258 0.676421 -0.275028
N21   N     N_R   0.738070 0.961487 0.848726 0.125088
O67   O     O_R   0.729348 0.040320 0.867197 -0.200556
O68   O     O_R   0.798210 0.974398 0.818495 -0.231630
H36   H     H_    0.621183 0.462899 0.193626 0.156535
N22   N     N_R   0.815353 0.015133 0.608426 0.101249
O69   O     O_R   0.862209 0.008355 0.575566 -0.209050
O70   O     O_R   0.865501 0.096750 0.636712 -0.283516
N23   N     N_R   0.734087 0.553377 0.332455 0.091797
O71   O     O_R   0.773181 0.572276 0.370125 -0.274284
O72   O     O_R   0.697516 0.612080 0.321118 -0.312298
H37   H     H_    0.751124 0.559649 0.253108 0.162009

loop_
_geom_bond_atom_site_label_1
_geom_bond_atom_site_label_2
_geom_bond_distance
_ccdc_geom_bond_type
C44   N6    1.437819 S    
C33   C34   1.398715 A    
C92   H19   1.083721 S    
C92   C93   1.399277 A    
C27   H9    1.084281 S    
C13   H2    1.083301 S    
C29   N2    1.438631 S    
C19   C20   1.389811 A    
O15   Cr4   1.917097 S    
C45   C49   1.398856 A    
C94   C95   1.389393 A    
C6    C84   1.476974 S    
Cr6   O26   1.977478 S    
C61   C62   1.406058 A    
O14   C105  1.271250 A    
C89   C90   1.406155 A    
N2    O30   1.301197 A    
O4    Cr2   1.921973 S    
C32   C38   1.407163 A    
C50   C51   1.202655 T    
C97   N20   1.442484 S    
C4    O9    1.273936 A    
O8    Cr1   1.915577 S    
C10   C11   1.403111 A    
O25   C108  1.283427 A    
C54   C55   1.410205 A    
C71   H18   1.083454 S    
C75   C83   1.463724 S    
N1    O27   1.301524 A    
C21   C22   1.402861 A    
C93   C101  1.460627 S    
C104  O18   1.272908 A    
C21   C24   1.421569 A    
C91   N19   1.443915 S    
N15   O56   1.301249 A    
C38   C103  1.476163 S    
C81   H33   1.083261 S    
O4    C2    1.273914 A    
N3    O31   1.300642 A    
C9    H36   1.083372 S    
C60   H26   1.082863 S    
N23   O71   1.301317 A    
C33   H8    1.082593 S    
C67   C68   1.403241 A    
N10   O45   1.301563 A    
N21   O67   1.301443 A    
C55   H14   1.083611 S    
C54   N10   1.439416 S    
C74   C75   1.396488 A    
C48   C49   1.412225 A    
C73   C74   1.393257 A    
Cr3   O13   1.973477 S    
C74   H16   1.084214 S    
C55   C56   1.400670 A    
O14   Cr4   2.037810 S    
C81   C82   1.383138 A    
C41   N8    1.437986 S    
N21   O68   1.300994 A    
C41   C42   1.406559 A    
N23   O72   1.301800 A    
C20   H23   1.081592 S    
C4    C102  1.482100 S    
H10   C46   1.082707 S    
C43   C44   1.402139 A    
C99   N22   1.436295 S    
O16   Cr5   2.031543 S    
C19   H3    1.083551 S    
N20   O65   1.301551 A    
C80   C84   1.418880 A    
C66   C107  1.481707 S    
C67   C72   1.404955 A    
C62   C63   1.415378 A    
C98   C102  1.409070 A    
C52   C105  1.472925 S    
C62   N11   1.443428 S    
N5    O36   1.301408 A    
C39   C40   1.407822 A    
N11   O47   1.301533 A    
C94   H35   1.083374 S    
C47   H12   1.083312 S    
C33   C38   1.406847 A    
C8    H1    1.083329 S    
C42   C51   1.437094 S    
C42   C43   1.396827 A    
C48   N7    1.439589 S    
C91   C96   1.420251 A    
C82   C83   1.395828 A    
C9    C10   1.399265 A    
N19   O63   1.301840 A    
C10   C18   1.476102 S    
C90   N18   1.438025 S    
C5    C53   1.483421 S    
C35   C36   1.435871 S    
C49   C50   1.436706 S    
N4    O34   1.301683 A    
C17   C18   1.400965 A    
C7    C104  1.478130 S    
O1    Cr1   2.032368 S    
C88   C89   1.409320 A    
C70   C78   1.463857 S    
O20   Cr4   2.033130 S    
C40   C41   1.401133 A    
C71   C72   1.388715 A    
C59   C63   1.413978 A    
C61   C66   1.402858 A    
Cr1   O13   1.971077 S    
O1    C3    1.278429 A    
C8    C9    1.387112 A    
N10   O46   1.301428 A    
C47   C48   1.403893 A    
C30   N3    1.437055 S    
N2    O29   1.301412 A    
O17   Cr5   1.923377 S    
C31   C35   1.397943 A    
C57   C58   1.390647 A    
O6    C3    1.276628 A    
C69   H32   1.083404 S    
C77   N14   1.440694 S    
C28   C29   1.409897 A    
C36   C37   1.203994 T    
N4    O33   1.301257 A    
C14   N12   1.441149 S    
C13   C18   1.398297 A    
C53   C54   1.420054 A    
O12   Cr3   1.925788 S    
C1    O3    1.271831 A    
C29   C30   1.416449 A    
C81   C84   1.403585 A    
C100  H34   1.084236 S    
C87   H20   1.084086 S    
C60   C66   1.403035 A    
C19   C23   1.397238 A    
C72   H30   1.082861 S    
C39   C44   1.418996 A    
O23   Cr5   1.914622 S    
C13   C14   1.399308 A    
O10   Cr2   1.913625 S    
C57   H28   1.084088 S    
C99   C102  1.415548 A    
C99   C100  1.398766 A    
C56   C65   1.437383 S    
N16   O58   1.301049 A    
C15   C16   1.415959 A    
C95   H21   1.083512 S    
C20   C24   1.404485 A    
O7    Cr1   2.042199 S    
O21   C106  1.272236 A    
N22   O70   1.301720 A    
O12   C6    1.274177 A    
C46   C52   1.403256 A    
Cr4   O26   1.972877 S    
C17   H37   1.083422 S    
C64   C65   1.204960 T    
H13   C58   1.082885 S    
C7    C12   1.419190 A    
C59   C60   1.402371 A    
N17   O60   1.300620 A    
C63   C64   1.444130 S    
N20   O66   1.301111 A    
N13   O51   1.300357 A    
C56   C57   1.392620 A    
C25   C30   1.421229 A    
C40   H25   1.083230 S    
C21   N1    1.437734 S    
C26   C27   1.397633 A    
N14   O54   1.301357 A    
H5    C32   1.083269 S    
C27   C28   1.392065 A    
C73   N13   1.442291 S    
C16   N23   1.442055 S    
O18   Cr6   2.036453 S    
C91   C92   1.401848 A    
C2    C24   1.477046 S    
C1    C39   1.483925 S    
C34   C35   1.399930 A    
O19   Cr6   1.914821 S    
C77   C78   1.420333 A    
C31   C32   1.395154 A    
C93   C94   1.393474 A    
O25   Cr6   1.918100 S    
O17   C104  1.277759 A    
C107  O24   1.274333 A    
C86   C87   1.397070 A    
C26   N4    1.438249 S    
C76   H17   1.083678 S    
C59   N9    1.442360 S    
N12   O49   1.301490 A    
N5    O35   1.301472 A    
C86   N17   1.434560 S    
O20   C108  1.269229 A    
O9    Cr2   2.037152 S    
N18   O61   1.301367 A    
O2    Cr1   1.925041 S    
O15   C103  1.278636 A    
Cr5   O26   1.973689 S    
C12   N5    1.437439 S    
O10   C5    1.276992 A    
Cr2   O13   1.976167 S    
C45   C46   1.393196 A    
C25   C26   1.421038 A    
C97   C98   1.398065 A    
O6    Cr3   1.910469 S    
O24   Cr6   2.030996 S    
C85   C86   1.415044 A    
C87   C88   1.397885 A    
O11   Cr3   2.026337 S    
C3    C25   1.497302 S    
C2    O5    1.274678 A    
C79   C83   1.411428 A    
C98   H22   1.083221 S    
C75   C76   1.394552 A    
C100  C101  1.399574 A    
C97   C101  1.409691 A    
N7    O40   1.301474 A    
C69   C70   1.400840 A    
C47   C52   1.404361 A    
C16   C17   1.399265 A    
O22   Cr5   2.039703 S    
N1    O28   1.301449 A    
C103  O16   1.267536 A    
C95   C96   1.405846 A    
N8    O41   1.301253 A    
N19   O64   1.300684 A    
O5    Cr3   2.043733 S    
C79   C80   1.409362 A    
N9    O43   1.301445 A    
N6    O38   1.301533 A    
N22   O69   1.301585 A    
C14   C15   1.419463 A    
N16   O57   1.300886 A    
C22   C23   1.397513 A    
N3    O32   1.301389 A    
O7    C6    1.271120 A    
C85   C108  1.486921 S    
C5    O11   1.275084 A    
H6    C31   1.083877 S    
C70   C71   1.398757 A    
N18   O62   1.301480 A    
C67   C106  1.461525 S    
C15   C23   1.468465 S    
O2    C1    1.280661 A    
C68   H15   1.083228 S    
C85   C90   1.422841 A    
O19   C105  1.274814 A    
C79   N15   1.436169 S    
N15   O55   1.301065 A    
N17   O59   1.301218 A    
C80   N16   1.433844 S    
N8    O42   1.300237 A    
C7    C8    1.405858 A    
C89   N21   1.437760 S    
O3    Cr2   2.031967 S    
O23   C107  1.277911 A    
N14   O53   1.301406 A    
C28   C37   1.439842 S    
N13   O52   1.301710 A    
C68   C69   1.391670 A    
C76   C77   1.398387 A    
C11   C12   1.405323 A    
N11   O48   1.301503 A    
C82   H31   1.083953 S    
C34   H7    1.083548 S    
C73   C78   1.417600 A    
N7    O39   1.301319 A    
C106  O22   1.266134 A    
C45   H24   1.083944 S    
H11   C43   1.084085 S    
C11   H4    1.083117 S    
N12   O50   1.301254 A    
C88   C96   1.473477 S    
C22   H27   1.083595 S    
N6    O37   1.301484 A    
C53   C58   1.409984 A    
O8    C4    1.276122 A    
O21   Cr4   1.920999 S    
C61   H29   1.082788 S    
N9    O44   1.301534 A    
