data_mof_unit_50365.cif
_audit_creation_date              2012-12-10T17:50:51-0500
_audit_creation_method            fapswitch 2.2
_symmetry_space_group_name_H-M    P1
_symmetry_Int_Tables_number       1
_space_group_crystal_system       triclinic
_cell_length_a                    14.726713
_cell_length_b                    14.803758
_cell_length_c                    15.877441
_cell_angle_alpha                 75.981597
_cell_angle_beta                  103.158626
_cell_angle_gamma                 115.612506
_cell_volume                      2998.31817449

loop_
_atom_site_label
_atom_site_type_symbol
_atom_type_description
_atom_site_fract_x
_atom_site_fract_y
_atom_site_fract_z
_atom_type_partial_charge
C1    C     C_R   0.880116 0.312374 0.509692 0.820713
C2    C     C_R   0.120283 0.687907 0.483726 0.787040
C3    C     C_R   0.785508 0.029406 0.516077 -0.177586
C4    C     C_R   0.217194 0.972260 0.414327 -0.161713
C5    C     C_R   0.850693 0.129551 0.523982 -0.140654
C6    C     C_R   0.151546 0.871726 0.437310 -0.162018
C7    C     C_R   0.710470 0.180539 0.468449 -0.199001
C8    C     C_R   0.293246 0.821678 0.470030 -0.228375
C9    C     C_R   0.641652 0.079507 0.463011 0.081270
C10   C     C_R   0.361255 0.922283 0.445014 0.090080
C11   C     C_R   0.680427 0.002554 0.487938 0.099715
C12   C     C_R   0.322193 0.999062 0.418050 0.089742
C13   C     C_R   0.534869 0.052691 0.438994 0.048684
C14   C     C_R   0.467553 0.948784 0.450489 0.049815
C15   C     C_R   0.508713 0.874742 0.467128 -0.249147
C16   C     C_R   0.493101 0.126346 0.405946 -0.182662
C17   C     C_R   0.613250 0.900688 0.484918 -0.029759
C18   C     C_R   0.388946 0.100761 0.396022 -0.052191
C19   C     C_R   0.698967 0.645865 0.338753 -0.117159
C20   C     C_R   0.286648 0.334944 0.653833 -0.147727
C21   C     C_R   0.791438 0.634810 0.372852 0.135105
C22   C     C_R   0.205377 0.365876 0.628634 0.123553
C23   C     C_R   0.999963 0.499846 0.660060 0.832844
C24   C     C_R   0.000092 0.500197 0.339934 0.805811
C25   C     C_R   0.714510 0.508058 0.488915 0.068601
C26   C     C_R   0.282575 0.481699 0.507603 0.063397
C27   C     C_R   0.617784 0.513844 0.457085 -0.003005
C28   C     C_R   0.361595 0.445320 0.524315 -0.004530
C29   C     C_R   0.611546 0.583493 0.379419 0.077798
C30   C     C_R   0.364828 0.374455 0.601401 0.078570
C31   C     C_R   0.528359 0.456756 0.500610 0.057675
C32   C     C_R   0.439554 0.479896 0.469372 0.062994
C33   C     C_R   0.431110 0.533506 0.382869 -0.032311
C34   C     C_R   0.521918 0.376810 0.573164 -0.018794
C35   C     C_R   0.517487 0.588538 0.341960 -0.251072
C36   C     C_R   0.443735 0.340570 0.623461 -0.240377
C37   C     C_3   0.975734 0.404575 0.044723 -0.182466
C38   C     C_3   0.025186 0.595759 0.955376 -0.195870
C39   C     C_3   0.908801 0.440851 0.966503 0.026351
C40   C     C_3   0.092136 0.559509 0.033594 0.033144
C41   C     C_1   0.000238 0.499922 0.749802 -0.170093
C42   C     C_1   0.000092 0.500280 0.250216 -0.140335
C43   C     C_3   0.069162 0.464923 0.994384 -0.192184
C44   C     C_3   0.931779 0.535429 0.005712 -0.204129
C45   C     C_3   0.000722 0.500218 0.917086 0.121853
C46   C     C_3   0.000220 0.500142 0.083025 0.121350
C47   C     C_1   0.000533 0.500057 0.825365 -0.041657
C48   C     C_1   0.000150 0.500246 0.174704 -0.030137
C49   C     C_R   0.812997 0.205475 0.502339 -0.073447
C50   C     C_R   0.189020 0.795694 0.464819 -0.067848
Cu1   Cu    Cu3+1 0.081740 0.475690 0.522610 0.974395
Cu2   Cu    Cu3+1 0.918260 0.524310 0.477390 0.952320
H1    H     H_    0.282404 0.544279 0.456065 0.125211
H2    H     H_    0.728479 0.463697 0.550751 0.153263
H3    H     H_    0.954603 0.326184 0.081993 0.159859
H4    H     H_    0.046317 0.674153 0.918110 0.155591
H5    H     H_    0.874904 0.563437 0.011257 0.153183
H6    H     H_    0.126044 0.436921 0.988845 0.153794
H7    H     H_    0.320020 0.761978 0.495954 0.150673
H8    H     H_    0.686098 0.241881 0.448171 0.202681
H9    H     H_    0.071481 0.853694 0.433755 0.199157
H10   H     H_    0.930596 0.147303 0.546691 0.209797
H11   H     H_    0.817709 0.972887 0.534311 0.161111
H12   H     H_    0.185010 0.028801 0.393919 0.162652
H13   H     H_    0.461009 0.795550 0.465164 0.137494
H14   H     H_    0.539807 0.205129 0.385811 0.169803
H15   H     H_    0.509245 0.632820 0.277690 0.148510
H16   H     H_    0.442714 0.280844 0.678944 0.153555
N1    N     N_R   0.795440 0.560790 0.443380 -0.230831
N2    N     N_R   0.204560 0.439210 0.556620 -0.217024
O1    O     O_R   0.977900 0.338120 0.529810 -0.554068
O2    O     O_R   0.022100 0.661880 0.470190 -0.597201
O3    O     O_R   0.839850 0.379180 0.491620 -0.571542
O4    O     O_R   0.160150 0.620820 0.508380 -0.592639
O5    O     O_R   0.069010 0.479460 0.640020 -0.606241
O6    O     O_R   0.930990 0.520540 0.359980 -0.617568
O7    O     O_R   0.930960 0.520530 0.601820 -0.572877
O8    O     O_R   0.069040 0.479470 0.398180 -0.545722
C51   C     C_1   0.807498 0.375418 0.928501 0.240978
N3    N     N_1   0.727621 0.323857 0.898436 -0.276638
C52   C     C_1   0.193494 0.625310 0.071138 0.244161
N4    N     N_1   0.273446 0.677311 0.100667 -0.288981
C53   C     C_2   0.121967 0.317886 0.682578 0.463672
H17   H     H_    0.122589 0.354133 0.734506 0.056916
O9    O     O_2   0.057636 0.232797 0.675118 -0.561562
C54   C     C_2   0.884438 0.706922 0.333551 0.375531
H18   H     H_    0.936302 0.682023 0.317902 0.113763
O10   O     O_2   0.904379 0.797914 0.317689 -0.560966
C55   C     C_1   0.693702 0.719600 0.260372 0.301293
N5    N     N_1   0.689469 0.778237 0.198022 -0.242476
C56   C     C_1   0.288233 0.261708 0.733481 0.244709
N6    N     N_1   0.289399 0.203485 0.796822 -0.251019
C57   C     C_2   0.332796 0.522159 0.326192 0.333817
H19   H     H_    0.328077 0.583477 0.274101 0.091070
O11   O     O_2   0.257906 0.442341 0.333728 -0.504609
C58   C     C_2   0.581448 0.313962 0.591360 0.311392
H20   H     H_    0.603498 0.283462 0.658406 0.096838
O12   O     O_2   0.600333 0.289949 0.531384 -0.575641
C59   C     C_1   0.648880 0.819932 0.502629 0.233312
N7    N     N_1   0.677249 0.755291 0.516785 -0.282207
C60   C     C_1   0.353560 0.182000 0.365833 0.255596
N8    N     N_1   0.325549 0.247141 0.341879 -0.216143

loop_
_geom_bond_atom_site_label_1
_geom_bond_atom_site_label_2
_ccdc_geom_bond_type
C57   H19   S    
C27   C29   A    
C24   C42   S    
Cu1   O4    S    
C52   N4    T    
C20   C30   A    
C40   C46   S    
C60   N8    T    
C19   C55   S    
C6    H9    S    
C19   C21   A    
C34   C58   S    
C8    H7    S    
C8    C10   A    
C54   O10   D    
C15   H13   S    
C15   C17   A    
C9    C13   A    
C38   C45   S    
Cu2   N1    S    
C2    C50   S    
C43   H6    S    
C40   C43   S    
C53   H17   S    
C58   O12   D    
Cu1   N2    S    
C4    C12   A    
C2    O4    A    
C39   C45   S    
C57   O11   D    
C13   C14   A    
C5    C49   A    
Cu1   O1    S    
C2    O2    A    
C44   C46   S    
C45   C47   S    
C20   C56   S    
C46   C48   S    
C27   C31   A    
Cu1   Cu2   S    
C28   C32   A    
C25   H2    S    
C7    C49   A    
C4    C6    A    
Cu2   O3    S    
C10   C14   A    
C23   O5    A    
C56   N6    T    
C54   H18   S    
C24   O6    A    
Cu2   O6    S    
C23   O7    A    
C21   N1    A    
C18   C60   S    
C39   C51   S    
C37   C43   S    
C38   C44   S    
Cu2   O2    S    
C17   C59   S    
C59   N7    T    
C35   H15   S    
C44   H5    S    
C58   H20   S    
C41   C47   T    
C31   C34   A    
C38   H4    S    
C42   C48   T    
C6    C50   A    
C43   C45   S    
C10   C12   A    
C24   O8    A    
C53   O9    D    
C20   C22   A    
C9    C11   A    
C26   N2    A    
C25   N1    A    
Cu2   O7    S    
C19   C29   A    
C26   H1    S    
C8    C50   A    
C7    H8    S    
C7    C9    A    
C4    H12   S    
C21   C54   S    
C11   C17   A    
C40   C52   S    
C31   C32   A    
Cu1   O5    S    
C3    C5    A    
C33   C57   S    
C36   H16   S    
C39   C44   S    
C3    H11   S    
C25   C27   A    
C29   C35   A    
C26   C28   A    
C23   C41   S    
C30   C36   A    
C1    O3    A    
C32   C33   A    
C28   C30   A    
C37   C46   S    
Cu1   O8    S    
C37   C39   S    
C22   C53   S    
C38   C40   S    
C1    O1    A    
C33   C35   A    
C5    H10   S    
C34   C36   A    
C3    C11   A    
C51   N3    T    
C37   H3    S    
C16   H14   S    
C16   C18   A    
C13   C16   A    
C12   C18   A    
C14   C15   A    
C55   N5    T    
C1    C49   S    
C22   N2    A    
