data_mof_unit_43956.cif
_audit_creation_date              2012-12-11T15:53:31-0500
_audit_creation_method            fapswitch 2.2
_symmetry_space_group_name_H-M    P1
_symmetry_Int_Tables_number       1
_space_group_crystal_system       triclinic
_cell_length_a                    6.935085
_cell_length_b                    14.543273
_cell_length_c                    15.952016
_cell_angle_alpha                 90.463038
_cell_angle_beta                  90.067312
_cell_angle_gamma                 90.007618
_cell_volume                      1608.84807463

loop_
_atom_site_label
_atom_site_type_symbol
_atom_type_description
_atom_site_fract_x
_atom_site_fract_y
_atom_site_fract_z
_atom_type_partial_charge
O1    O     O_R   0.361600 0.167310 0.164620 -0.543929
O2    O     O_R   0.638400 0.832690 0.835380 -0.543930
O3    O     O_R   0.691080 0.157570 0.338750 -0.528357
O4    O     O_R   0.308920 0.842430 0.661250 -0.528357
O5    O     O_R   0.861410 0.336420 0.339360 -0.542616
O6    O     O_R   0.138590 0.663580 0.660640 -0.542616
C1    C     C_R   0.522219 0.135396 0.367252 0.720540
C2    C     C_R   0.477780 0.864604 0.632748 0.720540
O7    O     O_R   0.691320 0.156280 0.165240 -0.543674
O8    O     O_R   0.308680 0.843720 0.834760 -0.543674
O9    O     O_R   0.861640 0.335130 0.164600 -0.543919
O10   O     O_R   0.138360 0.664870 0.835400 -0.543919
C3    C     C_R   0.522216 0.133771 0.136127 0.674572
C4    C     C_R   0.477784 0.866229 0.863873 0.674572
O11   O     O_R   0.361370 0.168600 0.339370 -0.527792
O12   O     O_R   0.638630 0.831400 0.660630 -0.527792
O13   O     O_3   0.527990 0.310540 0.251980 -0.376629
O14   O     O_3   0.472010 0.689460 0.748020 -0.376629
V1    V     V_3+5 0.802830 0.240980 0.251990 1.443805
V2    V     V_3+5 0.197170 0.759020 0.748010 1.443805
O15   O     O_R   0.191360 0.346160 0.165220 -0.545810
O16   O     O_R   0.808640 0.653840 0.834780 -0.545810
C5    C     C_R   0.022263 0.368216 0.136069 0.677017
C6    C     C_R   0.977737 0.631784 0.863931 0.677018
O17   O     O_R   0.191130 0.347440 0.338740 -0.542603
O18   O     O_R   0.808870 0.652560 0.661260 -0.542603
C7    C     C_R   0.022374 0.369587 0.367689 0.691879
C8    C     C_R   0.977626 0.630413 0.632311 0.691879
V3    V     V_3+5 0.302840 0.262750 0.251990 1.426390
V4    V     V_3+5 0.697160 0.737250 0.748010 1.426390
O19   O     O_3   0.027820 0.193180 0.251990 -0.358493
O20   O     O_3   0.972180 0.806820 0.748010 -0.358493
C9    C     C_3   0.924836 0.419681 0.524761 -0.136244
C10   C     C_3   0.075164 0.580319 0.475239 -0.136245
C11   C     C_3   0.098491 0.469127 0.566573 -0.132754
C12   C     C_3   0.901509 0.530872 0.433427 -0.132754
H1    H     H_    0.179588 0.444019 0.621885 0.113195
H2    H     H_    0.820412 0.555981 0.378115 0.113195
H3    H     H_    0.863047 0.353079 0.544991 0.136172
H4    H     H_    0.136953 0.646921 0.455009 0.136172
C13   C     C_3   0.988061 0.560776 0.562053 -0.017616
C14   C     C_3   0.011939 0.439224 0.437947 -0.017616
C15   C     C_3   0.814217 0.512121 0.521022 -0.120652
C16   C     C_3   0.185783 0.487878 0.478978 -0.120652
H5    H     H_    0.660882 0.522318 0.538696 0.110393
H6    H     H_    0.339117 0.477682 0.461304 0.110393
C17   C     C_R   0.820656 0.525190 0.967274 -0.151494
C18   C     C_R   0.179344 0.474810 0.032726 -0.151494
H7    H     H_    0.679955 0.543569 0.943168 0.116446
H8    H     H_    0.320045 0.456431 0.056832 0.116446
C19   C     C_R   0.831637 0.462127 0.033010 -0.148358
C20   C     C_R   0.168363 0.537873 0.966990 -0.148358
H9    H     H_    0.698869 0.433720 0.057334 0.118114
H10   H     H_    0.301131 0.566280 0.942666 0.118114
C21   C     C_R   0.011136 0.436051 0.066698 -0.044449
C22   C     C_R   0.988864 0.563949 0.933302 -0.044448
C23   C     C_R   0.614837 0.079404 0.511120 0.351813
C24   C     C_R   0.385163 0.920596 0.488880 0.351813
C25   C     C_R   0.602777 0.014283 0.575427 0.355356
C26   C     C_R   0.397223 0.985717 0.424573 0.355357
C27   C     C_R   0.488016 0.934028 0.565078 -0.382401
C28   C     C_R   0.511984 0.065972 0.434922 -0.382401
C29   C     C_R   0.679427 0.026070 0.032455 -0.146222
C30   C     C_R   0.320573 0.973929 0.967545 -0.146222
H11   H     H_    0.820165 0.045155 0.056349 0.118773
H12   H     H_    0.179835 0.954845 0.943651 0.118773
C31   C     C_R   0.668474 0.962051 0.966621 -0.143113
C32   C     C_R   0.331526 0.037949 0.033379 -0.143114
H13   H     H_    0.801290 0.933605 0.941982 0.120321
H14   H     H_    0.198710 0.066395 0.058017 0.120321
C33   C     C_R   0.488895 0.935101 0.933242 -0.044292
C34   C     C_R   0.511105 0.064899 0.066758 -0.044292
O21   O     O_3   0.724467 0.157071 0.527359 -0.610067
H15   H     H_    0.688002 0.206944 0.488736 0.274088
O22   O     O_3   0.275533 0.842929 0.472640 -0.610067
H16   H     H_    0.311998 0.793056 0.511264 0.274088
O23   O     O_3   0.701578 0.034094 0.648806 -0.600856
H17   H     H_    0.646106 0.998943 0.695772 0.283465
O24   O     O_3   0.298422 0.965906 0.351194 -0.600856
H18   H     H_    0.353893 0.001057 0.304228 0.283465

loop_
_geom_bond_atom_site_label_1
_geom_bond_atom_site_label_2
_ccdc_geom_bond_type
C18   C21   A    
C29   H11   S    
C26   O24   S    
O13   V3    S    
C4    C33   S    
C12   C14   S    
O4    C2    A    
V1    O19   S    
C25   O23   S    
C23   C28   A    
C17   H7    S    
O23   H17   S    
O9    V1    S    
C9    H3    S    
C10   H4    S    
C9    C14   S    
C30   C32   A    
C11   H1    S    
O3    C1    A    
C23   C25   A    
O12   V4    S    
C8    C13   S    
C26   C28   A    
O21   H15   S    
C30   C33   A    
C23   O21   S    
O9    C5    A    
O7    C3    A    
C9    C11   S    
O5    C7    A    
O7    V1    S    
O6    C8    A    
O8    V2    S    
O3    V1    S    
O14   V4    S    
O14   V2    S    
C2    C27   S    
C20   H10   S    
C24   C27   A    
C18   H8    S    
C2    O12   A    
C13   C15   S    
C10   C13   S    
C14   C16   S    
O2    C4    A    
C16   H6    S    
C24   O22   S    
O11   V3    S    
O17   V3    S    
C29   C31   A    
C25   C27   A    
C9    C15   S    
C10   C16   S    
O8    C4    A    
C17   C19   A    
C19   C21   A    
O15   V3    S    
C31   H13   S    
C30   H12   S    
O22   H16   S    
C1    C28   S    
C32   C34   A    
O10   V2    S    
O1    V3    S    
C11   C16   S    
C15   H5    S    
O18   V4    S    
O15   C5    A    
O16   C6    A    
C6    C22   S    
V2    O20   S    
O16   V4    S    
C5    C21   S    
O5    V1    S    
C3    C34   S    
O17   C7    A    
O6    V2    S    
O10   C6    A    
O18   C8    A    
O2    V4    S    
C12   H2    S    
V3    O19   S    
V4    O20   S    
C7    C14   S    
C1    O11   A    
O13   V1    S    
C10   C12   S    
C31   C33   A    
C11   C13   S    
O24   H18   S    
O4    V2    S    
C18   C20   A    
O1    C3    A    
C29   C34   A    
C32   H14   S    
C12   C15   S    
C19   H9    S    
C24   C26   A    
C20   C22   A    
C17   C22   A    
