data_mof_unit_6877.cif
_audit_creation_date              2013-03-05T15:55:27-0500
_audit_creation_method            fapswitch 2.2
_symmetry_space_group_name_H-M    P1
_symmetry_Int_Tables_number       1
_space_group_crystal_system       triclinic
_cell_length_a                    10.766138
_cell_length_b                    12.375634
_cell_length_c                    13.282881
_cell_angle_alpha                 117.161664
_cell_angle_beta                  76.292068
_cell_angle_gamma                 100.833531
_cell_volume                      1523.23347445

loop_
_atom_site_label
_atom_site_type_symbol
_atom_site_description
_atom_site_fract_x
_atom_site_fract_y
_atom_site_fract_z
_atom_type_partial_charge
O1    O     O_R   0.537340 0.972510 0.318130 -0.595029
O2    O     O_R   0.487200 0.806530 0.359650 -0.607825
C1    C     C_R   0.514683 0.854867 0.286764 0.762395
O3    O     O_R   0.707380 0.082980 0.479220 -0.582435
O4    O     O_R   0.657240 0.917000 0.520740 -0.615753
C2    C     C_R   0.739745 0.997095 0.496190 0.871874
Cu1   Cu    Cu3+1 0.529690 0.098270 0.475420 1.034006
Cu2   Cu    Cu3+1 0.470310 0.901730 0.524580 0.972051
O5    O     O_R   0.512800 0.193470 0.640350 -0.530582
O6    O     O_R   0.462660 0.027490 0.681870 -0.587147
O7    O     O_R   0.342760 0.083000 0.479260 -0.525338
O8    O     O_R   0.292620 0.917020 0.520780 -0.567503
C3    C     C_R   0.482212 0.144879 0.713221 0.919714
C4    C     C_R   0.260263 0.001046 0.500169 0.832611
C5    C     C_3   0.959792 0.086803 0.448272 -0.370315
H1    H     H_    0.928566 0.180081 0.500165 0.251315
H2    H     H_    0.943373 0.060805 0.360047 0.186320
C6    C     C_3   0.103406 0.085857 0.443802 0.147999
H3    H     H_    0.148741 0.042927 0.351373 0.124335
H4    H     H_    0.072991 0.145163 0.672063 0.208839
C7    C     C_3   0.897323 0.031600 0.620212 0.048015
C8    C     C_3   0.924353 0.867457 0.416152 0.302516
C9    C     C_3   0.877531 0.996715 0.495664 -0.134033
H5    H     H_    0.865923 0.802407 0.449744 0.108658
C10   C     C_3   0.122135 0.002545 0.499434 -0.171894
C11   C     C_3   0.042738 0.047018 0.624454 0.132565
C12   C     C_3   0.068261 0.871198 0.421630 -0.492659
H6    H     H_    0.127050 0.840775 0.333953 0.174991
H7    H     H_    0.078203 0.804089 0.452301 0.217625
H8    H     H_    0.851201 0.953566 0.640257 0.163504
C13   C     C_R   0.327830 0.281195 0.023418 0.486563
H9    H     H_    0.324912 0.100720 0.885966 0.196601
H10   H     H_    0.241524 0.472712 0.215203 0.193357
C14   C     C_R   0.459474 0.227392 0.835316 -0.094758
C15   C     C_R   0.627685 0.808284 0.089631 -0.172963
C16   C     C_R   0.670543 0.724204 0.978988 -0.131693
C17   C     C_R   0.623140 0.602230 0.941835 -0.112506
C18   C     C_R   0.524884 0.562321 0.013158 0.108691
C19   C     C_R   0.475004 0.650595 0.123313 0.080407
C20   C     C_R   0.474508 0.438078 0.979118 0.006963
C21   C     C_R   0.375091 0.404620 0.054725 0.041758
C22   C     C_R   0.321384 0.494975 0.158611 -0.178241
C23   C     C_R   0.367711 0.616073 0.190581 -0.214047
C24   C     C_R   0.517207 0.346252 0.870727 -0.123858
C25   C     C_R   0.368951 0.193548 0.912780 -0.217428
C26   C     C_R   0.533782 0.771788 0.163908 -0.101713
H11   H     H_    0.591542 0.364777 0.809082 0.192864
H12   H     H_    0.673079 0.900789 0.118991 0.162442
H13   H     H_    0.666207 0.542414 0.856820 0.173121
H14   H     H_    0.745104 0.752782 0.923017 0.173714
H15   H     H_    0.317103 0.682464 0.268589 0.163043
C27   C     C_R   0.683858 0.329286 0.307178 -0.281637
H16   H     H_    0.704110 0.151266 0.287703 0.147929
H17   H     H_    0.726204 0.527179 0.270924 0.149246
H18   H     H_    0.754193 0.320097 0.230986 0.171544
N1    N     N_R   0.574690 0.246280 0.438200 -0.235233
C28   C     C_R   0.321836 0.760891 0.643744 0.103682
C29   C     C_R   0.273717 0.660505 0.665963 -0.243619
C30   C     C_R   0.336419 0.554570 0.606496 -0.055613
C31   C     C_R   0.452033 0.549141 0.527954 0.007687
C32   C     C_R   0.491379 0.650831 0.501478 0.271506
C33   C     C_R   0.525260 0.444487 0.469788 -0.089311
C34   C     C_R   0.619564 0.435005 0.372584 0.111147
C35   C     C_R   0.652226 0.533002 0.343888 -0.247447
C36   C     C_R   0.594521 0.641184 0.410985 -0.174745
C37   C     C_R   0.512905 0.350973 0.506523 0.538364
C38   C     C_R   0.657136 0.234249 0.339856 0.006231
N2    N     N_R   0.426100 0.754320 0.561190 -0.225109
H19   H     H_    0.272653 0.843002 0.688959 0.192682
H20   H     H_    0.288940 0.476759 0.619693 0.248710
H21   H     H_    0.186260 0.663737 0.727258 0.182887
H22   H     H_    0.631841 0.714500 0.387749 0.208666
N3    N     N_R   0.067785 0.984935 0.688310 0.119529
O9    O     O_R   0.118344 0.047888 0.780641 -0.365281
O10   O     O_R   0.032191 0.869597 0.659115 -0.399222
O11   O     O_3   0.231032 0.247902 0.096026 -0.577909
C39   C     C_3   0.286571 0.199443 0.150845 -0.253424
H23   H     H_    0.209026 0.172607 0.209086 0.217512
H24   H     H_    0.355489 0.268755 0.204029 0.179178
H25   H     H_    0.334610 0.116095 0.087785 0.155208
N4    N     N_R   0.456216 0.375943 0.623001 0.099878
O12   O     O_R   0.348582 0.317279 0.646769 -0.311639
O13   O     O_R   0.501941 0.470606 0.706034 -0.419249
N5    N     N_R   0.162743 0.211825 0.493976 0.151766
O14   O     O_R   0.113183 0.291078 0.594512 -0.326640
O15   O     O_R   0.249531 0.250954 0.428528 -0.416297
N6    N     N_R   0.833654 0.139818 0.707968 0.119384
O16   O     O_R   0.866791 0.246426 0.707973 -0.341136
O17   O     O_R   0.745774 0.130271 0.790386 -0.367134
O18   O     O_3   0.906587 0.832212 0.302244 -0.580635
C40   C     C_3   0.924325 0.707655 0.230774 -0.311368
H26   H     H_    0.926767 0.652637 0.277142 0.142686
H27   H     H_    0.015662 0.700824 0.169089 0.195566
H28   H     H_    0.844935 0.666319 0.180575 0.190528

loop_
_geom_bond_atom_site_label_1
_geom_bond_atom_site_label_2
_geom_bond_distance
_ccdc_geom_bond_type
C5    C6    1.535241 S    
N6    O16   1.300361 A    
C7    N6    1.470830 S    
C12   H7    1.109141 S    
C21   C22   1.394618 A    
C15   C16   1.385073 A    
C7    C11   1.552498 S    
N4    O12   1.299697 A    
O18   C40   1.415100 S    
Cu1   Cu2   2.723770 S    
C39   H23   1.109055 S    
Cu1   O7    1.976286 S    
C17   C18   1.419972 A    
H4    C11   1.108555 S    
H10   C22   1.083480 S    
C31   C33   1.441342 A    
C16   C17   1.390055 A    
N5    O15   1.300984 A    
C18   C19   1.418258 A    
O7    C4    1.302422 A    
C29   H21   1.082651 S    
C5    H1    1.109184 S    
C11   N3    1.470963 S    
Cu1   O5    1.937965 S    
C6    H3    1.116135 S    
H9    C25   1.083108 S    
O5    C3    1.308769 A    
C6    N5    1.470169 S    
C24   H11   1.074876 S    
C5    C9    1.558522 S    
C30   C31   1.412173 A    
N3    O10   1.301574 A    
C6    C10   1.579274 S    
C13   O11   1.382384 S    
Cu1   N1    2.052808 S    
O3    Cu1   1.971959 S    
C15   H12   1.083465 S    
N4    O13   1.300791 A    
C39   H24   1.114137 S    
N3    O9    1.300762 A    
C33   C37   1.421991 A    
C14   C24   1.390852 A    
O11   C39   1.409697 S    
O3    C2    1.302737 A    
C40   H26   1.113951 S    
C19   C23   1.410341 A    
C10   C11   1.568725 S    
C27   C34   1.401190 A    
C31   C32   1.421240 A    
O1    C1    1.309050 A    
C33   C34   1.413081 A    
C40   H27   1.109777 S    
C17   H13   1.075090 S    
Cu2   O8    1.971957 S    
C8    O18   1.421037 S    
C14   C25   1.395974 A    
N5    O14   1.301223 A    
C27   C38   1.390758 A    
C19   C26   1.416776 A    
C20   C21   1.424517 A    
O8    C4    1.311086 A    
Cu2   N2    2.040809 S    
C8    C12   1.559249 S    
C7    C9    1.564944 S    
C8    H5    1.116897 S    
C22   C23   1.383270 A    
C28   N2    1.355956 A    
C36   H22   1.067621 S    
C16   H14   1.082902 S    
C39   H25   1.113307 S    
C5    H2    1.113833 S    
C13   C21   1.411799 A    
O1    Cu1   1.947287 S    
O2    Cu2   1.937967 S    
O6    C3    1.304801 A    
O4    Cu2   1.976288 S    
C27   H18   1.083815 S    
C10   C12   1.562898 S    
N1    C38   1.356099 A    
C7    H8    1.114418 S    
C1    C26   1.466637 S    
C35   C36   1.390523 A    
N6    O17   1.301061 A    
O2    C1    1.307331 A    
C29   C30   1.390275 A    
C3    C14   1.458292 S    
C37   N4    1.431277 S    
C18   C20   1.425052 A    
C32   N2    1.382044 A    
C23   H15   1.081209 S    
C28   C29   1.385376 A    
O4    C2    1.305653 A    
H17   C35   1.082036 S    
N1    C37   1.381698 A    
C2    C9    1.482671 S    
C4    C10   1.493097 S    
H16   C38   1.081657 S    
C30   H20   1.070478 S    
C34   C35   1.392111 A    
C32   C36   1.406544 A    
C20   C24   1.401609 A    
Cu2   O6    1.947287 S    
C13   C25   1.396077 A    
C12   H6    1.112901 S    
C8    C9    1.561005 S    
C28   H19   1.080755 S    
C15   C26   1.400695 A    
C40   H28   1.109592 S    
