data_mof_unit_59891.cif
_audit_creation_date              2012-12-11T14:41:14-0500
_audit_creation_method            fapswitch 2.2
_symmetry_space_group_name_H-M    P1
_symmetry_Int_Tables_number       1
_space_group_crystal_system       triclinic
_cell_length_a                    6.91868
_cell_length_b                    17.820296
_cell_length_c                    19.158282
_cell_angle_alpha                 89.945372
_cell_angle_beta                  90.696959
_cell_angle_gamma                 90.891498
_cell_volume                      2361.61928809

loop_
_atom_site_label
_atom_site_type_symbol
_atom_type_description
_atom_site_fract_x
_atom_site_fract_y
_atom_site_fract_z
_atom_type_partial_charge
O1    O     O_R   0.377350 0.828520 0.186660 -0.520151
O2    O     O_R   0.622650 0.171480 0.813340 -0.546786
O3    O     O_R   0.122650 0.171480 0.686660 -0.548690
O4    O     O_R   0.877350 0.828520 0.313340 -0.546521
O5    O     O_R   0.877350 0.671480 0.313340 -0.521864
O6    O     O_R   0.122650 0.328520 0.686660 -0.548247
O7    O     O_R   0.622650 0.328520 0.813340 -0.547690
O8    O     O_R   0.377350 0.671480 0.186660 -0.537562
O9    O     O_R   0.707090 0.671930 0.178410 -0.549509
O10   O     O_R   0.292910 0.328070 0.821590 -0.518799
O11   O     O_R   0.792910 0.328070 0.678410 -0.538215
O12   O     O_R   0.207090 0.671930 0.321590 -0.548040
O13   O     O_R   0.207090 0.828070 0.321590 -0.541285
O14   O     O_R   0.792910 0.171930 0.678410 -0.537569
O15   O     O_R   0.292910 0.171930 0.821590 -0.536119
O16   O     O_R   0.707090 0.828070 0.178410 -0.549583
C1    C     C_R   0.535437 0.646412 0.160900 0.714302
C2    C     C_R   0.464599 0.353783 0.838770 0.755245
C3    C     C_R   0.961360 0.353740 0.660868 0.711156
C4    C     C_R   0.038772 0.646369 0.339054 0.749030
C5    C     C_R   0.040091 0.853103 0.339733 0.716038
C6    C     C_R   0.959897 0.146595 0.660482 0.711074
C7    C     C_R   0.460839 0.146516 0.839297 0.714179
C8    C     C_R   0.539340 0.853676 0.161004 0.749102
O17   O     O_3   0.543850 0.750000 0.294270 -0.366156
O18   O     O_3   0.456150 0.250000 0.705730 -0.375343
O19   O     O_3   0.956150 0.250000 0.794270 -0.361667
O20   O     O_3   0.043850 0.750000 0.205730 -0.363714
V1    V     V_3+5 0.818700 0.750000 0.241790 1.416069
V2    V     V_3+5 0.181300 0.250000 0.758210 1.413473
V3    V     V_3+5 0.681300 0.250000 0.741790 1.400832
V4    V     V_3+5 0.318700 0.750000 0.258210 1.435990
C9    C     C_R   0.962211 0.414993 0.607538 -0.161425
C10   C     C_R   0.037742 0.585500 0.392440 -0.091478
C11   C     C_R   0.510356 0.585523 0.107867 -0.161752
C12   C     C_R   0.489281 0.414838 0.891446 -0.098047
C13   C     C_R   0.460645 0.085615 0.892911 -0.161133
C14   C     C_R   0.539350 0.914680 0.107678 -0.094112
C15   C     C_R   0.041031 0.913416 0.393848 -0.155505
C16   C     C_R   0.959054 0.085804 0.606693 -0.155402
C17   C     C_R   0.213100 0.481208 0.444192 0.230381
C18   C     C_R   0.782771 0.518602 0.555477 0.210350
C19   C     C_R   0.696928 0.516653 0.935423 0.232952
C20   C     C_R   0.298492 0.484732 0.063503 0.215643
C21   C     C_R   0.718115 0.019596 0.056222 0.230188
C22   C     C_R   0.278185 0.981399 0.944679 0.209417
C23   C     C_R   0.780369 0.980314 0.554212 0.231302
C24   C     C_R   0.219388 0.018881 0.446315 0.231677
C25   C     C_R   0.190592 0.535398 0.392383 -0.315402
C26   C     C_R   0.806592 0.463952 0.606997 -0.230703
C27   C     C_R   0.648858 0.463145 0.884889 -0.314507
C28   C     C_R   0.348897 0.538004 0.114119 -0.243389
C29   C     C_R   0.695870 0.964967 0.107745 -0.315225
C30   C     C_R   0.302744 0.035893 0.893021 -0.232213
C31   C     C_R   0.801419 0.035902 0.605197 -0.263007
C32   C     C_R   0.197403 0.963870 0.394902 -0.265632
C33   C     C_R   0.898782 0.580598 0.445436 0.145040
C34   C     C_R   0.102369 0.421759 0.554710 0.150463
C35   C     C_R   0.369798 0.421096 0.950024 0.144420
C36   C     C_R   0.628960 0.578557 0.048768 0.151640
C37   C     C_R   0.397037 0.919573 0.054737 0.144494
C38   C     C_R   0.602055 0.080108 0.946495 0.150239
C39   C     C_R   0.103153 0.079288 0.555157 0.151960
C40   C     C_R   0.898917 0.918707 0.446215 0.150928
C41   C     C_R   0.917670 0.525560 0.500158 0.000729
C42   C     C_R   0.079350 0.475794 0.499862 0.064193
C43   C     C_R   0.413935 0.476170 0.003124 0.006451
C44   C     C_R   0.581687 0.524167 0.995874 0.067685
C45   C     C_R   0.415871 0.974851 0.000176 -0.000448
C46   C     C_R   0.580283 0.025285 0.000820 0.064014
C47   C     C_R   0.082145 0.024520 0.500727 0.039921
C48   C     C_R   0.918759 0.974018 0.500256 0.040047
H1    H     H_    0.699082 0.459729 0.647612 0.130713
H2    H     H_    0.296747 0.538495 0.351237 0.138409
H3    H     H_    0.256425 0.542867 0.159159 0.132917
H4    H     H_    0.741098 0.458769 0.839746 0.141135
H5    H     H_    0.193665 0.039536 0.852059 0.132672
H6    H     H_    0.805108 0.961695 0.148678 0.140467
H7    H     H_    0.306057 0.960811 0.354714 0.134404
H8    H     H_    0.691362 0.039692 0.644814 0.134767
N1    N     N_3   0.265483 0.372986 0.555615 -0.604509
H9    H     H_    0.216243 0.317290 0.555685 0.226066
H10   H     H_    0.348636 0.383708 0.600522 0.239626
N2    N     N_3   0.745988 0.634124 0.443373 -0.650707
H11   H     H_    0.752385 0.667492 0.488183 0.258210
H12   H     H_    0.612724 0.606199 0.438021 0.263728
N3    N     N_3   0.792808 0.628174 0.041006 -0.607165
H13   H     H_    0.892114 0.618132 0.081359 0.240917
H14   H     H_    0.747061 0.683771 0.043122 0.231196
N4    N     N_3   0.211847 0.368322 0.955363 -0.645387
H15   H     H_    0.080805 0.396677 0.954624 0.264270
H16   H     H_    0.228456 0.335923 0.000473 0.260684
N5    N     N_3   0.764320 0.131328 0.947139 -0.604992
H17   H     H_    0.847937 0.121775 0.903051 0.243126
H18   H     H_    0.714520 0.186433 0.946560 0.232733
N6    N     N_3   0.240631 0.865798 0.056701 -0.643757
H19   H     H_    0.241892 0.832402 0.011913 0.260776
H20   H     H_    0.109627 0.893505 0.062013 0.261680
N7    N     N_3   0.737962 0.866892 0.445961 -0.605482
H21   H     H_    0.652989 0.876193 0.401414 0.243826
H22   H     H_    0.789168 0.812003 0.445710 0.235780
N8    N     N_3   0.268521 0.128870 0.556955 -0.602604
H23   H     H_    0.349351 0.118486 0.602279 0.241458
H24   H     H_    0.222046 0.184339 0.556638 0.226411
N9    N     N_3   0.373889 0.431785 0.438843 -0.611049
H25   H     H_    0.361763 0.403041 0.391392 0.227022
H26   H     H_    0.501148 0.464180 0.437931 0.232628
N10   N     N_3   0.617827 0.565820 0.560533 -0.697920
H27   H     H_    0.493254 0.531838 0.560752 0.247369
H28   H     H_    0.626138 0.594293 0.608205 0.228444
N11   N     N_3   0.865842 0.562576 0.924284 -0.611568
H29   H     H_    0.984998 0.527601 0.919765 0.229037
H30   H     H_    0.848237 0.591269 0.877047 0.225233
N12   N     N_3   0.126035 0.440972 0.074484 -0.695702
H31   H     H_    0.140284 0.412410 0.121945 0.227674
H32   H     H_    0.009637 0.477434 0.078370 0.241948
N13   N     N_3   0.883687 0.068810 0.061292 -0.613307
H33   H     H_    0.878460 0.097264 0.108927 0.226870
H34   H     H_    0.008166 0.036272 0.061614 0.232018
N14   N     N_3   0.109827 0.933806 0.939493 -0.699013
H35   H     H_    0.987458 0.967530 0.939117 0.245900
H36   H     H_    0.113433 0.905264 0.891870 0.229067
N15   N     N_3   0.615594 0.930759 0.558346 -0.615669
H37   H     H_    0.621888 0.902628 0.606226 0.223149
H38   H     H_    0.490663 0.963029 0.557685 0.238477
N16   N     N_3   0.382972 0.068992 0.441760 -0.612300
H39   H     H_    0.508593 0.037119 0.441725 0.237631
H40   H     H_    0.374565 0.097435 0.394079 0.224966

loop_
_geom_bond_atom_site_label_1
_geom_bond_atom_site_label_2
_ccdc_geom_bond_type
N3    H13   S    
N16   H39   S    
O4    C5    A    
O13   V4    S    
N11   H29   S    
O14   V3    S    
C28   H3    S    
C19   C27   A    
N1    H9    S    
C37   N6    S    
N15   H37   S    
O5    C4    A    
C15   C40   A    
N9    H26   S    
O11   C3    A    
C9    C34   A    
C16   C39   A    
C17   N9    S    
O20   V1    S    
N2    H12   S    
N13   H34   S    
N15   H38   S    
C21   N13   S    
N10   H27   S    
C38   C46   A    
C22   C45   A    
C35   C43   A    
C12   C35   A    
C23   N15   S    
C34   C42   A    
C40   N7    S    
C15   C32   A    
C19   C44   A    
N6    H20   S    
C18   C41   A    
C8    C14   S    
O4    V1    S    
O9    V1    S    
C14   C37   A    
C4    C10   S    
C20   C28   A    
O17   V4    S    
O15   C7    A    
O11   V3    S    
O18   V3    S    
O16   C8    A    
O12   V4    S    
O19   V2    S    
O12   C4    A    
N8    H23   S    
C19   N11   S    
C39   N8    S    
C17   C25   A    
N1    H10   S    
C36   N3    S    
N14   H36   S    
C13   C38   A    
O5    V1    S    
O17   V1    S    
O7    V3    S    
O19   V3    S    
C43   C44   A    
O8    V4    S    
O20   V4    S    
C27   H4    S    
C3    C9    S    
C26   H1    S    
C9    C26   A    
C7    C13   S    
C24   N16   S    
O1    V4    S    
C11   C36   A    
C35   N4    S    
O3    V2    S    
O6    C3    A    
C10   C33   A    
O10   V2    S    
N4    H16   S    
N7    H21   S    
C5    C15   S    
O7    C2    A    
C6    C16   S    
N6    H19   S    
C22   C30   A    
C33   N2    S    
C22   N14   S    
N11   H30   S    
N5    H17   S    
N2    H11   S    
N8    H24   S    
C32   H7    S    
C12   C27   A    
C18   C26   A    
C13   C30   A    
O9    C1    A    
N7    H22   S    
C39   C47   A    
O18   V2    S    
N3    H14   S    
C34   N1    S    
C24   C47   A    
O2    C7    A    
N14   H35   S    
O15   V2    S    
C23   C31   A    
C37   C45   A    
C24   C32   A    
C10   C25   A    
N16   H40   S    
O6    V2    S    
C21   C46   A    
C33   C41   A    
C20   C43   A    
C16   C31   A    
N12   H32   S    
N12   H31   S    
C17   C42   A    
N9    H25   S    
O8    C1    A    
C30   H5    S    
C29   H6    S    
O16   V1    S    
C47   C48   A    
N13   H33   S    
O13   C5    A    
C31   H8    S    
O14   C6    A    
N4    H15   S    
C14   C29   A    
C2    C12   S    
O10   C2    A    
N10   H28   S    
C40   C48   A    
C45   C46   A    
C20   N12   S    
C23   C48   A    
C21   C29   A    
C36   C44   A    
O1    C8    A    
N5    H18   S    
C41   C42   A    
C38   N5    S    
C11   C28   A    
C25   H2    S    
O2    V3    S    
O3    C6    A    
C1    C11   S    
C18   N10   S    
