data_mof_unit_52285.cif
_audit_creation_date              2012-12-11T14:21:14-0500
_audit_creation_method            fapswitch 2.2
_symmetry_space_group_name_H-M    P1
_symmetry_Int_Tables_number       1
_space_group_crystal_system       triclinic
_cell_length_a                    11.522908
_cell_length_b                    11.546296
_cell_length_c                    19.565354
_cell_angle_alpha                 90.314493
_cell_angle_beta                  89.975652
_cell_angle_gamma                 60.121076
_cell_volume                      2257.05563034

loop_
_atom_site_label
_atom_site_type_symbol
_atom_type_description
_atom_site_fract_x
_atom_site_fract_y
_atom_site_fract_z
_atom_type_partial_charge
C1    C     C_R   0.640429 0.116967 0.599330 0.553892
C2    C     C_1   0.641059 0.703978 0.668042 0.004458
C3    C     C_1   0.126601 0.199298 0.859276 0.015205
C4    C     C_1   0.171622 0.169992 0.727752 -0.028966
C5    C     C_1   0.150156 0.182518 0.798962 -0.027137
C6    C     C_1   0.195434 0.160360 0.667427 0.006203
C7    C     C_1   0.678457 0.191573 0.860728 0.008954
C8    C     C_1   0.658678 0.166832 0.729040 -0.029051
C9    C     C_1   0.665653 0.180936 0.800320 -0.027663
C10   C     C_1   0.653146 0.149101 0.668693 0.005683
C11   C     C_R   0.655075 0.694570 0.185827 0.022311
C12   C     C_R   0.612444 0.745923 0.598656 0.557628
C13   C     C_R   0.520804 0.777958 0.206322 -0.000325
C14   C     C_R   0.492811 0.794517 0.277024 -0.029526
C15   C     C_R   0.730705 0.705683 0.298756 -0.100117
C16   C     C_R   0.759533 0.657497 0.233345 0.182728
C17   C     C_R   0.412761 0.828165 0.159355 0.254458
C18   C     C_R   0.287980 0.851796 0.181219 -0.080484
C19   C     C_R   0.266258 0.841333 0.250077 -0.186716
C20   C     C_R   0.362596 0.825493 0.298048 -0.114964
C21   C     C_R   0.599580 0.769253 0.322669 -0.033184
C22   C     C_R   0.141082 0.194576 0.192182 0.028073
C23   C     C_R   0.241061 0.145038 0.598211 0.554391
C24   C     C_R   0.218682 0.246451 0.218597 0.049742
C25   C     C_R   0.218806 0.262913 0.289551 0.050303
C26   C     C_R   0.107423 0.132134 0.306037 -0.042248
C27   C     C_R   0.080782 0.143351 0.236389 -0.131102
C28   C     C_R   0.277356 0.301404 0.175602 -0.055405
C29   C     C_R   0.303445 0.398929 0.200372 -0.094035
C30   C     C_R   0.279558 0.436064 0.268724 -0.120911
C31   C     C_R   0.240154 0.367958 0.313250 -0.044747
C32   C     C_R   0.185898 0.181883 0.332449 -0.002727
C33   C     C_R   0.666427 0.182697 0.191749 -0.002577
C34   C     C_R   0.646666 0.109959 0.401748 0.549041
C35   C     C_R   0.734816 0.050553 0.216149 0.020421
C36   C     C_R   0.758756 0.030010 0.286661 0.034215
C37   C     C_R   0.597052 0.265992 0.306831 -0.144502
C38   C     C_R   0.600320 0.289601 0.237696 -0.146688
C39   C     C_R   0.795067 0.939954 0.170878 -0.084094
C40   C     C_R   0.903528 0.820480 0.191822 -0.088595
C41   C     C_R   0.943502 0.804994 0.259576 -0.135627
C42   C     C_R   0.869224 0.905489 0.307119 -0.098862
C43   C     C_R   0.674427 0.137008 0.332319 0.021216
C44   C     C_R   0.081570 0.231439 0.928547 0.557914
C45   C     C_R   0.580498 0.802029 0.395193 0.557958
C46   C     C_R   0.683838 0.604645 0.929504 0.574296
C47   C     C_R   0.708347 0.206884 0.930073 0.543252
C48   C     C_R   0.083979 0.234486 0.124576 0.581016
C49   C     C_R   0.682309 0.614743 0.124263 0.622466
C50   C     C_R   0.705602 0.209874 0.125555 0.533565
C51   C     C_R   0.244186 0.143592 0.401106 0.541803
C52   C     C_1   0.670448 0.646698 0.860137 0.013538
C53   C     C_1   0.654631 0.683847 0.728468 -0.029598
C54   C     C_1   0.663439 0.666893 0.799709 -0.028699
Cr1   Cr    Cr6+3 0.404720 0.198220 0.499960 1.020847
Cr2   Cr    Cr6+3 0.698290 0.897110 0.500380 1.032342
Cr3   Cr    Cr6+3 0.396970 0.904720 0.499610 1.033559
Cr4   Cr    Cr6+3 0.926180 0.151990 0.028120 1.044998
Cr5   Cr    Cr6+3 0.921330 0.451820 0.027470 1.070503
Cr6   Cr    Cr6+3 0.626260 0.446870 0.028710 1.058349
H1    H     H_    0.814068 0.678197 0.333104 0.176754
H2    H     H_    0.337845 0.448805 0.166034 0.116581
H3    H     H_    0.293155 0.516873 0.287553 0.098113
H4    H     H_    0.215615 0.408963 0.364249 0.148862
H5    H     H_    0.536845 0.349102 0.340823 0.131462
H6    H     H_    0.766007 0.949347 0.117654 0.140595
H7    H     H_    0.553195 0.392051 0.220390 0.140437
H8    H     H_    0.957522 0.740598 0.155225 0.165183
H9    H     H_    0.029884 0.713026 0.275919 0.145459
H10   H     H_    0.908272 0.884537 0.358200 0.176594
H11   H     H_    0.207060 0.880543 0.145147 0.149842
H12   H     H_    0.170016 0.856955 0.266830 0.127110
H13   H     H_    0.332507 0.832106 0.350445 0.181169
H14   H     H_    0.292750 0.277340 0.121595 0.130488
H15   H     H_    0.011121 0.113853 0.216884 0.144757
O1    O     O_R   0.267740 0.231960 0.575440 -0.502606
O2    O     O_R   0.685970 0.784660 0.430010 -0.507480
O3    O     O_R   0.502530 0.767000 0.423990 -0.523534
O4    O     O_R   0.288330 0.026350 0.429250 -0.513891
O5    O     O_3   0.499990 0.000020 0.499980 -0.278960
O6    O     O_R   0.821500 0.119340 0.952830 -0.506031
O7    O     O_R   0.037130 0.162530 0.957360 -0.482606
O8    O     O_R   0.056440 0.344740 0.951340 -0.514868
O9    O     O_R   0.797900 0.560360 0.957470 -0.503416
O10   O     O_R   0.596130 0.579390 0.952730 -0.477044
O11   O     O_R   0.639060 0.321160 0.958670 -0.499431
O12   O     O_R   0.527280 0.186640 0.570530 -0.491905
O13   O     O_R   0.821240 0.124200 0.104370 -0.525738
O14   O     O_R   0.036890 0.167040 0.097840 -0.505092
O15   O     O_R   0.056180 0.349610 0.102880 -0.466744
O16   O     O_R   0.797660 0.564870 0.097950 -0.449645
O17   O     O_R   0.595880 0.584250 0.104270 -0.490600
O18   O     O_R   0.638830 0.325670 0.099150 -0.508909
O19   O     O_3   0.824590 0.350230 0.028100 -0.270025
O20   O     O_R   0.728090 0.003450 0.576380 -0.498195
O21   O     O_R   0.682970 0.789190 0.570490 -0.488677
O22   O     O_R   0.499290 0.771880 0.575530 -0.499098
O23   O     O_R   0.285330 0.030870 0.569730 -0.487945
O24   O     O_R   0.270980 0.227080 0.423890 -0.538477
O25   O     O_R   0.530280 0.182120 0.430050 -0.505864
O26   O     O_R   0.731330 0.998570 0.424830 -0.528029
Cl1   Cl    Cl    0.428033 0.868661 0.074166 -0.627741
Cl2   Cl    Cl    0.927259 0.533280 0.219855 -0.650124
C55   C     C_1   0.043046 0.083313 0.351479 0.188705
N1    N     N_1   0.992313 0.045731 0.389400 -0.316212

loop_
_geom_bond_atom_site_label_1
_geom_bond_atom_site_label_2
_ccdc_geom_bond_type
C25   C31   A    
Cr2   O20   S    
C22   C48   S    
C26   C32   A    
C41   C42   A    
Cr3   O4    S    
C36   C42   A    
C35   C36   A    
C23   O1    A    
C44   O8    A    
C2    C12   S    
C53   C54   S    
C26   C27   A    
C29   C30   A    
C14   C21   A    
C28   C29   A    
Cr5   O8    S    
Cr2   O26   S    
C44   O7    A    
Cr4   O7    S    
C30   C31   A    
Cr3   O23   S    
C15   C16   A    
C46   C52   S    
C42   H10   S    
Cr2   O21   S    
C18   C19   A    
C1    O12   A    
C26   C55   S    
C19   C20   A    
C8    C9    S    
C37   H5    S    
Cr1   O25   S    
C34   O25   A    
C45   O3    A    
Cr5   O19   S    
C50   O13   A    
C46   O10   A    
Cr6   O18   S    
C25   C32   A    
C28   H14   S    
C48   O15   A    
C30   H3    S    
Cr3   O5    S    
C19   H12   S    
C49   O16   A    
C27   H15   S    
Cr3   O3    S    
C55   N1    T    
C52   C54   T    
C21   C45   S    
Cr6   O17   S    
C51   O24   A    
C3    C44   S    
C34   O26   A    
C34   C43   S    
C47   O11   A    
C14   C20   A    
C24   C25   A    
C4    C6    T    
Cr4   O6    S    
C39   C40   A    
Cr6   O11   S    
C33   C50   S    
Cr2   O2    S    
Cr5   O15   S    
C7    C47   S    
C37   C43   A    
C35   C39   A    
C17   Cl1   S    
C32   C51   S    
C37   C38   A    
C11   C49   S    
C11   C16   A    
C16   Cl2   S    
C1    O20   A    
Cr3   O22   S    
C17   C18   A    
C15   H1    S    
Cr5   O16   S    
Cr5   O9    S    
C12   O22   A    
C46   O9    A    
Cr1   O1    S    
C40   C41   A    
C22   C27   A    
C39   H6    S    
C22   C24   A    
C49   O17   A    
C41   H9    S    
C18   H11   S    
C7    C9    T    
C29   H2    S    
C31   H4    S    
C1    C10   S    
C24   C28   A    
C4    C5    S    
C3    C5    T    
C2    C53   T    
Cr4   O13   S    
Cr6   O10   S    
C50   O18   A    
C33   C38   A    
Cr2   O5    S    
C13   C17   A    
C48   O14   A    
Cr4   O19   S    
Cr1   O5    S    
C11   C13   A    
C6    C23   S    
C33   C35   A    
C20   H13   S    
C47   O6    A    
Cr1   O12   S    
Cr4   O14   S    
C51   O4    A    
C15   C21   A    
C23   O23   A    
C38   H7    S    
C8    C10   T    
C40   H8    S    
Cr1   O24   S    
C12   O21   A    
C36   C43   A    
C45   O2    A    
C13   C14   A    
Cr6   O19   S    
