data_mof_unit_14320.cif
_audit_creation_date              2012-12-10T19:01:52-0500
_audit_creation_method            fapswitch 2.2
_symmetry_space_group_name_H-M    P1
_symmetry_Int_Tables_number       1
_space_group_crystal_system       triclinic
_cell_length_a                    11.740403
_cell_length_b                    10.953874
_cell_length_c                    9.633389
_cell_angle_alpha                 90.193743
_cell_angle_beta                  89.266287
_cell_angle_gamma                 91.02365
_cell_volume                      1238.57627732

loop_
_atom_site_label
_atom_site_type_symbol
_atom_type_description
_atom_site_fract_x
_atom_site_fract_y
_atom_site_fract_z
_atom_type_partial_charge
C1    C     C_R   0.499710 0.262855 0.499160 0.785160
C2    C     C_R   0.505851 0.130337 0.494687 -0.095436
C3    C     C_R   0.485327 0.063428 0.371700 -0.197622
C4    C     C_R   0.487501 0.934785 0.372551 -0.209587
C5    C     C_R   0.511117 0.870606 0.496028 -0.107877
C6    C     C_R   0.543098 0.940931 0.610610 0.016234
C7    C     C_3   0.555151 0.935529 0.766718 -0.035068
C8    C     C_3   0.542274 0.077204 0.762405 -0.260874
C9    C     C_R   0.599478 0.502832 0.071696 0.090966
C10   C     C_R   0.403448 0.476054 0.076585 0.605503
C11   C     C_R   0.403048 0.473539 0.929476 -0.052478
C12   C     C_R   0.284194 0.500740 0.500448 0.830592
C13   C     C_R   0.599467 0.501841 0.925569 0.153886
C14   C     C_3   0.694178 0.592468 0.917916 -0.487911
C15   C     C_3   0.694292 0.594551 0.076012 0.434551
C16   C     C_R   0.503047 0.737383 0.499742 0.772359
C17   C     C_R   0.715826 0.500845 0.499257 0.807530
C18   C     C_1   0.162407 0.502545 0.500227 -0.139844
C19   C     C_1   0.059981 0.503539 0.498599 0.001171
C20   C     C_1   0.940106 0.503482 0.497557 -0.005732
C21   C     C_1   0.837647 0.502525 0.497715 -0.146996
C22   C     C_R   0.538385 0.064494 0.609229 0.018762
Cu1   Cu    Cu3+1 0.499990 0.499980 0.640670 0.958841
Cu2   Cu    Cu3+1 0.500010 0.500020 0.359330 0.998361
H1    H     H_    0.463610 0.109480 0.276570 0.165042
H2    H     H_    0.663378 0.675844 0.870462 0.183837
H3    H     H_    0.670760 0.682611 0.124859 0.077573
H4    H     H_    0.466749 0.886268 0.277991 0.160701
H5    H     H_    0.458284 0.106257 0.799477 0.140895
H6    H     H_    0.772700 0.554757 0.870087 0.221208
N1    N     N_R   0.500710 0.500930 0.147930 -0.281565
N2    N     N_R   0.500710 0.500890 0.852020 -0.220311
O1    O     O_R   0.500000 0.319640 0.618810 -0.577798
O2    O     O_R   0.500010 0.319680 0.381230 -0.572288
O3    O     O_R   0.337190 0.499990 0.618790 -0.593034
O4    O     O_R   0.337200 0.500030 0.381210 -0.488672
O5    O     O_R   0.499990 0.680320 0.618770 -0.567955
O6    O     O_R   0.500000 0.680360 0.381190 -0.606665
O7    O     O_R   0.662800 0.499970 0.618790 -0.581815
O8    O     O_R   0.662810 0.500010 0.381210 -0.533870
F1    F     F_    0.792352 0.545395 0.128938 -0.658698
C23   C     C_R   0.450276 0.874079 0.838294 0.156414
C24   C     C_R   0.456940 0.810703 0.965123 -0.167945
C25   C     C_R   0.358578 0.769582 0.035091 -0.147452
C26   C     C_R   0.251649 0.787367 0.978603 -0.116004
C27   C     C_R   0.242669 0.846109 0.851433 -0.173214
C28   C     C_R   0.340296 0.889942 0.782631 -0.143719
H7    H     H_    0.536548 0.793470 0.013464 0.095275
H8    H     H_    0.365295 0.724035 0.134016 0.158377
H9    H     H_    0.175861 0.754930 0.033069 0.139411
H10   H     H_    0.159862 0.859951 0.806767 0.123348
H11   H     H_    0.328767 0.939226 0.686864 0.128115
C29   C     C_R   0.675499 0.896209 0.809633 0.116715
C30   C     C_R   0.753501 0.845702 0.712549 -0.132557
C31   C     C_R   0.863040 0.813661 0.752582 -0.169681
C32   C     C_R   0.897538 0.831963 0.889130 -0.089688
C33   C     C_R   0.823113 0.883340 0.985797 -0.104637
C34   C     C_R   0.713483 0.915249 0.946697 -0.188012
H12   H     H_    0.730468 0.828722 0.605923 0.122171
H13   H     H_    0.920983 0.773607 0.677668 0.133229
H14   H     H_    0.981631 0.805568 0.920476 0.120518
H15   H     H_    0.849970 0.897537 0.091779 0.137154
H16   H     H_    0.657818 0.953637 0.024880 0.127925
C35   C     C_R   0.637777 0.157579 0.818468 0.194608
C36   C     C_R   0.724372 0.207718 0.732620 -0.050106
C37   C     C_R   0.809546 0.281881 0.789162 -0.192675
C38   C     C_R   0.813571 0.301471 0.932341 -0.087970
C39   C     C_R   0.727919 0.252677 0.018453 -0.096654
C40   C     C_R   0.638086 0.185068 0.961109 -0.210491
H17   H     H_    0.726367 0.191033 0.621924 0.104135
H18   H     H_    0.872496 0.323505 0.720985 0.124114
H19   H     H_    0.881487 0.356685 0.976219 0.185482
H20   H     H_    0.729458 0.269973 0.129120 0.165920
H21   H     H_    0.570377 0.150767 0.028586 0.116923
F2    F     F_    0.306221 0.443367 0.145027 -0.653252
C41   C     C_R   0.303760 0.408843 0.871934 0.235833
C42   C     C_R   0.200871 0.468647 0.849540 -0.059318
C43   C     C_R   0.103225 0.400964 0.814730 -0.157795
C44   C     C_R   0.107368 0.273468 0.805450 -0.120930
C45   C     C_R   0.207139 0.213572 0.837992 -0.149954
C46   C     C_R   0.303573 0.281329 0.875142 -0.102943
H22   H     H_    0.196664 0.566863 0.857468 0.124885
H23   H     H_    0.024832 0.447866 0.795240 0.126896
H24   H     H_    0.033121 0.219907 0.777496 0.138987
H25   H     H_    0.208445 0.114910 0.839389 0.137600
H26   H     H_    0.375843 0.236209 0.917563 0.099885

loop_
_geom_bond_atom_site_label_1
_geom_bond_atom_site_label_2
_ccdc_geom_bond_type
C25   H8    S    
C31   C32   A    
C13   N2    A    
C19   C20   S    
C1    O1    A    
C7    C8    S    
C29   C30   A    
Cu2   O4    S    
C8    H5    S    
C42   H22   S    
C38   H19   S    
C11   C41   S    
C5    C6    A    
C36   H17   S    
C6    C22   A    
C32   C33   A    
C18   C19   T    
C17   O7    A    
C7    C23   S    
C9    C13   A    
C5    C16   S    
C27   C28   A    
C15   H3    S    
C43   H23   S    
C39   C40   A    
Cu1   O1    S    
C2    C22   A    
Cu2   O6    S    
Cu1   Cu2   S    
C12   O4    A    
C24   H7    S    
C46   H26   S    
C42   C43   A    
C16   O5    A    
C37   C38   A    
C13   C14   S    
C14   H6    S    
C10   N1    A    
C4    H4    S    
C1    O2    A    
C30   H12   S    
C38   C39   A    
C3    H1    S    
C41   C42   A    
C15   F1    S    
C43   C44   A    
C4    C5    A    
C33   H15   S    
C39   H20   S    
Cu1   O5    S    
C27   H10   S    
C17   C21   S    
C17   O8    A    
C24   C25   A    
C45   H25   S    
C10   F2    S    
C8    C22   S    
C37   H18   S    
C40   H21   S    
C35   C40   A    
C14   H2    S    
C12   O3    A    
C28   H11   S    
C8    C35   S    
C11   N2    A    
Cu1   O3    S    
C23   C24   A    
C7    C29   S    
C3    C4    A    
C25   C26   A    
C34   H16   S    
C30   C31   A    
C32   H14   S    
C45   C46   A    
C41   C46   A    
C29   C34   A    
C6    C7    S    
C35   C36   A    
C2    C3    A    
C9    C15   S    
Cu2   N1    S    
Cu1   N2    S    
C33   C34   A    
C44   H24   S    
C26   H9    S    
Cu1   O7    S    
C1    C2    S    
Cu2   O8    S    
C23   C28   A    
Cu2   O2    S    
C10   C11   A    
C9    N1    A    
C44   C45   A    
C26   C27   A    
C20   C21   T    
C36   C37   A    
C12   C18   S    
C14   C15   S    
C31   H13   S    
C16   O6    A    
