data_mof_unit_25163.cif
_audit_creation_date              2012-12-11T20:33:47-0500
_audit_creation_method            fapswitch 2.2
_symmetry_space_group_name_H-M    P1
_symmetry_Int_Tables_number       1
_space_group_crystal_system       triclinic
_cell_length_a                    24.82364
_cell_length_b                    28.187648
_cell_length_c                    8.360668
_cell_angle_alpha                 90.094036
_cell_angle_beta                  95.166749
_cell_angle_gamma                 90.016374
_cell_volume                      5826.3483662

loop_
_atom_site_label
_atom_site_type_symbol
_atom_type_description
_atom_site_fract_x
_atom_site_fract_y
_atom_site_fract_z
_atom_type_partial_charge
Ba1   Ba    Ba6+2 0.999910 0.466800 0.844920 1.693553
Ba2   Ba    Ba6+2 0.999910 0.533200 0.344920 1.694148
Ba3   Ba    Ba6+2 0.499910 0.966800 0.844920 1.703593
Ba4   Ba    Ba6+2 0.499910 0.033200 0.344920 1.681131
C1    C     C_3   0.039455 0.248255 0.627506 0.246446
C2    C     C_3   0.047031 0.747793 0.108164 0.288918
C3    C     C_3   0.539006 0.747936 0.630861 0.247577
C4    C     C_3   0.545856 0.248363 0.105586 0.288744
C5    C     C_3   0.882300 0.363801 0.421051 -0.009648
C6    C     C_3   0.884068 0.638631 0.920890 -0.021524
C7    C     C_3   0.382446 0.863863 0.421485 -0.008843
C8    C     C_3   0.383842 0.138624 0.920588 -0.021292
C9    C     C_2   0.849241 0.324141 0.363099 -0.095096
C10   C     C_2   0.852546 0.678784 0.860825 -0.116401
C11   C     C_2   0.349712 0.824077 0.363389 -0.095221
C12   C     C_2   0.352572 0.178908 0.860139 -0.116174
C13   C     C_2   0.826171 0.323248 0.200842 -0.051529
C14   C     C_2   0.827793 0.678156 0.700410 -0.071278
C15   C     C_2   0.326893 0.823037 0.201015 -0.052167
C16   C     C_2   0.327988 0.178354 0.699479 -0.072291
C17   C     C_2   0.842899 0.358867 0.095474 -0.069941
C18   C     C_2   0.842275 0.640860 0.597543 -0.101716
C19   C     C_2   0.343397 0.858742 0.095702 -0.070962
C20   C     C_2   0.342336 0.140920 0.596991 -0.102712
C21   C     C_1   0.880147 0.393190 0.151346 0.093035
C22   C     C_1   0.879949 0.606850 0.652643 0.062828
C23   C     C_1   0.380387 0.893229 0.151705 0.093027
C24   C     C_1   0.379868 0.106836 0.652458 0.063016
C25   C     C_R   0.211809 0.718897 0.035968 0.449390
C26   C     C_R   0.214339 0.283079 0.530436 0.468402
C27   C     C_R   0.709756 0.219982 0.035883 0.449375
C28   C     C_R   0.712957 0.782153 0.533935 0.469528
C29   C     C_R   0.785279 0.286385 0.142360 0.481983
C30   C     C_R   0.787661 0.715371 0.641050 0.453222
C31   C     C_R   0.286507 0.785878 0.142458 0.481037
C32   C     C_R   0.288267 0.215827 0.639264 0.454167
C33   C     C_R   0.160300 0.640513 0.081866 -0.139078
C34   C     C_R   0.161240 0.360441 0.577971 -0.103925
C35   C     C_R   0.657520 0.141909 0.081591 -0.162721
C36   C     C_R   0.659690 0.859392 0.582202 -0.099125
C37   C     C_R   0.123460 0.605119 0.025327 -0.018042
C38   C     C_R   0.123107 0.394989 0.523794 -0.013742
C39   C     C_R   0.621670 0.105760 0.024214 -0.001592
C40   C     C_R   0.622118 0.894275 0.526871 -0.009822
C41   C     C_R   0.106327 0.649869 0.775997 0.016606
C42   C     C_R   0.107919 0.351329 0.271697 0.024035
C43   C     C_R   0.604773 0.150657 0.774738 0.000546
C44   C     C_R   0.606828 0.850557 0.274825 0.019912
C45   C     C_3   0.987069 0.294511 0.126528 0.304360
C46   C     C_3   0.984683 0.705690 0.607870 0.300204
C47   C     C_3   0.486550 0.794264 0.124917 0.302682
C48   C     C_3   0.482659 0.205425 0.607018 0.305573
C49   C     C_R   0.143880 0.684955 0.830005 -0.132173
C50   C     C_R   0.146240 0.316723 0.324194 -0.132556
C51   C     C_R   0.642012 0.185937 0.829163 -0.130047
C52   C     C_R   0.644831 0.815768 0.327954 -0.129673
C53   C     C_R   0.171218 0.681988 0.977692 -0.066441
C54   C     C_R   0.173340 0.319632 0.472217 -0.011296
C55   C     C_R   0.668954 0.183167 0.977265 -0.058147
C56   C     C_R   0.671759 0.818575 0.476303 -0.018562
C57   C     C_R   0.096960 0.609196 0.879649 -0.257779
C58   C     C_R   0.097009 0.391116 0.377655 -0.223704
C59   C     C_R   0.595727 0.109554 0.877684 -0.249578
C60   C     C_R   0.596141 0.890448 0.380479 -0.241552
C61   C     C_3   0.961670 0.245431 0.123041 -0.341806
C62   C     C_3   0.956908 0.753523 0.584079 -0.307283
C63   C     C_3   0.460898 0.745274 0.118683 -0.342056
C64   C     C_3   0.454113 0.252917 0.583236 -0.308890
C65   C     C_3   0.193185 0.496321 0.071004 0.712600
C66   C     C_3   0.197105 0.490753 0.545591 0.699908
C67   C     C_3   0.706854 0.019447 0.083528 0.762972
C68   C     C_3   0.692740 0.997701 0.551313 0.653450
C69   C     C_3   0.240109 0.531711 0.068319 -0.326181
C70   C     C_3   0.251352 0.467147 0.597773 -0.374274
C71   C     C_3   0.746087 0.049845 0.194087 -0.378769
C72   C     C_3   0.730075 0.956104 0.517603 -0.316038
C73   C     C_3   0.837945 0.526402 0.956388 0.308791
C74   C     C_3   0.841487 0.468289 0.505378 0.233901
C75   C     C_3   0.337850 0.026302 0.956019 0.309353
C76   C     C_3   0.341509 0.968285 0.505307 0.233440
C77   C     C_3   0.789038 0.558642 0.972085 0.339182
C78   C     C_3   0.792585 0.439153 0.546983 0.298878
C79   C     C_3   0.288913 0.058531 0.971385 0.338650
C80   C     C_3   0.292597 0.939132 0.546732 0.298410
C81   C     C_3   0.014761 0.297687 0.625427 0.356834
C82   C     C_3   0.018604 0.700031 0.112929 0.390239
C83   C     C_3   0.514628 0.797506 0.626291 0.355708
C84   C     C_3   0.517911 0.200397 0.111068 0.387762
C85   C     C_2   0.909587 0.384791 0.295436 -0.276629
C86   C     C_2   0.910124 0.615703 0.795923 -0.268597
C87   C     C_2   0.409752 0.884971 0.296068 -0.276915
C88   C     C_2   0.409925 0.115582 0.795959 -0.270371
H1    H     H_    0.024013 0.313829 0.745765 0.113587
H2    H     H_    0.031923 0.682916 0.229171 0.045582
H3    H     H_    0.524064 0.814170 0.745745 0.112487
H4    H     H_    0.531860 0.183256 0.226706 0.050868
H5    H     H_    0.263438 0.533178 0.188001 0.146767
H6    H     H_    0.270643 0.483363 0.709299 0.084446
H7    H     H_    0.772191 0.026999 0.276266 0.137525
H8    H     H_    0.710769 0.933141 0.420985 0.048454
H9    H     H_    0.267710 0.521526 0.977153 0.054274
H10   H     H_    0.279067 0.470972 0.501430 0.125905
H11   H     H_    0.772199 0.071432 0.121270 0.052876
H12   H     H_    0.740049 0.934707 0.627503 0.076374
H13   H     H_    0.224947 0.567547 0.036067 0.012505
H14   H     H_    0.245525 0.428743 0.618628 0.034387
H15   H     H_    0.723951 0.074094 0.268736 0.083857
H16   H     H_    0.768674 0.968921 0.475814 0.124561
H17   H     H_    0.841211 0.518270 0.828449 0.001081
H18   H     H_    0.849579 0.462190 0.378919 -0.003897
H19   H     H_    0.341092 0.018033 0.828167 0.001242
H20   H     H_    0.349648 0.962201 0.378886 -0.003337
H21   H     H_    0.874865 0.545229 0.007717 -0.068338
H22   H     H_    0.876896 0.456427 0.585397 0.011466
H23   H     H_    0.374759 0.045203 0.007031 -0.069149
H24   H     H_    0.376896 0.956429 0.585430 0.011902
H25   H     H_    0.794165 0.592348 0.908022 -0.051969
H26   H     H_    0.803745 0.401406 0.565102 -0.048749
H27   H     H_    0.294011 0.092181 0.906945 -0.051441
H28   H     H_    0.303777 0.901396 0.565030 -0.048430
H29   H     H_    0.785812 0.566998 0.100682 0.006403
H30   H     H_    0.778712 0.452049 0.661908 0.108209
H31   H     H_    0.285684 0.067005 0.099895 0.006585
H32   H     H_    0.278639 0.952044 0.661522 0.108255
H33   H     H_    0.033212 0.319275 0.533462 -0.035974
H34   H     H_    0.031033 0.677884 0.012534 -0.050543
H35   H     H_    0.533119 0.818560 0.533123 -0.036056
H36   H     H_    0.530028 0.178421 0.009886 -0.048018
H37   H     H_    0.018170 0.225860 0.711775 0.053947
H38   H     H_    0.091128 0.741567 0.138365 -0.025418
H39   H     H_    0.517446 0.726016 0.715836 0.053481
H40   H     H_    0.590062 0.242469 0.134614 -0.025037
H41   H     H_    0.923704 0.246416 0.183868 0.080431
H42   H     H_    0.917649 0.752930 0.638113 0.081308
H43   H     H_    0.422851 0.746100 0.179125 0.079754
H44   H     H_    0.415096 0.251976 0.638512 0.080287
H45   H     H_    0.837326 0.297909 0.448099 0.108808
H46   H     H_    0.843055 0.706738 0.943239 0.114013
H47   H     H_    0.337881 0.797786 0.448319 0.108603
H48   H     H_    0.343214 0.206973 0.942296 0.113195
H49   H     H_    0.825997 0.360017 0.971254 0.118421
H50   H     H_    0.824073 0.638703 0.474768 0.122802
H51   H     H_    0.326558 0.859795 0.971417 0.119017
H52   H     H_    0.324228 0.138768 0.474120 0.123428
H53   H     H_    0.181793 0.636874 0.199709 0.115998
H54   H     H_    0.182382 0.363804 0.696220 0.084303
H55   H     H_    0.676960 0.139942 0.202194 0.103347
H56   H     H_    0.681180 0.863146 0.700020 0.111539
H57   H     H_    0.150383 0.714555 0.751628 0.109412
H58   H     H_    0.153409 0.287501 0.244622 0.105126
H59   H     H_    0.648650 0.215478 0.750677 0.109143
H60   H     H_    0.652078 0.786592 0.248276 0.107591
H61   H     H_    0.953077 0.390249 0.307100 0.044211
H62   H     H_    0.953432 0.609286 0.807066 0.048281
H63   H     H_    0.453234 0.890472 0.307900 0.045052
H64   H     H_    0.453209 0.109033 0.807459 0.048863
H65   H     H_    0.068762 0.581979 0.834679 0.075561
H66   H     H_    0.068234 0.417973 0.333930 0.071975
H67   H     H_    0.568390 0.081834 0.831650 0.075721
H68   H     H_    0.567865 0.917586 0.335829 0.073070
H69   H     H_    0.033164 0.233153 0.503929 0.015406
H70   H     H_    0.031737 0.771538 0.200583 0.057596
H71   H     H_    0.532773 0.732368 0.507926 0.015520
H72   H     H_    0.530650 0.271969 0.198536 0.058440
H73   H     H_    0.957548 0.319229 0.063124 0.058815
H74   H     H_    0.957701 0.678609 0.546091 0.062845
H75   H     H_    0.457210 0.819341 0.062591 0.058482
H76   H     H_    0.456024 0.177963 0.546090 0.062884
H77   H     H_    0.995379 0.305477 0.254285 -0.041093
H78   H     H_    0.990322 0.698035 0.738779 0.021348
H79   H     H_    0.494798 0.804644 0.253272 -0.040035
H80   H     H_    0.488746 0.197948 0.737972 0.020793
H81   H     H_    0.952122 0.233649 0.996809 0.127711
H82   H     H_    0.949330 0.761337 0.453801 0.124671
H83   H     H_    0.451441 0.734066 0.991813 0.127342
H84   H     H_    0.445984 0.260496 0.452945 0.125583
H85   H     H_    0.989997 0.219735 0.186320 0.125783
H86   H     H_    0.982720 0.781909 0.642534 0.151787
H87   H     H_    0.489029 0.719231 0.180948 0.125947
H88   H     H_    0.479678 0.281653 0.640503 0.151524
H89   H     H_    0.168322 0.496067 0.954773 -0.003292
H90   H     H_    0.179679 0.469737 0.441597 0.038980
H91   H     H_    0.694167 0.039113 0.970916 -0.080271
H92   H     H_    0.663977 0.003686 0.445196 0.031409
N1    N     N_R   0.236235 0.717494 0.188253 -0.240680
N2    N     N_R   0.239903 0.285591 0.681214 -0.241763
N3    N     N_R   0.734311 0.218369 0.188044 -0.240618
N4    N     N_R   0.738738 0.784722 0.684391 -0.234385
N5    N     N_R   0.771088 0.250818 0.240135 -0.240101
N6    N     N_R   0.775155 0.752100 0.736773 -0.242263
N7    N     N_R   0.272634 0.750233 0.240349 -0.241109
N8    N     N_R   0.275945 0.252751 0.734420 -0.246044
N9    N     N_R   0.760739 0.287979 0.990210 -0.224182
N10   N     N_R   0.761988 0.712878 0.490469 -0.235184
N11   N     N_R   0.262110 0.787253 0.990164 -0.224939
N12   N     N_R   0.262838 0.213407 0.488331 -0.235701
N13   N     N_R   0.225662 0.754583 0.938192 -0.240325
N14   N     N_R   0.226762 0.246196 0.435220 -0.245054
N15   N     N_R   0.723915 0.255599 0.938246 -0.239821
N16   N     N_R   0.725539 0.745448 0.438182 -0.243636
O1    O     O_2   0.893910 0.433590 0.874460 -0.501194
O2    O     O_2   0.893910 0.566410 0.374460 -0.463343
O3    O     O_2   0.393910 0.933590 0.874460 -0.501058
O4    O     O_2   0.393910 0.066410 0.374460 -0.462768
O5    O     O_3   0.162795 0.491203 0.672174 -0.681615
O6    O     O_3   0.161037 0.508782 0.193453 -0.592919
O7    O     O_3   0.664493 0.988811 0.687009 -0.632762
O8    O     O_3   0.661567 0.007520 0.165825 -0.622658
O9    O     O_3   0.034846 0.293058 0.048309 -0.596947
O10   O     O_3   0.034674 0.707017 0.541277 -0.603487
O11   O     O_3   0.534401 0.793021 0.047017 -0.597524
O12   O     O_3   0.532395 0.207312 0.539236 -0.599093
O13   O     O_3   0.061740 0.523180 0.062830 -0.478286
O14   O     O_3   0.061740 0.476820 0.562830 -0.457883
O15   O     O_3   0.561740 0.023180 0.062830 -0.451076
O16   O     O_3   0.561740 0.976820 0.562830 -0.485368
O17   O     O_3   0.938210 0.476710 0.126870 -0.482642
O18   O     O_3   0.938210 0.523290 0.626870 -0.497218
O19   O     O_3   0.438210 0.976710 0.126870 -0.482754
O20   O     O_3   0.438210 0.023290 0.626870 -0.496932
O21   O     O_3   0.981570 0.392580 0.636990 -0.494083
O22   O     O_3   0.981570 0.607420 0.136990 -0.492775
O23   O     O_3   0.481570 0.892580 0.636990 -0.495093
O24   O     O_3   0.481570 0.107420 0.136990 -0.489532
O25   O     O_2   0.900025 0.348028 0.757222 -0.490256
O26   O     O_2   0.900741 0.652311 0.258048 -0.488853
O27   O     O_2   0.399970 0.848250 0.757569 -0.490492
O28   O     O_2   0.400339 0.151969 0.257680 -0.488716
O29   O     O_3   0.830698 0.484558 0.040766 -0.594914
O30   O     O_3   0.829800 0.516292 0.526910 -0.607255
O31   O     O_3   0.330695 0.984550 0.040992 -0.594900
O32   O     O_3   0.329805 0.016284 0.526818 -0.607393
O33   O     O_3   0.958583 0.294211 0.588613 -0.651017
O34   O     O_3   0.962223 0.706427 0.099144 -0.604860
O35   O     O_3   0.458435 0.794158 0.589724 -0.651222
O36   O     O_3   0.461512 0.206460 0.099690 -0.605289
O37   O     O_2   0.105800 0.433150 0.815270 -0.454448
O38   O     O_2   0.105800 0.566850 0.315270 -0.403322
O39   O     O_2   0.605800 0.933150 0.815270 -0.408882
O40   O     O_2   0.605800 0.066850 0.315270 -0.482280
O41   O     O_3   0.018000 0.392500 0.052760 -0.493646
O42   O     O_3   0.018000 0.607500 0.552760 -0.488447
O43   O     O_3   0.518000 0.892500 0.052760 -0.493445
O44   O     O_3   0.518000 0.107500 0.552760 -0.488074
O45   O     O_2   0.103576 0.351269 0.935451 -0.459410
O46   O     O_2   0.104809 0.647830 0.441656 -0.489814
O47   O     O_2   0.604038 0.851269 0.938748 -0.453023
O48   O     O_2   0.603483 0.148885 0.439595 -0.504721
P1    P     P_3+3 0.888690 0.449140 0.046940 1.025510
P2    P     P_3+3 0.888690 0.550860 0.546940 1.002646
P3    P     P_3+3 0.388690 0.949140 0.046940 1.025855
P4    P     P_3+3 0.388690 0.050860 0.546940 1.002875
P5    P     P_3+3 0.111080 0.448680 0.642780 0.980962
P6    P     P_3+3 0.111080 0.551320 0.142780 1.018069
P7    P     P_3+3 0.611080 0.948680 0.642780 0.999280
P8    P     P_3+3 0.611080 0.051320 0.142780 0.988532
P9    P     P_3+3 0.067470 0.347869 0.076490 0.981464
P10   P     P_3+3 0.067068 0.652467 0.578280 0.953750
P11   P     P_3+3 0.567189 0.847659 0.077957 0.986405
P12   P     P_3+3 0.565873 0.153279 0.576641 0.937499
P13   P     P_3+3 0.931130 0.650576 0.104320 0.956824
P14   P     P_3+3 0.929676 0.350670 0.602283 0.932592
P15   P     P_3+3 0.430870 0.150416 0.104234 0.957972
P16   P     P_3+3 0.429690 0.850697 0.602751 0.932109
S1    S     S_3+6 0.726986 0.533067 0.887219 -0.032671
O49   O     O_2   0.722304 0.482198 0.937807 -0.215905
O50   O     O_2   0.680703 0.560969 0.943674 -0.265274
O51   O     O_3   0.724721 0.536192 0.686135 -0.498784
H93   H     H_    0.688453 0.523977 0.647385 0.398508
S2    S     S_3+6 0.737849 0.442621 0.393098 0.000416
O52   O     O_2   0.752697 0.417517 0.244659 -0.291209
O53   O     O_2   0.689078 0.418907 0.451353 -0.228447
O54   O     O_3   0.722608 0.499478 0.348761 -0.424691
H94   H     H_    0.750592 0.509957 0.279407 0.362412
S3    S     S_3+6 0.226885 0.032844 0.886809 -0.032599
O55   O     O_2   0.222352 0.981963 0.937428 -0.216295
O56   O     O_2   0.180570 0.060656 0.943483 -0.264524
O57   O     O_3   0.224505 0.035975 0.685705 -0.498754
H95   H     H_    0.188304 0.023580 0.647101 0.398440
S4    S     S_3+6 0.237949 0.942524 0.392555 0.000254
O58   O     O_2   0.252924 0.917394 0.244305 -0.291197
O59   O     O_2   0.189155 0.918790 0.450592 -0.228842
O60   O     O_3   0.222681 0.999362 0.347986 -0.424400
H96   H     H_    0.250748 0.009864 0.278957 0.362383
O61   O     O_3   0.095097 0.251414 0.678791 -0.652387
C89   C     C_3   0.118263 0.205757 0.678334 0.212760
H97   H     H_    0.116930 0.191297 0.554140 0.049719
H98   H     H_    0.098187 0.180996 0.757875 0.058442
H99   H     H_    0.161355 0.208365 0.725619 0.103610
O62   O     O_3   0.036843 0.767716 0.953625 -0.652525
C90   C     C_3   0.069349 0.808352 0.941981 0.196705
H100  H     H_    0.113008 0.798807 0.951043 0.069098
H101  H     H_    0.061379 0.835208 0.034693 0.066128
H102  H     H_    0.059338 0.824767 0.822532 0.086715
O63   O     O_3   0.594620 0.750952 0.682630 -0.652644
C91   C     C_3   0.617418 0.705126 0.685145 0.213827
H103  H     H_    0.615903 0.689902 0.561964 0.049192
H104  H     H_    0.597186 0.681030 0.766471 0.058345
H105  H     H_    0.660550 0.707689 0.732031 0.103877
O64   O     O_3   0.534985 0.268255 0.951230 -0.652361
C92   C     C_3   0.567065 0.309111 0.938626 0.196591
H106  H     H_    0.610795 0.299855 0.946330 0.069176
H107  H     H_    0.559198 0.335885 0.031707 0.065508
H108  H     H_    0.556496 0.325491 0.819398 0.086547
O65   O     O_3   0.213758 0.450584 0.113103 -0.650091
C93   C     C_3   0.235213 0.427178 0.984142 0.135743
H109  H     H_    0.275893 0.441175 0.965126 0.036273
H110  H     H_    0.207918 0.428870 0.872689 0.044822
H111  H     H_    0.240197 0.389107 0.015380 0.091930
O66   O     O_3   0.205624 0.537277 0.487373 -0.630922
C94   C     C_3   0.214015 0.571182 0.611857 0.274661
H112  H     H_    0.248056 0.561401 0.700783 -0.014081
H113  H     H_    0.176511 0.576947 0.672054 0.032489
H114  H     H_    0.224471 0.605543 0.558034 0.051953
O67   O     O_3   0.731736 0.976196 0.043924 -0.619638
C95   C     C_3   0.775910 0.983834 0.951572 0.140402
H115  H     H_    0.812388 0.994431 0.030181 0.037422
H116  H     H_    0.767190 0.010681 0.855806 0.083585
H117  H     H_    0.785511 0.949929 0.893094 0.082106
O68   O     O_3   0.725722 0.038419 0.579134 -0.680270
C96   C     C_3   0.695224 0.078844 0.614169 0.233729
H118  H     H_    0.708121 0.090846 0.738134 0.015511
H119  H     H_    0.650704 0.073204 0.604480 0.042628
H120  H     H_    0.704121 0.107841 0.531030 0.062693

loop_
_geom_bond_atom_site_label_1
_geom_bond_atom_site_label_2
_ccdc_geom_bond_type
C77   S1    S    
O11   P11   S    
O35   P16   S    
C51   C55   D    
C90   H100  S    
Ba2   O2    S    
C37   C57   D    
C64   H84   S    
C39   C59   D    
C92   H106  S    
C40   C60   D    
C71   H15   S    
C65   O6    S    
O38   P6    D    
C81   O33   S    
Ba3   O15   S    
C77   H25   S    
C83   O35   S    
Ba1   O21   S    
C79   H27   S    
C23   P3    S    
Ba3   O23   S    
C7    C11   A    
O34   P13   S    
C76   H24   S    
C66   C70   S    
O32   P4    S    
C30   N10   A    
C69   H9    S    
O14   P5    S    
C71   H11   S    
O42   P10   S    
C19   H51   S    
C73   H21   S    
Ba2   P6    S    
O23   P16   S    
O27   P16   D    
O24   P15   S    
C11   H47   S    
C67   H91   S    
Ba4   P4    S    
O21   P14   S    
N9    N15   A    
C3    H71   S    
C13   C17   A    
C77   H29   S    
C95   H115  S    
C1    H69   S    
C15   C19   A    
C74   C78   S    
O9    P9    S    
C43   P12   S    
C12   C16   A    
Ba4   O19   S    
C76   H20   S    
C93   H109  S    
C75   O31   S    
C91   H103  S    
C42   C58   S    
Ba2   O14   S    
O16   P7    S    
O20   P4    S    
O39   P7    D    
S2    O53   D    
O10   P10   S    
C78   H26   S    
O22   P13   S    
O64   C92   S    
C92   H108  S    
C89   H99   S    
C46   C62   S    
C51   H59   S    
C72   H8    S    
C73   O29   S    
C15   C31   S    
C89   H98   S    
C7    C87   A    
O36   P15   S    
C96   H118  S    
C27   N3    A    
Ba1   O14   S    
C48   O12   S    
Ba3   O3    S    
C62   H82   S    
C78   H30   S    
C33   C53   S    
C2    O62   S    
C65   H89   S    
C75   C79   S    
C36   C56   S    
C75   H23   S    
C82   H34   S    
C47   H75   S    
O44   P12   S    
C59   H67   S    
C2    H38   S    
O31   P3    S    
C48   H80   S    
C41   P10   S    
C70   H6    S    
C95   H117  S    
C29   N5    A    
C90   H101  S    
Ba3   P3    S    
Ba1   P1    S    
C27   C55   S    
N4    N6    A    
C34   H54   S    
C5    C9    A    
C62   H42   S    
C81   H1    S    
C68   O68   S    
C91   H105  S    
N10   N16   A    
C4    O64   S    
Ba3   O20   S    
C83   H3    S    
C23   C87   A    
Ba1   O18   S    
C38   C58   D    
O28   P15   D    
C1    C81   S    
C41   C49   A    
C34   C54   S    
C49   H57   S    
C12   H48   S    
O17   P1    S    
C76   O32   S    
C79   S3    S    
O40   P8    D    
C8    C12   A    
C30   N6    A    
S3    O57   S    
S4    O58   D    
C74   H18   S    
C4    H72   S    
Ba1   O37   S    
C4    C84   S    
C32   N12   A    
Ba2   O42   S    
C69   H13   S    
C96   H120  S    
C5    P14   S    
C18   H50   S    
C71   H7    S    
C47   C63   S    
C7    P16   S    
C73   H17   S    
S1    O50   D    
O26   P13   D    
O3    P3    D    
C26   N14   A    
O1    P1    D    
C94   H113  S    
C52   H60   S    
Ba4   P8    S    
Ba3   Ba4   S    
O5    P5    S    
C17   C21   A    
C31   N7    A    
C14   C18   A    
C8    C88   A    
C20   C24   A    
C2    C82   S    
C9    C13   A    
C65   O65   S    
C61   H85   S    
C80   S4    S    
C91   H104  S    
C25   N1    A    
C1    O61   S    
C33   C37   A    
O29   P1    S    
C36   C40   A    
C46   O10   S    
O60   H96   S    
O57   H95   S    
O19   P3    S    
Ba4   O44   S    
C6    C10   A    
N11   N13   A    
C39   P8    S    
C72   H12   S    
C84   H4    S    
O18   P2    S    
S3    O55   D    
S4    O60   S    
C76   C80   S    
Ba1   O1    S    
C27   N15   A    
C66   O5    S    
C11   C15   A    
C82   O34   S    
Ba4   O16   S    
O37   P5    D    
C43   C59   S    
C44   C60   S    
Ba2   O22   S    
C95   H116  S    
O62   C90   S    
C22   P2    S    
O48   P12   D    
C66   H90   S    
C3    C83   S    
C10   H46   S    
C63   H83   S    
C46   H74   S    
C93   H110  S    
C58   H66   S    
C65   C69   S    
C86   H62   S    
O45   P9    D    
C3    H39   S    
C31   N11   A    
C70   H10   S    
C1    H37   S    
C29   N9    A    
O67   C95   S    
C72   H16   S    
C32   N8    A    
S2    O54   S    
O13   P6    S    
C74   H22   S    
C13   C29   S    
Ba1   P5    S    
N1    N7    A    
C92   H107  S    
C93   H111  S    
C36   H56   S    
C50   H58   S    
C5    C85   A    
O63   C91   S    
C49   C53   D    
C38   P5    S    
Ba3   O16   S    
O12   P12   S    
C52   C56   D    
C63   H43   S    
C24   P4    S    
C45   H73   S    
O61   C89   S    
C57   H65   S    
C73   C77   S    
C22   C86   A    
C80   H28   S    
C35   C55   S    
C42   C50   A    
Ba4   O40   S    
C46   H78   S    
O43   P11   S    
C68   H92   S    
O41   P9    S    
N12   N14   A    
C67   O8    S    
C25   C53   S    
Ba1   O13   S    
C28   C56   S    
O66   C94   S    
C40   P7    S    
C74   O30   S    
C21   C85   A    
C6    P13   S    
C17   H49   S    
C28   N16   A    
C63   H87   S    
C45   H77   S    
C20   H52   S    
C41   C57   S    
C16   C32   S    
O51   H93   S    
C6    C86   A    
Ba2   O13   S    
O65   C93   S    
C18   C22   A    
C45   O9    S    
S2    O52   D    
C79   H31   S    
C66   O66   S    
Ba3   O39   S    
O33   P14   S    
C94   H112  S    
C44   P11   S    
C10   C14   A    
C81   H33   S    
C68   C72   S    
C83   H35   S    
C69   H5    S    
C62   H86   S    
C45   C61   S    
C26   N2    A    
S3    O56   D    
S4    O59   D    
C34   C38   A    
Ba2   P2    S    
C89   H97   S    
Ba4   O4    S    
Ba1   Ba2   S    
O7    P7    S    
C82   H2    S    
C2    H70   S    
C96   H119  S    
C4    H40   S    
Ba2   O17   S    
C19   C23   A    
S1    O49   D    
C48   C64   S    
C42   P9    S    
Ba4   O15   S    
C60   H68   S    
O25   P14   D    
C68   O7    S    
C84   O36   S    
C28   N4    A    
C16   C20   A    
C64   H44   S    
C90   H102  S    
C24   C88   A    
C3    O63   S    
Ba2   O38   S    
C35   C39   A    
Ba4   O24   S    
C37   P6    S    
C64   H88   S    
C8    P15   S    
C9    H45   S    
C21   P1    S    
C87   H63   S    
O46   P10   D    
C70   H14   S    
C85   H61   S    
O54   H94   S    
C88   H64   S    
Ba3   O43   S    
C14   C30   S    
Ba1   O41   S    
O2    P2    D    
C25   N13   A    
O6    P6    S    
C43   C51   A    
C50   C54   D    
C44   C52   A    
C61   H81   S    
O47   P11   D    
C80   H32   S    
C75   H19   S    
C78   S2    S    
O68   C96   S    
C47   H79   S    
C84   H36   S    
C48   H76   S    
C67   C71   S    
C26   C54   S    
O15   P8    S    
N2    N8    A    
S1    O51   S    
Ba3   P7    S    
N3    N5    A    
O4    P4    D    
C47   O11   S    
C94   H114  S    
C35   H55   S    
O8    P8    S    
C33   H53   S    
O30   P2    S    
C61   H41   S    
C67   O67   S    
