data_mof_unit_22164.cif
_audit_creation_date              2012-12-10T19:12:17-0500
_audit_creation_method            fapswitch 2.2
_symmetry_space_group_name_H-M    P1
_symmetry_Int_Tables_number       1
_space_group_crystal_system       triclinic
_cell_length_a                    7.779987
_cell_length_b                    9.095401
_cell_length_c                    17.113873
_cell_angle_alpha                 89.70891
_cell_angle_beta                  94.280244
_cell_angle_gamma                 90.019394
_cell_volume                      1207.62042785

loop_
_atom_site_label
_atom_site_type_symbol
_atom_type_description
_atom_site_fract_x
_atom_site_fract_y
_atom_site_fract_z
_atom_type_partial_charge
C1    C     C_R   0.499961 0.220000 0.500009 0.855238
C2    C     C_R   0.500013 0.779996 0.499900 0.833442
C3    C     C_R   0.521790 0.496319 0.651204 0.843205
C4    C     C_R   0.478101 0.503531 0.348577 0.810404
C5    C     C_R   0.535638 0.493397 0.736939 -0.104386
C6    C     C_R   0.464848 0.509360 0.262490 -0.136411
C7    C     C_R   0.409043 0.564860 0.776713 -0.336211
C8    C     C_R   0.612232 0.480134 0.222709 -0.311350
C9    C     C_R   0.416521 0.563106 0.857925 -0.167707
C10   C     C_R   0.605274 0.485746 0.141485 -0.155846
C11   C     C_R   0.550981 0.488119 0.900971 0.341180
C12   C     C_R   0.449246 0.519813 0.097981 0.321252
C13   C     C_R   0.677704 0.417142 0.861439 -0.313840
C14   C     C_R   0.302456 0.549847 0.137342 -0.290229
C15   C     C_R   0.673216 0.419803 0.778948 0.425048
C16   C     C_R   0.308893 0.546953 0.219254 0.418229
C17   C     C_1   0.499944 0.065359 0.499946 -0.173900
C18   C     C_1   0.499991 0.934631 0.499900 -0.180086
Cu1   Cu    Cu3+1 0.669080 0.500010 0.500000 1.009923
Cu2   Cu    Cu3+1 0.330920 0.499990 0.500000 0.998804
H1    H     H_    0.733652 0.452121 0.254403 0.207945
H2    H     H_    0.303918 0.622568 0.744740 0.181293
H3    H     H_    0.722211 0.463297 0.113107 0.171243
H4    H     H_    0.316820 0.620082 0.886672 0.162188
H5    H     H_    0.776546 0.356460 0.895709 0.136674
H6    H     H_    0.182094 0.575802 0.104176 0.152867
N1    N     N_1   0.076820 0.499970 0.500010 -0.059882
N2    N     N_1   0.923180 0.500030 0.499990 -0.054865
N3    N     N_2   0.564095 0.480662 0.983931 -0.248095
N4    N     N_2   0.434562 0.526465 0.014964 -0.250683
O1    O     O_R   0.642760 0.288400 0.500000 -0.568236
O2    O     O_R   0.357240 0.711600 0.500000 -0.583900
O3    O     O_R   0.357190 0.288380 0.500000 -0.580680
O4    O     O_R   0.642810 0.711620 0.500000 -0.582373
O5    O     O_R   0.658410 0.498660 0.613920 -0.543217
O6    O     O_R   0.341590 0.501340 0.386080 -0.535776
O7    O     O_R   0.372840 0.498650 0.613930 -0.606895
O8    O     O_R   0.627160 0.501350 0.386070 -0.594442
O9    O     O_3   0.786480 0.337710 0.737349 -0.573211
C19   C     C_3   0.958168 0.346121 0.770360 0.053018
H7    H     H_    0.977654 0.268675 0.820673 0.148423
H8    H     H_    0.993428 0.459993 0.789427 0.138851
C20   C     C_3   0.078823 0.299830 0.709016 -0.702351
H9    H     H_    0.045465 0.187454 0.687762 0.242594
H10   H     H_    0.067337 0.377640 0.658732 0.261103
H11   H     H_    0.213980 0.299504 0.734857 0.201286
O10   O     O_3   0.160317 0.574405 0.256304 -0.565483
C21   C     C_3   0.141012 0.728001 0.263404 0.063786
H12   H     H_    0.120736 0.781052 0.204627 0.136332
H13   H     H_    0.256057 0.777584 0.296032 0.131682
C22   C     C_3   0.984354 0.759677 0.308750 -0.718685
H14   H     H_    0.000656 0.708194 0.367799 0.261734
H15   H     H_    0.969160 0.880233 0.315496 0.191945
H16   H     H_    0.866334 0.715176 0.276834 0.239054

loop_
_geom_bond_atom_site_label_1
_geom_bond_atom_site_label_2
_ccdc_geom_bond_type
C20   H9    S    
C4    O6    A    
C9    H4    S    
N3    N4    D    
Cu2   O7    S    
Cu1   O8    S    
C10   H3    S    
C2    C18   S    
C7    H2    S    
C9    C11   A    
C1    C17   S    
Cu1   Cu2   S    
C3    O5    A    
C22   H16   S    
Cu1   O1    S    
C2    O4    A    
C21   H13   S    
C17   C18   T    
C1    O3    A    
C20   H10   S    
Cu1   O5    S    
C14   H6    S    
Cu1   N2    S    
C11   C13   A    
C15   O9    S    
C10   C12   A    
Cu2   O3    S    
C16   O10   S    
C8    C10   A    
C21   H12   S    
Cu2   N1    S    
C12   C14   A    
C8    H1    S    
C5    C7    A    
C13   C15   A    
C21   C22   S    
C20   H11   S    
C14   C16   A    
C5    C15   A    
C4    C6    S    
O9    C19   S    
C6    C16   A    
C22   H14   S    
Cu2   O6    S    
C3    C5    S    
C1    O1    A    
C11   N3    S    
C13   H5    S    
C2    O2    A    
Cu2   O2    S    
N1    N2    T    
C7    C9    A    
C19   H7    S    
C6    C8    A    
C12   N4    S    
C19   C20   S    
O10   C21   S    
C3    O7    A    
C4    O8    A    
C19   H8    S    
C22   H15   S    
Cu1   O4    S    
