data_mof_unit_51710.cif
_audit_creation_date              2012-12-10T17:51:32-0500
_audit_creation_method            fapswitch 2.2
_symmetry_space_group_name_H-M    P1
_symmetry_Int_Tables_number       1
_space_group_crystal_system       triclinic
_cell_length_a                    9.880496
_cell_length_b                    10.685106
_cell_length_c                    16.791049
_cell_angle_alpha                 91.555554
_cell_angle_beta                  85.504024
_cell_angle_gamma                 89.928174
_cell_volume                      1766.58434956

loop_
_atom_site_label
_atom_site_type_symbol
_atom_type_description
_atom_site_fract_x
_atom_site_fract_y
_atom_site_fract_z
_atom_type_partial_charge
C1    C     C_R   0.500248 0.738916 0.490673 0.878253
C2    C     C_R   0.529481 0.522588 0.261464 -0.038909
C3    C     C_R   0.249360 0.889064 0.454505 0.030964
C4    C     C_R   0.481423 0.506349 0.653106 0.844271
C5    C     C_R   0.125670 0.945790 0.481127 -0.172883
C6    C     C_R   0.124037 0.052998 0.529966 -0.181001
C7    C     C_R   0.245801 0.111502 0.544806 -0.162571
C8    C     C_R   0.371434 0.059918 0.513168 0.085043
C9    C     C_R   0.373081 0.938179 0.480610 0.046870
C10   C     C_R   0.498114 0.871829 0.478740 -0.121703
C11   C     C_R   0.620656 0.935395 0.483822 -0.217016
C12   C     C_R   0.345127 0.543371 0.782532 -0.209454
C13   C     C_R   0.619713 0.062413 0.496477 -0.215699
C14   C     C_R   0.496006 0.125729 0.510674 -0.124307
C15   C     C_R   0.846600 0.669484 0.601245 -0.182092
C16   C     C_R   0.498699 0.260022 0.506374 0.885180
C17   C     C_R   0.910373 0.752999 0.650983 -0.221863
C18   C     C_R   0.050234 0.751500 0.651891 -0.180440
C19   C     C_R   0.126991 0.666986 0.602723 -0.153571
C20   C     C_R   0.065823 0.582879 0.550297 0.157182
C21   C     C_R   0.921136 0.583445 0.549918 0.171661
C22   C     C_R   0.934870 0.420190 0.452203 -0.131472
C23   C     C_R   0.418953 0.551218 0.140251 -0.146037
C24   C     C_R   0.078219 0.420372 0.452121 -0.114975
C25   C     C_R   0.518563 0.501587 0.346864 0.866933
C26   C     C_R   0.470565 0.545198 0.737193 -0.028834
C27   C     C_R   0.583168 0.600820 0.769483 -0.217605
C28   C     C_R   0.571750 0.652092 0.846083 -0.157974
C29   C     C_R   0.449548 0.641578 0.893633 0.207154
C30   C     C_R   0.334990 0.590746 0.860856 -0.173639
C31   C     C_1   0.247030 0.795385 0.390961 0.181068
C32   C     C_R   0.413343 0.514686 0.218909 -0.186716
C33   C     C_R   0.652645 0.563390 0.223723 -0.200428
C34   C     C_R   0.658231 0.599857 0.144872 -0.180781
C35   C     C_R   0.540937 0.596655 0.103415 0.203930
C36   C     C_2   0.446078 0.661754 0.980183 -0.242519
C37   C     C_2   0.552682 0.626300 0.018959 -0.230264
H1    H     H_    0.680322 0.606179 0.735595 0.157150
H2    H     H_    0.850566 0.818205 0.689756 0.151344
H3    H     H_    0.317721 0.481817 0.246669 0.159119
H4    H     H_    0.099689 0.815691 0.691233 0.153178
H5    H     H_    0.233475 0.670128 0.607951 0.207190
H6    H     H_    0.137604 0.355349 0.413098 0.150776
H7    H     H_    0.743626 0.570411 0.255589 0.160156
H8    H     H_    0.649483 0.603588 0.986669 0.148403
H9    H     H_    0.239790 0.582334 0.896953 0.123792
H10   H     H_    0.328561 0.540983 0.108270 0.124704
H11   H     H_    0.255944 0.503877 0.757942 0.154881
H12   H     H_    0.753833 0.631425 0.116317 0.127153
H13   H     H_    0.349015 0.683104 0.012612 0.147356
H14   H     H_    0.660304 0.695404 0.869033 0.126387
H15   H     H_    0.717502 0.886926 0.479522 0.171283
H16   H     H_    0.030519 0.907574 0.463566 0.139629
H17   H     H_    0.028293 0.094522 0.552840 0.145269
H18   H     H_    0.240512 0.195929 0.581941 0.162165
H19   H     H_    0.716245 0.110588 0.495659 0.167575
H20   H     H_    0.886115 0.355043 0.413238 0.146058
H21   H     H_    0.738916 0.674183 0.605691 0.206764
N1    N     N_R   0.857140 0.501200 0.500750 -0.119684
N2    N     N_R   0.142740 0.501280 0.500770 -0.121600
N3    N     N_1   0.243976 0.721167 0.339689 -0.203893
O1    O     O_R   0.385310 0.683220 0.500000 -0.636701
O2    O     O_R   0.614640 0.683250 0.500010 -0.642564
O3    O     O_R   0.371780 0.500010 0.615800 -0.643381
O4    O     O_R   0.601110 0.500030 0.615800 -0.631841
O5    O     O_R   0.385360 0.316750 0.499990 -0.623409
O6    O     O_R   0.614690 0.316780 0.500000 -0.615655
O7    O     O_R   0.398890 0.499970 0.384200 -0.604694
O8    O     O_R   0.628220 0.499990 0.384200 -0.620079
Zn1   Zn    Zn3+2 0.346870 0.499980 0.499990 0.936470
Zn2   Zn    Zn3+2 0.653130 0.500020 0.500010 0.930943

loop_
_geom_bond_atom_site_label_1
_geom_bond_atom_site_label_2
_ccdc_geom_bond_type
C8    C9    A    
C4    C26   S    
C6    C7    A    
C3    C9    A    
O3    Zn1   S    
C20   N2    A    
C29   C30   A    
C9    C10   A    
C31   N3    T    
C23   C35   A    
C19   C20   A    
C19   H5    S    
N2    Zn1   S    
C12   H11   S    
C13   H19   S    
C23   C32   A    
C22   H20   S    
C33   C34   A    
C36   H13   S    
C7    C8    A    
O7    Zn1   S    
C16   O6    A    
C13   C14   A    
C1    O1    A    
C3    C31   S    
C11   C13   A    
C29   C36   S    
C26   C27   A    
O5    Zn1   S    
C25   O7    A    
C6    H17   S    
C7    H18   S    
C1    O2    A    
C2    C33   A    
C5    H16   S    
C36   C37   D    
C35   C37   S    
O2    Zn2   S    
C21   N1    A    
C2    C25   S    
O6    Zn2   S    
C32   H3    S    
C5    C6    A    
C34   C35   A    
C15   H21   S    
C14   C16   S    
C18   H4    S    
C25   O8    A    
C10   C11   A    
C11   H15   S    
C27   H1    S    
C37   H8    S    
C3    C5    A    
O8    Zn2   S    
C15   C21   A    
C16   O5    A    
C20   C21   A    
O1    Zn1   S    
C17   C18   A    
C18   C19   A    
C17   H2    S    
C22   C24   A    
N1    Zn2   S    
C22   N1    A    
C15   C17   A    
C24   H6    S    
C4    O3    A    
C4    O4    A    
C28   C29   A    
C34   H12   S    
C8    C14   A    
C24   N2    A    
C12   C30   A    
C28   H14   S    
O4    Zn2   S    
C33   H7    S    
C30   H9    S    
C1    C10   S    
C12   C26   A    
C2    C32   A    
C27   C28   A    
C23   H10   S    
