data_mof_unit_20472.cif
_audit_creation_date              2012-12-11T17:01:31-0500
_audit_creation_method            fapswitch 2.2
_symmetry_space_group_name_H-M    P1
_symmetry_Int_Tables_number       1
_space_group_crystal_system       triclinic
_cell_length_a                    15.059402
_cell_length_b                    14.957822
_cell_length_c                    14.929381
_cell_angle_alpha                 109.814123
_cell_angle_beta                  109.142441
_cell_angle_gamma                 109.559966
_cell_volume                      2585.42545948

loop_
_atom_site_label
_atom_site_type_symbol
_atom_type_description
_atom_site_fract_x
_atom_site_fract_y
_atom_site_fract_z
_atom_type_partial_charge
C1    C     C_R   0.945131 0.761028 0.037833 -0.174812
C2    C     C_R   0.227057 0.766243 0.316018 -0.123381
C3    C     C_R   0.966465 0.407471 0.222989 -0.127138
C4    C     C_R   0.792789 0.197491 0.699454 -0.144356
C5    C     C_R   0.295622 0.589424 0.989088 -0.186312
C6    C     C_R   0.036322 0.499593 0.327035 0.071835
C7    C     C_R   0.293251 0.497533 0.921322 -0.058424
C8    C     C_R   0.327958 0.788879 0.324469 0.061506
C9    C     C_R   0.932776 0.133086 0.935060 0.079381
C10   C     C_3   0.474293 0.396875 0.840212 -0.413712
C11   C     C_3   0.368240 0.392679 0.829815 -0.391831
C12   C     C_R   0.699320 0.134023 0.695574 0.074535
C13   C     C_3   0.553968 0.495036 0.046891 -0.402526
C14   C     C_3   0.576244 0.602459 0.948127 -0.400296
C15   C     C_3   0.571395 0.498054 0.951347 0.395252
C16   C     C_R   0.099163 0.589119 0.793585 -0.119639
C17   C     C_3   0.392676 0.497575 0.926815 0.388553
C18   C     C_3   0.452642 0.501575 0.036035 -0.389184
C19   C     C_3   0.467899 0.599006 0.927508 -0.393530
C20   C     C_R   0.623380 0.971409 0.516172 0.155045
C21   C     C_R   0.622131 0.018678 0.613940 0.033264
C22   C     C_R   0.533323 0.958507 0.621881 -0.201257
C23   C     C_R   0.066632 0.498244 0.698628 0.055055
C24   C     C_R   0.437478 0.870942 0.526228 -0.196043
C25   C     C_R   0.431755 0.844457 0.424001 0.039010
C26   C     C_R   0.529029 0.885005 0.422044 0.152022
C27   C     C_3   0.557208 0.926958 0.351538 -0.513108
C28   C     C_R   0.684511 0.406490 0.945283 -0.135768
C29   C     C_3   0.660405 0.021618 0.454548 -0.511785
C30   C     C_R   0.149008 0.599733 0.530839 0.163464
C31   C     C_R   0.085073 0.501122 0.430046 0.039039
C32   C     C_R   0.059346 0.402382 0.431967 -0.198979
C33   C     C_R   0.069500 0.401807 0.528240 -0.199088
C34   C     C_R   0.673081 0.498464 0.971249 -0.000408
C35   C     C_R   0.105794 0.500076 0.621675 0.035087
C36   C     C_R   0.160428 0.599211 0.626039 0.128230
C37   C     C_3   0.160099 0.704886 0.672390 -0.466274
C38   C     C_3   0.146729 0.704951 0.568261 -0.533927
C39   C     C_R   0.867027 0.896869 0.974960 0.148699
C40   C     C_R   0.001047 0.407411 0.697930 -0.115374
C41   C     C_R   0.918873 0.852108 0.927254 0.055068
C42   C     C_R   0.926050 0.867317 0.841425 -0.163143
C43   C     C_R   0.915337 0.952917 0.830566 -0.194002
C44   C     C_R   0.893897 0.018746 0.903427 0.030041
C45   C     C_R   0.052249 0.590875 0.315376 -0.142089
C46   C     C_R   0.854095 0.979264 0.962762 0.154983
C47   C     C_3   0.876483 0.037877 0.078355 -0.513502
C48   C     C_3   0.890220 0.947230 0.091289 -0.510990
C49   C     C_R   0.774611 0.590244 0.046672 -0.141743
C50   C     C_R   0.699798 0.196396 0.788882 -0.131566
C51   C     C_R   0.042764 0.768852 0.952472 0.188694
C52   C     C_R   0.967702 0.796248 0.969869 0.020197
C53   C     C_1   0.143864 0.300805 0.799436 -0.044095
C54   C     C_R   0.203266 0.407201 0.896931 0.087229
C55   C     C_R   0.313683 0.751341 0.220286 -0.121811
C56   C     C_R   0.903412 0.197079 0.994752 -0.159451
C57   C     C_R   0.996743 0.195071 0.906171 -0.117736
H1    H     H_    0.897789 0.776650 0.074028 0.116365
H2    H     H_    0.319208 0.383696 0.749727 0.163385
H3    H     H_    0.827689 0.169725 0.650898 0.105141
H4    H     H_    0.322921 0.318562 0.832103 0.173775
H5    H     H_    0.544881 0.417699 0.046122 0.163914
H6    H     H_    0.398725 0.432207 0.039629 0.161126
H7    H     H_    0.642015 0.678251 0.027241 0.146122
H8    H     H_    0.593389 0.607910 0.882513 0.159130
H9    H     H_    0.427538 0.594509 0.847643 0.161045
H10   H     H_    0.486353 0.677154 0.993150 0.147510
H11   H     H_    0.625199 0.564915 0.127471 0.155740
H12   H     H_    0.373338 0.753018 0.195288 0.105303
H13   H     H_    0.476405 0.579191 0.107217 0.159763
H14   H     H_    0.531990 0.986607 0.698112 0.126534
H15   H     H_    0.169694 0.668158 0.831996 0.141824
H16   H     H_    0.365683 0.834069 0.531768 0.123278
H17   H     H_    0.572033 0.871675 0.294140 0.186130
H18   H     H_    0.501702 0.953393 0.313682 0.209686
H19   H     H_    0.734493 0.020779 0.456298 0.189566
H20   H     H_    0.663291 0.101648 0.474899 0.205860
H21   H     H_    0.018870 0.324301 0.357603 0.128129
H22   H     H_    0.035108 0.323392 0.523989 0.129993
H23   H     H_    0.838913 0.169598 0.012933 0.102933
H24   H     H_    0.087697 0.695894 0.681440 0.219427
H25   H     H_    0.239715 0.772854 0.745502 0.212581
H26   H     H_    0.066456 0.695115 0.520347 0.201534
H27   H     H_    0.622622 0.320895 0.898049 0.094244
H28   H     H_    0.218159 0.773528 0.581336 0.189750
H29   H     H_    0.951547 0.822607 0.791690 0.159388
H30   H     H_    0.936898 0.975103 0.775777 0.134011
H31   H     H_    0.953386 0.118427 0.132297 0.203517
H32   H     H_    0.804077 0.039017 0.081465 0.188000
H33   H     H_    0.974754 0.976080 0.151946 0.207975
H34   H     H_    0.021181 0.164837 0.847514 0.111839
H35   H     H_    0.825357 0.896240 0.101524 0.182721
H36   H     H_    0.973540 0.322518 0.644135 0.096673
H37   H     H_    0.792590 0.671162 0.100061 0.081560
H38   H     H_    0.647438 0.167613 0.819817 0.085624
H39   H     H_    0.094360 0.674372 0.378619 0.100324
H40   H     H_    0.213203 0.797538 0.383270 0.088231
H41   H     H_    0.934990 0.322194 0.200469 0.093827
H42   H     H_    0.349908 0.674176 0.018000 0.109130
H43   H     H_    0.468562 0.318681 0.833433 0.151721
H44   H     H_    0.483869 0.401986 0.770979 0.166545
I1    I     I_    0.165529 0.863551 0.930488 -0.533196
N1    N     N_R   0.995640 0.706130 0.053910 -0.049149
N2    N     N_R   0.054010 0.556790 0.847890 -0.040455
N3    N     N_R   0.789940 0.443190 0.997130 -0.036756
N4    N     N_R   0.997630 0.443170 0.791110 -0.044003
N5    N     N_R   0.846320 0.556810 0.053910 -0.033942
N6    N     N_R   0.791080 0.293860 0.847890 -0.039331
N7    N     N_R   0.052880 0.706130 0.997130 -0.056420
N8    N     N_R   0.002370 0.556830 0.208890 -0.041685
N9    N     N_1   0.095989 0.215612 0.720633 -0.110819
N10   N     N_R   0.153680 0.443190 0.946090 -0.056018
N11   N     N_R   0.208920 0.706140 0.152110 -0.035724
N12   N     N_R   0.947120 0.293870 0.002870 -0.039743
N13   N     N_R   0.004360 0.293870 0.946090 -0.043289
N14   N     N_R   0.151690 0.706140 0.208890 -0.040816
N15   N     N_R   0.945990 0.443210 0.152110 -0.042079
N16   N     N_R   0.210060 0.556810 0.002870 -0.043179
N17   N     N_R   0.848310 0.293860 0.791110 -0.039880
Ni1   Ni    Ni4+2 0.999010 0.630300 0.130220 0.213091
Ni2   Ni    Ni4+2 0.000990 0.369700 0.869780 0.216850
Ni3   Ni    Ni4+2 0.130280 0.630280 0.000000 0.231235
Ni4   Ni    Ni4+2 0.869720 0.369720 0.000000 0.205526

loop_
_geom_bond_atom_site_label_1
_geom_bond_atom_site_label_2
_ccdc_geom_bond_type
C18   H13   S    
N13   Ni2   S    
C6    C45   A    
C38   H26   S    
C27   C29   S    
C29   H20   S    
C41   C42   A    
C22   H14   S    
N1    Ni1   S    
C16   H15   S    
C40   H36   S    
C3    C6    A    
N2    N4    A    
N12   N13   A    
C39   C41   A    
C29   H19   S    
C53   C54   S    
C51   I1    S    
N3    N5    A    
C30   C38   S    
C26   C27   S    
C13   C18   S    
C36   C37   S    
C57   N13   A    
C10   C15   S    
C30   C31   A    
C27   H18   S    
N7    Ni3   S    
C28   H27   S    
C23   C40   A    
N3    Ni4   S    
C19   H9    S    
N16   Ni3   S    
C3    N15   A    
C17   C19   S    
C2    N14   A    
C16   N2    A    
N11   Ni3   S    
C5    H42   S    
C2    H40   S    
C7    C17   S    
C4    N17   A    
C19   H10   S    
C42   H29   S    
C49   H37   S    
C4    C12   A    
C27   H17   S    
C57   H34   S    
C1    N1    A    
C41   C52   S    
N11   N14   A    
C53   N9    T    
C6    C31   S    
C28   C34   A    
C51   N7    A    
C48   H33   S    
C21   C22   A    
C50   N6    A    
C8    C25   S    
C47   H32   S    
N6    N17   A    
C37   H24   S    
C11   H2    S    
C8    C55   A    
C44   C46   A    
C20   C29   S    
N17   Ni2   S    
C13   H5    S    
C38   H28   S    
C51   C52   A    
C47   C48   S    
C24   C25   A    
C49   N5    A    
N8    Ni1   S    
C5    C7    A    
C45   N8    A    
C33   H22   S    
C55   N11   A    
C25   C26   A    
C12   C21   S    
N14   Ni1   S    
C35   C36   A    
C43   C44   A    
C37   C38   S    
C31   C32   A    
C28   N3    A    
C14   H7    S    
C4    H3    S    
C17   C18   S    
C54   N10   A    
C9    C56   A    
C10   H43   S    
C9    C44   S    
C55   H12   S    
C39   C46   A    
N12   Ni4   S    
C16   C23   A    
C23   C35   S    
C13   C15   S    
C22   C24   A    
C37   H25   S    
C42   C43   A    
N6    Ni4   S    
N5    Ni1   S    
C40   N4    A    
C18   H6    S    
C46   C47   S    
C11   C17   S    
C34   C49   A    
C15   C34   S    
C14   C19   S    
C10   H44   S    
C2    C8    A    
C11   H4    S    
C12   C50   A    
C56   H23   S    
C30   C36   A    
C5    N16   A    
N1    N7    A    
C43   H30   S    
C47   H31   S    
N15   Ni4   S    
N10   Ni2   S    
C1    H1    S    
C32   C33   A    
N10   N16   A    
C3    H41   S    
C20   C26   A    
N8    N15   A    
N4    Ni2   S    
C33   C35   A    
C14   H8    S    
C9    C57   A    
C24   H16   S    
C1    C52   A    
C10   C11   S    
C32   H21   S    
N2    Ni3   S    
C20   C21   A    
C48   H35   S    
C56   N12   A    
C14   C15   S    
C7    C54   A    
C45   H39   S    
C50   H38   S    
C39   C48   S    
C13   H11   S    
