data_mof_unit_22040.cif
_audit_creation_date              2012-12-10T17:35:49-0500
_audit_creation_method            fapswitch 2.2
_symmetry_space_group_name_H-M    P1
_symmetry_Int_Tables_number       1
_space_group_crystal_system       triclinic
_cell_length_a                    10.489042
_cell_length_b                    11.980522
_cell_length_c                    12.84996
_cell_angle_alpha                 93.187491
_cell_angle_beta                  89.903634
_cell_angle_gamma                 86.836254
_cell_volume                      1609.80616186

loop_
_atom_site_label
_atom_site_type_symbol
_atom_type_description
_atom_site_fract_x
_atom_site_fract_y
_atom_site_fract_z
_atom_type_partial_charge
C1    C     C_R   0.491002 0.521418 0.700465 0.882890
C2    C     C_R   0.614446 0.161422 0.581814 0.009610
C3    C     C_R   0.557485 0.857868 0.536413 -0.057254
C4    C     C_R   0.442990 0.142107 0.463165 -0.061933
C5    C     C_R   0.547204 0.975481 0.531794 0.098529
C6    C     C_R   0.452850 0.024581 0.468255 0.098026
C7    C     C_R   0.742674 0.500761 0.499760 0.872215
C8    C     C_R   0.257290 0.499133 0.499828 0.836447
C9    C     C_3   0.959107 0.463281 0.590366 -0.190265
C10   C     C_3   0.040742 0.536134 0.409125 -0.193244
C11   C     C_3   0.038357 0.566842 0.579592 -0.177746
C12   C     C_R   0.494882 0.478133 0.299784 0.879841
C13   C     C_3   0.961512 0.432667 0.419941 -0.173648
C14   C     C_3   0.122390 0.497665 0.499986 0.041226
C15   C     C_3   0.877542 0.501918 0.499486 0.032105
C16   C     C_3   0.045905 0.393974 0.510763 -0.139495
C17   C     C_3   0.954047 0.605567 0.488627 -0.136873
C18   C     C_R   0.481873 0.464957 0.188515 -0.131277
C19   C     C_R   0.472988 0.533308 0.811932 -0.123035
C20   C     C_R   0.463411 0.652314 0.970862 0.099949
C21   C     C_R   0.535870 0.357153 0.028849 0.092999
C22   C     C_R   0.479983 0.638889 0.863078 -0.297118
C23   C     C_R   0.454567 0.438540 0.869147 0.030047
C24   C     C_R   0.538957 0.369394 0.136797 -0.274954
C25   C     C_3   0.321668 0.633554 0.183520 -0.385664
C26   C     C_3   0.199340 0.643367 0.117740 -0.374345
C27   C     C_3   0.108633 0.738899 0.161091 -0.918569
C28   C     C_3   0.383737 0.337598 0.826655 -0.385813
C29   C     C_3   0.252529 0.371677 0.781748 -0.314098
C30   C     C_3   0.183177 0.268541 0.743405 -0.895784
C31   C     C_3   0.470694 0.770038 0.020672 -0.418731
C32   C     C_3   0.586253 0.780359 0.093270 -0.335341
C33   C     C_3   0.588321 0.897780 0.145631 -0.890010
C34   C     C_R   0.425400 0.553163 0.133145 0.034113
C35   C     C_3   0.610452 0.256861 0.975554 -0.421654
C36   C     C_3   0.726996 0.293228 0.916108 -0.322752
C37   C     C_3   0.805046 0.192292 0.867400 -0.917048
C38   C     C_R   0.481744 0.447927 0.974559 0.050455
C39   C     C_R   0.455541 0.553672 0.027175 0.074823
C40   C     C_R   0.370813 0.955243 0.412007 -0.349460
C41   C     C_R   0.628162 0.044962 0.589123 -0.344815
C42   C     C_R   0.383852 0.838889 0.419963 0.021987
H1    H     H_    0.074774 0.620874 0.644694 0.129962
H2    H     H_    0.629227 0.818549 0.584959 0.121889
H3    H     H_    0.677071 0.215009 0.625795 0.138087
H4    H     H_    0.318840 0.785773 0.378367 0.128792
H5    H     H_    0.296805 0.990560 0.362979 0.142619
H6    H     H_    0.701355 0.009691 0.638928 0.141799
H7    H     H_    0.085217 0.728052 0.244009 0.259369
H8    H     H_    0.153086 0.820343 0.155047 0.257357
H9    H     H_    0.018747 0.740517 0.115535 0.255312
H10   H     H_    0.220732 0.659160 0.035514 0.231691
H11   H     H_    0.150393 0.563389 0.118010 0.218752
H12   H     H_    0.925232 0.378480 0.354895 0.132265
H13   H     H_    0.290244 0.602812 0.258768 0.198185
H14   H     H_    0.360248 0.716098 0.202995 0.211258
H15   H     H_    0.236487 0.223755 0.677395 0.270000
H16   H     H_    0.173352 0.210836 0.807325 0.255799
H17   H     H_    0.086136 0.294279 0.716651 0.241742
H18   H     H_    0.193660 0.418901 0.843291 0.207004
H19   H     H_    0.262031 0.426523 0.715854 0.226536
H20   H     H_    0.442732 0.284884 0.769191 0.228431
H21   H     H_    0.362724 0.283353 0.891179 0.187800
H22   H     H_    0.594352 0.961120 0.086116 0.255110
H23   H     H_    0.919999 0.434492 0.663991 0.126826
H24   H     H_    0.500744 0.916854 0.193533 0.265168
H25   H     H_    0.672727 0.902909 0.197371 0.254456
H26   H     H_    0.584594 0.719396 0.155047 0.235758
H27   H     H_    0.675606 0.762356 0.047260 0.219108
H28   H     H_    0.480366 0.831261 0.959522 0.192418
H29   H     H_    0.380230 0.798058 0.060503 0.206594
H30   H     H_    0.841908 0.137615 0.928903 0.264576
H31   H     H_    0.745365 0.143232 0.812353 0.257446
H32   H     H_    0.887380 0.221312 0.823843 0.249802
H33   H     H_    0.696177 0.347987 0.852838 0.224069
H34   H     H_    0.079024 0.563723 0.334991 0.132605
H35   H     H_    0.788840 0.341194 0.970431 0.220865
H36   H     H_    0.645196 0.197989 0.034597 0.197234
H37   H     H_    0.550009 0.207011 0.922565 0.188745
H38   H     H_    0.087580 0.307736 0.518989 0.143958
H39   H     H_    0.912520 0.691716 0.479473 0.139885
H40   H     H_    0.586856 0.304929 0.180825 0.166552
H41   H     H_    0.495164 0.711233 0.818505 0.170778
H42   H     H_    0.371574 0.181394 0.414303 0.125349
N1    N     N_R   0.523490 0.207800 0.519350 -0.099540
N2    N     N_R   0.476510 0.792200 0.480650 -0.096864
O1    O     O_R   0.506270 0.421700 0.658830 -0.625652
O2    O     O_R   0.493730 0.578300 0.341170 -0.629236
O3    O     O_R   0.491200 0.609310 0.646410 -0.623148
O4    O     O_R   0.508800 0.390690 0.353590 -0.618509
O5    O     O_R   0.693580 0.406210 0.506230 -0.623297
O6    O     O_R   0.306420 0.593790 0.493770 -0.631106
O7    O     O_R   0.678510 0.593830 0.493810 -0.626173
O8    O     O_R   0.321490 0.406170 0.506190 -0.629908
Zn1   Zn    Zn3+2 0.510060 0.374730 0.508290 0.928732
Zn2   Zn    Zn3+2 0.489940 0.625270 0.491710 0.928415

loop_
_geom_bond_atom_site_label_1
_geom_bond_atom_site_label_2
_ccdc_geom_bond_type
C1    O1    A    
C40   H5    S    
C37   H32   S    
O2    Zn2   S    
C35   C36   S    
C25   H14   S    
O4    Zn1   S    
C26   C27   S    
C18   C24   A    
C12   O4    A    
C36   C37   S    
C9    C16   S    
C36   H35   S    
C38   C39   A    
C11   C14   S    
C10   C17   S    
C30   H15   S    
O6    Zn2   S    
C2    N1    A    
C42   H4    S    
C35   H37   S    
C24   H40   S    
C37   H31   S    
C10   H34   S    
C31   H28   S    
C11   C17   S    
C21   C38   A    
O1    Zn1   S    
C8    C14   S    
C11   H1    S    
C42   N2    A    
C17   H39   S    
C27   H8    S    
C25   C34   S    
C32   H26   S    
C40   C42   A    
C3    N2    A    
C27   H9    S    
C33   H24   S    
C2    H3    S    
C7    O7    A    
C29   H19   S    
C3    H2    S    
C1    C19   S    
C12   O2    A    
C34   C39   A    
C19   C22   A    
C8    O8    A    
C4    C6    A    
C10   C14   S    
C20   C39   A    
C4    N1    A    
C25   C26   S    
C16   H38   S    
C19   C23   A    
C29   C30   S    
C36   H33   S    
C26   H10   S    
C18   C34   A    
C31   C32   S    
C4    H42   S    
C29   H18   S    
C7    O5    A    
C30   H17   S    
C23   C28   S    
C9    C11   S    
N2    Zn2   S    
C8    O6    A    
C20   C22   A    
O7    Zn2   S    
C13   C15   S    
C14   C16   S    
C37   H30   S    
C21   C24   A    
C26   H11   S    
C33   H25   S    
C13   H12   S    
C15   C17   S    
C5    C41   A    
C28   C29   S    
C1    O3    A    
C25   H13   S    
C3    C5    A    
C10   C13   S    
C32   H27   S    
C21   C35   S    
C23   C38   A    
C35   H36   S    
C22   H41   S    
O3    Zn2   S    
C9    C15   S    
C32   C33   S    
N1    Zn1   S    
C5    C6    A    
C33   H22   S    
C30   H16   S    
C7    C15   S    
C41   H6    S    
C6    C40   A    
O8    Zn1   S    
C9    H23   S    
O5    Zn1   S    
C28   H21   S    
C13   C16   S    
C12   C18   S    
C2    C41   A    
C27   H7    S    
C31   H29   S    
C20   C31   S    
C28   H20   S    
