data_mof_unit_21883.cif
_audit_creation_date              2012-12-10T19:30:41-0500
_audit_creation_method            fapswitch 2.2
_symmetry_space_group_name_H-M    P1
_symmetry_Int_Tables_number       1
_space_group_crystal_system       triclinic
_cell_length_a                    14.949227
_cell_length_b                    15.769712
_cell_length_c                    16.712946
_cell_angle_alpha                 89.940416
_cell_angle_beta                  84.985459
_cell_angle_gamma                 89.917285
_cell_volume                      3924.90764693

loop_
_atom_site_label
_atom_site_type_symbol
_atom_type_description
_atom_site_fract_x
_atom_site_fract_y
_atom_site_fract_z
_atom_type_partial_charge
C1    C     C_R   0.499947 0.662369 0.500002 0.906277
C2    C     C_3   0.585196 0.027229 0.498155 0.067043
C3    C     C_3   0.499655 0.916488 0.499651 -0.123931
C4    C     C_3   0.500274 0.083611 0.499149 -0.124938
C5    C     C_1   0.499673 0.825941 0.499847 0.036200
C6    C     C_1   0.500273 0.174132 0.499115 0.035394
C7    C     C_3   0.033885 0.568715 0.458357 -0.408064
C8    C     C_3   0.965849 0.430135 0.541991 -0.409322
C9    C     C_3   0.977387 0.496073 0.425120 0.539125
C10   C     C_3   0.022332 0.502752 0.575337 0.541304
C11   C     C_3   0.966800 0.569621 0.534426 0.148142
C12   C     C_R   0.500056 0.337646 0.499883 0.899858
C13   C     C_3   0.033004 0.429239 0.465983 0.148916
C14   C     C_3   0.909853 0.498618 0.500606 -0.095598
C15   C     C_3   0.089987 0.500295 0.499844 -0.098305
C16   C     C_R   0.487549 0.500328 0.653746 0.908080
C17   C     C_R   0.512515 0.495165 0.346517 0.907278
C18   C     C_1   0.810023 0.499422 0.500214 0.123272
C19   C     C_1   0.189921 0.500061 0.500005 0.124916
C20   C     C_R   0.480184 0.493721 0.740642 -0.142034
C21   C     C_R   0.520699 0.465355 0.263902 -0.122415
C22   C     C_R   0.554755 0.513062 0.782156 -0.260222
C23   C     C_3   0.462736 0.027708 0.433740 0.468609
C24   C     C_R   0.449177 0.420355 0.235619 -0.276863
C25   C     C_R   0.553403 0.496862 0.864093 0.186589
C26   C     C_R   0.457020 0.385638 0.158918 0.188520
C27   C     C_R   0.475350 0.461777 0.904531 -0.018855
C28   C     C_R   0.536477 0.400033 0.108886 0.025810
C29   C     C_R   0.398825 0.446074 0.863702 0.461052
C30   C     C_R   0.611951 0.436449 0.139797 0.470939
C31   C     C_R   0.401377 0.462838 0.781771 -0.296707
C32   C     C_R   0.602875 0.470764 0.217160 -0.315937
C33   C     C_2   0.471142 0.444690 0.990182 -0.131428
C34   C     C_3   0.537264 0.972451 0.565250 0.444551
C35   C     C_2   0.533812 0.398020 0.021991 -0.150678
C36   C     C_3   0.006874 0.293373 0.402100 -0.759436
C37   C     C_3   0.992948 0.705419 0.598377 -0.754386
C38   C     C_3   0.318696 0.327871 0.899466 0.106625
C39   C     C_3   0.233838 0.295203 0.946181 -0.815315
C40   C     C_3   0.758961 0.398191 0.117813 0.093557
C41   C     C_3   0.840213 0.400288 0.056356 -0.848163
C42   C     C_3   0.398872 0.252251 0.114851 -0.795457
C43   C     C_3   0.712342 0.482378 0.881684 -0.755903
C44   C     C_3   0.635952 0.999550 0.304925 -0.756014
C45   C     C_3   0.547789 0.972315 0.433029 0.085846
C46   C     C_3   0.364249 0.002052 0.694711 -0.778221
C47   C     C_3   0.393307 0.000122 0.317908 0.107302
C48   C     C_3   0.373594 0.038554 0.237848 -0.864290
C49   C     C_3   0.604680 0.998582 0.682660 0.085707
C50   C     C_3   0.621471 0.958862 0.762939 -0.834409
C51   C     C_3   0.747473 0.000529 0.494196 -0.783218
C52   C     C_3   0.252886 0.001131 0.503800 -0.800937
C53   C     C_3   0.021127 0.503271 0.289433 0.102422
C54   C     C_3   0.992862 0.480150 0.207007 -0.837673
C55   C     C_3   0.977029 0.494072 0.710631 0.091332
C56   C     C_3   0.452067 0.027820 0.565871 0.064521
C57   C     C_3   0.004214 0.514800 0.793966 -0.806357
C58   C     C_1   0.499791 0.750939 0.499949 -0.181961
C59   C     C_1   0.500208 0.249114 0.499418 -0.183268
C60   C     C_3   0.414820 0.972904 0.500735 0.062719
H1    H     H_    0.614153 0.540681 0.750727 0.173789
H2    H     H_    0.043012 0.240238 0.369893 0.229109
H3    H     H_    0.962892 0.323953 0.360304 0.276962
H4    H     H_    0.965121 0.267377 0.454697 0.232647
H5    H     H_    0.881006 0.673475 0.539668 0.231634
H6    H     H_    0.956828 0.758618 0.630498 0.229255
H7    H     H_    0.034841 0.731333 0.545823 0.231962
H8    H     H_    0.036786 0.674793 0.640269 0.278963
H9    H     H_    0.377598 0.299401 0.926144 0.148319
H10   H     H_    0.318268 0.306772 0.835885 0.131251
H11   H     H_    0.173675 0.320424 0.919556 0.254130
H12   H     H_    0.387286 0.411217 0.273458 0.169705
H13   H     H_    0.232513 0.224844 0.943962 0.198116
H14   H     H_    0.232050 0.315711 0.009860 0.263010
H15   H     H_    0.737205 0.330819 0.125651 0.131301
H16   H     H_    0.779899 0.422757 0.175709 0.158157
H17   H     H_    0.863951 0.466552 0.046894 0.260574
H18   H     H_    0.895358 0.361703 0.078133 0.212023
H19   H     H_    0.822338 0.373678 0.998372 0.249023
H20   H     H_    0.322068 0.352537 0.162680 0.223909
H21   H     H_    0.338493 0.223412 0.091781 0.236019
H22   H     H_    0.412845 0.219347 0.171233 0.249954
H23   H     H_    0.060741 0.625457 0.425110 0.159629
H24   H     H_    0.456383 0.243083 0.068981 0.242931
H25   H     H_    0.632351 0.586965 0.911626 0.231895
H26   H     H_    0.762323 0.499831 0.924121 0.263124
H27   H     H_    0.737845 0.504575 0.820856 0.211357
H28   H     H_    0.705510 0.412255 0.881425 0.234725
H29   H     H_    0.641561 0.890040 0.374656 0.233410
H30   H     H_    0.667359 0.966201 0.251119 0.224205
H31   H     H_    0.687992 0.038002 0.331360 0.257990
H32   H     H_    0.583179 0.042413 0.285381 0.273219
H33   H     H_    0.356289 0.109188 0.622434 0.236422
H34   H     H_    0.938867 0.373277 0.574968 0.157577
H35   H     H_    0.335539 0.036222 0.749070 0.226704
H36   H     H_    0.416953 0.958297 0.712809 0.277454
H37   H     H_    0.310247 0.964435 0.670404 0.240117
H38   H     H_    0.329954 0.973039 0.346540 0.174937
H39   H     H_    0.442484 0.947816 0.305512 0.166901
H40   H     H_    0.436343 0.064103 0.206383 0.253715
H41   H     H_    0.345995 0.989238 0.199535 0.212469
H42   H     H_    0.323701 0.090599 0.247650 0.262630
H43   H     H_    0.555328 0.050856 0.694324 0.163968
H44   H     H_    0.668872 0.025942 0.656345 0.146821
H45   H     H_    0.659068 0.503575 0.239782 0.175883
H46   H     H_    0.672554 0.907757 0.753889 0.261575
H47   H     H_    0.646361 0.007812 0.803224 0.203249
H48   H     H_    0.558181 0.931642 0.791822 0.254568
H49   H     H_    0.680806 0.109563 0.537535 0.215315
H50   H     H_    0.812302 0.034070 0.497495 0.227286
H51   H     H_    0.751767 0.964105 0.437445 0.250882
H52   H     H_    0.737809 0.955698 0.545392 0.257147
H53   H     H_    0.312015 0.889810 0.541455 0.240937
H54   H     H_    0.190803 0.970010 0.486714 0.234435
H55   H     H_    0.269782 0.053841 0.461098 0.270847
H56   H     H_    0.342774 0.449110 0.750213 0.186075
H57   H     H_    0.239295 0.027600 0.565052 0.240172
H58   H     H_    0.080241 0.463425 0.300977 0.158584
H59   H     H_    0.040776 0.571294 0.288607 0.140754
H60   H     H_    0.934814 0.519741 0.192755 0.262771
H61   H     H_    0.049486 0.491130 0.160613 0.212856
H62   H     H_    0.973446 0.412225 0.205989 0.251438
H63   H     H_    0.957248 0.426126 0.709880 0.136853
H64   H     H_    0.918163 0.534409 0.699426 0.158067
H65   H     H_    0.023578 0.582623 0.796947 0.257103
H66   H     H_    0.946988 0.502598 0.839478 0.201058
H67   H     H_    0.589580 0.370821 0.984587 0.176466
H68   H     H_    0.061980 0.474614 0.807822 0.265764
H69   H     H_    0.416281 0.473255 0.027925 0.184338
H70   H     H_    0.118875 0.325437 0.460688 0.230603
N1    N     N_1   0.731990 0.500000 0.499970 -0.096623
N2    N     N_2   0.324618 0.939202 0.501658 -0.306201
N3    N     N_1   0.268010 0.500000 0.500030 -0.096321
N4    N     N_2   0.071292 0.353390 0.428131 -0.312311
N5    N     N_2   0.928511 0.645467 0.572275 -0.311500
N6    N     N_2   0.382937 0.341482 0.130309 -0.295584
N7    N     N_2   0.627131 0.521988 0.907073 -0.267694
N8    N     N_2   0.597811 0.937869 0.362251 -0.309560
N9    N     N_2   0.401264 0.062862 0.635994 -0.309089
N10   N     N_2   0.675139 0.061837 0.496209 -0.288877
O1    O     O_R   0.425540 0.623220 0.500000 -0.608688
O2    O     O_3   0.689994 0.448978 0.090269 -0.601330
O3    O     O_3   0.425981 0.064189 0.366646 -0.606493
O4    O     O_3   0.574137 0.935228 0.631950 -0.598537
O5    O     O_3   0.948214 0.489497 0.347335 -0.614928
O6    O     O_3   0.050511 0.509120 0.653537 -0.608823
O7    O     O_R   0.574460 0.376780 0.500000 -0.610998
O8    O     O_R   0.574480 0.623220 0.499990 -0.608204
O9    O     O_R   0.425520 0.376780 0.500010 -0.612750
O10   O     O_R   0.416730 0.500010 0.615810 -0.609697
O11   O     O_R   0.583270 0.499990 0.384190 -0.610352
O12   O     O_R   0.565670 0.500010 0.615790 -0.620090
O13   O     O_R   0.434330 0.499990 0.384210 -0.620746
O14   O     O_3   0.320274 0.417183 0.904431 -0.605214
Zn1   Zn    Zn3+2 0.400550 0.500000 0.500010 0.975962
Zn2   Zn    Zn3+2 0.599450 0.500000 0.499990 0.976013

loop_
_geom_bond_atom_site_label_1
_geom_bond_atom_site_label_2
_ccdc_geom_bond_type
C7    H23   S    
C38   H10   S    
C34   C56   S    
C51   H52   S    
C23   C45   S    
H53   N2    S    
C40   O2    S    
C27   C29   A    
C13   N4    S    
C14   C18   S    
C25   N7    S    
C42   H22   S    
C17   O13   A    
C60   N2    S    
C49   H44   S    
H70   N4    S    
C53   C54   S    
C27   C33   S    
C15   C19   S    
C34   O4    S    
C8    C13   S    
C47   H38   S    
C5    C58   T    
H49   N10   S    
C43   H28   S    
C12   O7    A    
N1    Zn2   S    
C24   C26   A    
C54   H60   S    
C10   C15   S    
C57   H65   S    
C38   C39   S    
C11   C14   S    
C48   H41   S    
C49   O4    S    
C47   O3    S    
C47   H39   S    
C42   N6    S    
C39   H14   S    
C9    O5    S    
C9    C13   S    
C30   O2    S    
C12   C59   S    
C46   H35   S    
O12   Zn2   S    
C28   C35   S    
C22   C25   A    
C8    C14   S    
C37   N5    S    
O13   Zn1   S    
C36   H3    S    
C44   H32   S    
C3    C60   S    
C2    C34   S    
C7    C15   S    
C54   H62   S    
C38   H9    S    
C4    C56   S    
C50   H48   S    
C23   O3    S    
C18   N1    T    
C17   O11   A    
C42   H21   S    
C57   H68   S    
C36   H2    S    
C12   O9    A    
C7    C11   S    
C7    C9    S    
C2    C45   S    
C23   C60   S    
C48   H40   S    
C21   C32   A    
C55   H63   S    
C52   N2    S    
C42   H24   S    
C37   H8    S    
C4    C6    S    
C57   H66   S    
C56   N9    S    
C53   H58   S    
O1    Zn1   S    
C55   O6    S    
C3    C34   S    
C3    C45   S    
C17   C21   S    
C56   C60   S    
C2    C4    S    
C9    C14   S    
C41   H19   S    
H33   N9    S    
C30   C32   A    
C11   N5    S    
C47   C48   S    
C16   C20   S    
C48   H42   S    
C37   H6    S    
C53   O5    S    
C8    H34   S    
C16   O12   A    
O11   Zn2   S    
C35   H67   S    
O7    Zn2   S    
H5    N5    S    
C44   H31   S    
C10   O6    S    
C40   C41   S    
C46   H37   S    
C20   C22   A    
C49   C50   S    
C51   H50   S    
C32   H45   S    
C55   C57   S    
C50   H47   S    
C19   N3    T    
C38   O14   S    
C26   N6    S    
H25   N7    S    
C31   H56   S    
C41   H18   S    
C44   H30   S    
C24   H12   S    
C52   H55   S    
C33   H69   S    
C4    C23   S    
C55   H64   S    
C51   H51   S    
N3    Zn1   S    
C43   H26   S    
C6    C59   T    
C54   H61   S    
C3    C5    S    
C36   N4    S    
C49   H43   S    
C53   H59   S    
C52   H54   S    
C25   C27   A    
C26   C28   A    
H20   N6    S    
C40   H15   S    
O10   Zn1   S    
C2    N10   S    
C13   C15   S    
O9    Zn1   S    
C43   H27   S    
C29   C31   A    
C1    C58   S    
C51   N10   S    
C22   H1    S    
C41   H17   S    
C44   N8    S    
C37   H7    S    
C28   C30   A    
C45   N8    S    
C33   C35   D    
C43   N7    S    
C39   H13   S    
C1    O1    A    
C10   C11   S    
C40   H16   S    
C46   H36   S    
C8    C10   S    
H29   N8    S    
C21   C24   A    
C50   H46   S    
C39   H11   S    
C29   O14   S    
C1    O8    A    
C16   O10   A    
O8    Zn2   S    
C36   H4    S    
C52   H57   S    
C46   N9    S    
C20   C31   A    
