data_mof_unit_11676.cif
_audit_creation_date              2012-12-11T15:43:08-0500
_audit_creation_method            fapswitch 2.2
_symmetry_space_group_name_H-M    P1
_symmetry_Int_Tables_number       1
_space_group_crystal_system       triclinic
_cell_length_a                    19.510772
_cell_length_b                    11.260418
_cell_length_c                    18.397578
_cell_angle_alpha                 90.095841
_cell_angle_beta                  89.434731
_cell_angle_gamma                 90.031541
_cell_volume                      4041.7347968

loop_
_atom_site_label
_atom_site_type_symbol
_atom_type_description
_atom_site_fract_x
_atom_site_fract_y
_atom_site_fract_z
_atom_type_partial_charge
C1    C     C_R   0.733746 0.385374 0.149709 0.540953
C2    C     C_R   0.998964 0.979656 0.038787 0.091226
C3    C     C_R   0.770115 0.506221 0.560417 0.012647
C4    C     C_R   0.730031 0.381951 0.350321 0.526837
C5    C     C_R   0.269769 0.380843 0.649733 0.537156
C6    C     C_R   0.230031 0.881951 0.350321 0.526837
C7    C     C_R   0.769769 0.880843 0.649733 0.537156
C8    C     C_R   0.530703 0.156719 0.351508 0.559804
C9    C     C_R   0.466430 0.157019 0.646165 0.564138
C10   C     C_R   0.030703 0.656719 0.351508 0.559804
C11   C     C_R   0.966430 0.657019 0.646165 0.564138
C12   C     C_R   0.728332 0.018900 0.361448 0.561000
C13   C     C_R   0.500656 0.480019 0.963394 0.095432
C14   C     C_R   0.272345 0.021936 0.638854 0.562101
C15   C     C_R   0.228332 0.518900 0.361448 0.561000
C16   C     C_R   0.772346 0.521936 0.638854 0.562102
C17   C     C_R   0.498731 0.160093 0.924158 0.008844
C18   C     C_R   0.500855 0.159593 0.076109 0.008942
C19   C     C_R   0.998729 0.660093 0.924159 0.008845
C20   C     C_R   0.000853 0.659593 0.076110 0.008942
C21   C     C_R   0.500865 0.267704 0.962037 0.047639
C22   C     C_R   0.497944 0.267381 0.038768 0.047076
C23   C     C_R   0.000863 0.767704 0.962038 0.047639
C24   C     C_R   0.498964 0.479656 0.038784 0.091234
C25   C     C_R   0.997942 0.767380 0.038770 0.047075
C26   C     C_R   0.497627 0.053420 0.037130 -0.142324
C27   C     C_R   0.502704 0.053730 0.962651 -0.142339
C28   C     C_R   0.997626 0.553420 0.037131 -0.142323
C29   C     C_R   0.002702 0.553731 0.962652 -0.142339
C30   C     C_R   0.730098 0.966740 0.905679 -0.018051
C31   C     C_R   0.269757 0.966744 0.094341 -0.018141
C32   C     C_R   0.230098 0.466741 0.905679 -0.018052
C33   C     C_R   0.769758 0.466744 0.094341 -0.018139
C34   C     C_R   0.670693 0.940752 0.946429 -0.049477
C35   C     C_R   0.329266 0.941324 0.053590 -0.049113
C36   C     C_R   0.170693 0.440754 0.946429 -0.049478
C37   C     C_R   0.266245 0.385444 0.850285 0.540679
C38   C     C_R   0.829266 0.441322 0.053590 -0.049114
C39   C     C_R   0.666168 0.969627 0.021422 -0.033917
C40   C     C_R   0.333790 0.970159 0.978633 -0.033619
C41   C     C_R   0.166168 0.469629 0.021422 -0.033917
C42   C     C_R   0.833790 0.470158 0.978633 -0.033618
C43   C     C_R   0.771350 0.072349 0.009526 0.219021
C44   C     C_R   0.228304 0.071754 0.990535 0.219208
C45   C     C_R   0.271351 0.572349 0.009527 0.219021
C46   C     C_R   0.728305 0.571754 0.990536 0.219205
C47   C     C_R   0.763861 0.065044 0.932638 -0.082313
C48   C     C_R   0.233746 0.885374 0.149709 0.540951
C49   C     C_R   0.235682 0.064555 0.067427 -0.081831
C50   C     C_R   0.263862 0.565045 0.932638 -0.082311
C51   C     C_R   0.735684 0.564556 0.067428 -0.081829
C52   C     C_3   0.639460 0.825647 0.957923 -0.171078
C53   C     C_3   0.360763 0.826514 0.041930 -0.171054
C54   C     C_3   0.139460 0.325650 0.957924 -0.171076
C55   C     C_3   0.860763 0.326512 0.041929 -0.171053
C56   C     C_3   0.636166 0.852086 0.038299 -0.202287
C57   C     C_3   0.364179 0.852928 0.961614 -0.202562
C58   C     C_3   0.136166 0.352088 0.038299 -0.202288
C59   C     C_R   0.766245 0.885443 0.850285 0.540680
C60   C     C_3   0.864178 0.352927 0.961614 -0.202561
C61   C     C_R   0.721380 0.023276 0.057121 0.004843
C62   C     C_R   0.278450 0.023154 0.942934 0.004646
C63   C     C_R   0.221380 0.523277 0.057121 0.004843
C64   C     C_R   0.778450 0.523153 0.942934 0.004646
C65   C     C_R   0.531253 0.154287 0.148063 0.534330
C66   C     C_R   0.468658 0.154468 0.852033 0.533193
C67   C     C_R   0.031253 0.654287 0.148063 0.534330
C68   C     C_R   0.968658 0.654468 0.852033 0.533194
C69   C     C_R   0.485725 0.164577 0.570566 -0.024515
C70   C     C_R   0.505016 0.376160 0.925338 -0.024904
C71   C     C_R   0.492776 0.164348 0.419044 -0.017200
C72   C     C_R   0.985725 0.664577 0.570566 -0.024514
C73   C     C_R   0.992776 0.664348 0.419044 -0.017200
C74   C     C_R   0.477643 0.060725 0.530915 -0.047935
C75   C     C_R   0.478556 0.059358 0.457073 -0.041195
C76   C     C_R   0.977643 0.560725 0.530916 -0.047935
C77   C     C_R   0.978556 0.559358 0.457073 -0.041195
C78   C     C_R   0.488088 0.273302 0.456650 0.349750
C79   C     C_R   0.486664 0.273388 0.532696 0.347483
C80   C     C_R   0.988088 0.773302 0.456650 0.349750
C81   C     C_R   0.493640 0.375449 0.076098 -0.027152
C82   C     C_R   0.986664 0.773388 0.532696 0.347483
C83   C     C_3   0.511301 0.943133 0.539181 -0.264371
C84   C     C_3   0.511120 0.937811 0.457277 -0.250460
C85   C     C_3   0.011301 0.443133 0.539181 -0.264371
C86   C     C_3   0.011120 0.437810 0.457277 -0.250461
C87   C     C_R   0.744283 0.938669 0.585340 0.026943
C88   C     C_R   0.252929 0.948019 0.413790 0.023808
C89   C     C_R   0.244283 0.438669 0.585340 0.026943
C90   C     C_R   0.752929 0.448019 0.413790 0.023808
C91   C     C_R   0.776676 0.039302 0.556237 0.014915
C92   C     C_R   0.005014 0.876161 0.925340 -0.024898
C93   C     C_R   0.206278 0.023063 0.449960 0.003848
C94   C     C_R   0.276676 0.539302 0.556237 0.014916
C95   C     C_R   0.706278 0.523063 0.449960 0.003848
C96   C     C_R   0.769953 0.066193 0.483510 -0.000937
C97   C     C_R   0.214818 0.051844 0.521932 -0.007903
C98   C     C_R   0.269953 0.566193 0.483510 -0.000937
C99   C     C_R   0.714818 0.551844 0.521932 -0.007903
C100  C     C_R   0.692071 0.901764 0.469054 -0.163928
C101  C     C_R   0.323152 0.949695 0.521305 -0.153222
C102  C     C_R   0.192071 0.401764 0.469054 -0.163928
C103  C     C_R   0.993639 0.875448 0.076099 -0.027158
C104  C     C_R   0.823152 0.449695 0.521305 -0.153222
C105  C     C_R   0.696718 0.877475 0.542706 -0.170229
C106  C     C_R   0.315505 0.924141 0.447170 -0.154069
C107  C     C_R   0.196718 0.377475 0.542706 -0.170229
C108  C     C_R   0.815505 0.424141 0.447170 -0.154069
C109  C     C_3   0.850546 0.075516 0.556159 -0.243368
C110  C     C_3   0.130189 0.011387 0.459323 -0.200803
C111  C     C_3   0.350546 0.575516 0.556159 -0.243368
C112  C     C_3   0.630189 0.511387 0.459323 -0.200802
C113  C     C_R   0.727073 0.022319 0.139628 0.582913
C114  C     C_R   0.000656 0.980019 0.963396 0.095436
C115  C     C_R   0.272890 0.022303 0.860412 0.582607
C116  C     C_R   0.227073 0.522319 0.139628 0.582913
C117  C     C_R   0.772890 0.522302 0.860412 0.582604
C118  C     C_3   0.843527 0.101221 0.476162 -0.251358
C119  C     C_3   0.139603 0.041746 0.538232 -0.230748
C120  C     C_3   0.343527 0.601221 0.476162 -0.251358
C121  C     C_3   0.639603 0.541746 0.538232 -0.230748
C122  C     C_R   0.731202 0.993650 0.438235 0.023167
C123  C     C_R   0.270115 0.006221 0.560417 0.012647
C124  C     C_R   0.231202 0.493650 0.438235 0.023167
Cr1   Cr    Cr6+3 0.772010 0.169670 0.250090 1.038163
Cr2   Cr    Cr6+3 0.383290 0.010760 0.749160 1.006211
Cr3   Cr    Cr6+3 0.116710 0.510760 0.250840 1.004395
Cr4   Cr    Cr6+3 0.883290 0.510760 0.749160 1.006211
Cr5   Cr    Cr6+3 0.227990 0.169670 0.749910 1.032148
Cr6   Cr    Cr6+3 0.272010 0.669670 0.250090 1.038164
Cr7   Cr    Cr6+3 0.727990 0.669670 0.749910 1.032144
Cr8   Cr    Cr6+3 0.615000 0.323260 0.249260 1.053841
Cr9   Cr    Cr6+3 0.385000 0.323260 0.750740 1.053959
Cr10  Cr    Cr6+3 0.115000 0.823260 0.249260 1.053839
Cr11  Cr    Cr6+3 0.885000 0.823260 0.750740 1.053959
Cr12  Cr    Cr6+3 0.616710 0.010760 0.250840 1.004395
F1    F     F_    0.491050 0.378417 0.420726 -0.630171
F2    F     F_    0.489747 0.378466 0.568663 -0.638601
F3    F     F_    0.991050 0.878417 0.420726 -0.630171
F4    F     F_    0.989747 0.878466 0.568663 -0.638601
H1    H     H_    0.495489 0.969059 0.064538 0.131630
H2    H     H_    0.476624 0.867941 0.435652 0.135236
H3    H     H_    0.063280 0.451332 0.562651 0.147423
H4    H     H_    0.976624 0.367941 0.435652 0.135236
H5    H     H_    0.662184 0.842276 0.435707 0.134480
H6    H     H_    0.367393 0.916624 0.549150 0.141212
H7    H     H_    0.162184 0.342276 0.435707 0.134480
H8    H     H_    0.867393 0.416624 0.549150 0.141212
H9    H     H_    0.669376 0.801615 0.563842 0.133628
H10   H     H_    0.355041 0.875808 0.418233 0.122139
H11   H     H_    0.169376 0.301615 0.563842 0.133628
H12   H     H_    0.505516 0.969587 0.934851 0.131672
H13   H     H_    0.855041 0.375808 0.418233 0.122139
H14   H     H_    0.886486 0.001435 0.566122 0.245173
H15   H     H_    0.112114 0.918733 0.451799 0.214725
H16   H     H_    0.386486 0.501435 0.566122 0.245173
H17   H     H_    0.612114 0.418733 0.451799 0.214725
H18   H     H_    0.859442 0.156565 0.589381 0.139413
H19   H     H_    0.101659 0.080336 0.428789 0.166178
H20   H     H_    0.359442 0.656565 0.589381 0.139413
H21   H     H_    0.601659 0.580336 0.428789 0.166179
H22   H     H_    0.850335 0.195837 0.463268 0.129886
H23   H     H_    0.995487 0.469059 0.064539 0.131630
H24   H     H_    0.115218 0.127126 0.553701 0.136775
H25   H     H_    0.350336 0.695837 0.463268 0.129886
H26   H     H_    0.615218 0.627126 0.553701 0.136775
H27   H     H_    0.873818 0.039398 0.441274 0.216632
H28   H     H_    0.126763 0.966126 0.574756 0.204310
H29   H     H_    0.373818 0.539398 0.441274 0.216632
H30   H     H_    0.626763 0.466126 0.574756 0.204310
H31   H     H_    0.517211 0.383463 0.868194 0.114119
H32   H     H_    0.481244 0.382080 0.133264 0.116624
H33   H     H_    0.017209 0.883466 0.868195 0.114120
H34   H     H_    0.005514 0.469587 0.934851 0.131672
H35   H     H_    0.981243 0.882079 0.133266 0.116625
H36   H     H_    0.002698 0.063048 0.934425 0.191301
H37   H     H_    0.997699 0.062363 0.068317 0.188220
H38   H     H_    0.502696 0.563047 0.934421 0.191305
H39   H     H_    0.497698 0.562365 0.068313 0.188224
H40   H     H_    0.801436 0.103859 0.896279 0.172579
H41   H     H_    0.197935 0.103037 0.103773 0.173718
H42   H     H_    0.301437 0.603858 0.896279 0.172580
H43   H     H_    0.697938 0.603039 0.103774 0.173716
H44   H     H_    0.179086 0.261729 0.942846 0.223091
H45   H     H_    0.978289 0.374776 0.565187 0.147550
H46   H     H_    0.821131 0.262525 0.056799 0.223176
H47   H     H_    0.679086 0.761726 0.942845 0.223091
H48   H     H_    0.321132 0.762526 0.056799 0.223177
H49   H     H_    0.588756 0.817939 0.931454 0.179669
H50   H     H_    0.411398 0.819132 0.068547 0.179785
H51   H     H_    0.088756 0.317941 0.931454 0.179671
H52   H     H_    0.911397 0.319130 0.068546 0.179786
H53   H     H_    0.583525 0.855108 0.060509 0.156193
H54   H     H_    0.416868 0.856540 0.939581 0.155829
H55   H     H_    0.083524 0.355110 0.060508 0.156193
H56   H     H_    0.063395 0.435915 0.434488 0.170424
H57   H     H_    0.916868 0.356538 0.939580 0.155829
H58   H     H_    0.671751 0.796991 0.070624 0.168525
H59   H     H_    0.328854 0.797439 0.929071 0.168566
H60   H     H_    0.171750 0.296993 0.070625 0.168525
H61   H     H_    0.828853 0.297438 0.929070 0.168566
H62   H     H_    0.903117 0.038195 0.137102 0.354929
H63   H     H_    0.096330 0.036513 0.862901 0.353771
H64   H     H_    0.403118 0.538194 0.137103 0.354925
H65   H     H_    0.596337 0.536502 0.862902 0.353779
H66   H     H_    0.478289 0.874776 0.565187 0.147550
H67   H     H_    0.563395 0.935915 0.434488 0.170424
H68   H     H_    0.563280 0.951332 0.562651 0.147423
O1    O     O_R   0.787520 0.042810 0.170440 -0.440449
O2    O     O_R   0.454050 0.051210 0.669140 -0.533879
O3    O     O_R   0.045950 0.551210 0.330860 -0.541309
O4    O     O_R   0.954050 0.551210 0.669140 -0.533879
O5    O     O_R   0.681390 0.959480 0.325510 -0.507132
O6    O     O_R   0.318610 0.959480 0.674490 -0.501664
O7    O     O_R   0.181390 0.459480 0.325510 -0.507132
O8    O     O_R   0.818610 0.459480 0.674490 -0.501664
O9    O     O_3   0.667900 0.167900 0.250060 -0.316865
O10   O     O_3   0.332100 0.167900 0.749940 -0.317724
O11   O     O_3   0.167900 0.667900 0.250060 -0.316865
O12   O     O_R   0.212480 0.042810 0.829560 -0.440784
O13   O     O_3   0.832100 0.667900 0.749940 -0.317723
O14   O     O_R   0.765640 0.292100 0.175020 -0.508915
O15   O     O_R   0.234360 0.292100 0.824980 -0.509316
O16   O     O_R   0.265640 0.792100 0.175020 -0.508913
O17   O     O_R   0.734360 0.792100 0.824980 -0.509319
O18   O     O_R   0.670190 0.408840 0.168540 -0.483386
O19   O     O_R   0.329810 0.408840 0.831460 -0.484059
O20   O     O_R   0.170190 0.908840 0.168540 -0.483390
O21   O     O_R   0.829810 0.908840 0.831460 -0.484059
O22   O     O_R   0.556620 0.251410 0.175160 -0.507000
O23   O     O_R   0.287520 0.542810 0.170440 -0.440447
O24   O     O_R   0.443380 0.251410 0.824840 -0.508839
O25   O     O_R   0.056620 0.751410 0.175160 -0.507000
O26   O     O_R   0.943380 0.751410 0.824840 -0.508840
O27   O     O_R   0.545960 0.049620 0.170320 -0.530167
O28   O     O_R   0.454040 0.049620 0.829680 -0.530516
O29   O     O_R   0.045960 0.549620 0.170320 -0.530167
O30   O     O_R   0.954040 0.549620 0.829680 -0.530516
O31   O     O_R   0.681390 0.958010 0.176690 -0.503524
O32   O     O_R   0.318610 0.958010 0.823310 -0.504648
O33   O     O_R   0.181390 0.458010 0.176690 -0.503524
O34   O     O_R   0.712480 0.542810 0.829560 -0.440800
O35   O     O_R   0.818610 0.458010 0.823310 -0.504646
O36   O     O_R   0.787510 0.044390 0.330970 -0.498919
O37   O     O_R   0.212490 0.044390 0.669030 -0.512743
O38   O     O_R   0.287510 0.544390 0.330970 -0.498919
O39   O     O_R   0.712490 0.544390 0.669030 -0.512743
O40   O     O_R   0.765630 0.293570 0.323840 -0.522543
O41   O     O_R   0.234370 0.293570 0.676160 -0.527327
O42   O     O_R   0.265630 0.793570 0.323840 -0.522542
O43   O     O_R   0.734370 0.793570 0.676160 -0.527326
O44   O     O_R   0.670190 0.410420 0.329080 -0.513953
O45   O     O_R   0.556610 0.252880 0.323980 -0.444134
O46   O     O_R   0.329810 0.410420 0.670920 -0.509372
O47   O     O_R   0.170190 0.910420 0.329080 -0.513953
O48   O     O_R   0.829810 0.910420 0.670920 -0.509372
O49   O     O_2   0.863808 0.918033 0.026482 -0.332304
O50   O     O_2   0.894305 0.110207 0.969737 -0.391937
O51   O     O_3   0.886603 0.106550 0.108420 -0.559709
O52   O     O_2   0.135722 0.917330 0.973423 -0.332862
O53   O     O_2   0.105358 0.109992 0.029946 -0.392719
O54   O     O_3   0.113062 0.105134 0.891364 -0.559853
O55   O     O_2   0.363808 0.418034 0.026482 -0.332305
O56   O     O_R   0.443390 0.252880 0.676020 -0.440166
O57   O     O_2   0.394305 0.610208 0.969738 -0.391941
O58   O     O_3   0.386603 0.606550 0.108421 -0.559704
O59   O     O_2   0.635722 0.417327 0.973428 -0.332862
O60   O     O_2   0.605358 0.609990 0.029949 -0.392712
O61   O     O_3   0.613061 0.605127 0.891367 -0.559862
O62   O     O_R   0.056610 0.752880 0.323980 -0.444134
O63   O     O_R   0.943390 0.752880 0.676020 -0.440166
O64   O     O_R   0.545950 0.051210 0.330860 -0.541309
S1    S     S_3+6 0.855650 0.050682 0.029992 -0.090840
S2    S     S_3+6 0.144043 0.049948 0.969822 -0.091722
S3    S     S_3+6 0.355650 0.550683 0.029993 -0.090841
S4    S     S_3+6 0.644043 0.549945 0.969825 -0.091722

loop_
_geom_bond_atom_site_label_1
_geom_bond_atom_site_label_2
_ccdc_geom_bond_type
C3    C104  A    
C44   C49   A    
Cr9   O56   S    
C44   S2    S    
C9    O56   A    
C73   C80   A    
C27   H12   S    
C106  H10   S    
C3    C16   S    
C87   C91   A    
C7    O48   A    
C35   C53   S    
C104  H8    S    
C20   C67   S    
C18   C26   A    
C59   O21   A    
C104  C108  A    
C29   H34   S    
C72   C76   A    
Cr2   O32   S    
C85   H3    S    
Cr6   O38   S    
H63   O54   S    
C86   H4    S    
C90   C95   A    
C10   O62   A    
Cr5   O37   S    
Cr1   O14   S    
C68   O26   A    
C18   C65   S    
C98   C124  A    
C112  H21   S    
C58   H60   S    
C100  C105  A    
C101  C123  A    
C65   O22   A    
C32   C36   A    
C96   C118  S    
C28   C29   A    
C2    C103  A    
C53   H48   S    
C9    C69   S    
C41   C58   S    
C38   C42   A    
C83   H66   S    
C51   H43   S    
C95   C112  S    
C85   C86   S    
C115  O32   A    
C102  H7    S    
C10   C73   S    
C95   C99   A    
C75   C84   S    
C81   H32   S    
C20   C25   A    
C94   C98   A    
Cr4   O30   S    
Cr10  O11   S    
Cr12  O27   S    
C66   O24   A    
C94   C111  S    
C40   C62   A    
C14   O6    A    
Cr1   O36   S    
Cr4   O13   S    
Cr8   O9    S    
C34   C52   S    
C55   H46   S    
C89   C94   A    
C16   O8    A    
C4    O40   A    
C53   H50   S    
C82   F4    S    
C110  H15   S    
Cr2   O6    S    
C100  H5    S    
C86   H56   S    
C91   C96   A    
C88   C93   A    
C52   C56   S    
O57   S3    D    
Cr1   O40   S    
C7    C87   S    
C108  H13   S    
C83   C84   S    
O54   S2    S    
C12   O36   A    
Cr3   O33   S    
C120  H29   S    
C120  H25   S    
C7    O43   A    
C14   C123  S    
C2    H37   S    
Cr11  O48   S    
C26   H1    S    
Cr2   O28   S    
C111  H16   S    
C9    O2    A    
C4    C90   S    
Cr5   O15   S    
C93   C110  S    
C99   C121  S    
C14   O37   A    
C107  H11   S    
C117  O34   A    
C114  H36   S    
C121  H30   S    
C110  C119  S    
C18   C22   A    
C21   C22   A    
C57   H59   S    
O50   S1    D    
C5    C89   S    
O60   S4    D    
C36   C41   A    
C50   H42   S    
C12   O5    A    
C31   C49   A    
C102  C124  A    
C109  H18   S    
Cr11  O63   S    
Cr7   O43   S    
C109  C118  S    
C56   H58   S    
Cr6   O42   S    
C85   H45   S    
C39   C61   A    
Cr5   O41   S    
O59   S4    D    
C118  H27   S    
C30   C34   A    
C1    C33   S    
C34   C39   A    
C17   C27   A    
C74   C83   S    
C5    O41   A    
C30   C47   A    
C102  C107  A    
C76   C77   A    
C4    O44   A    
C100  C122  A    
C15   O7    A    
C15   C124  S    
C42   C60   S    
Cr1   O1    S    
C11   C72   S    
C25   C103  A    
O53   S2    D    
C20   C28   A    
Cr6   O23   S    
C44   C62   A    
C45   S3    S    
C46   C51   A    
C67   O29   A    
C17   C21   A    
C64   C117  S    
C19   C68   S    
C66   O28   A    
C111  C120  S    
Cr10  O20   S    
C5    O46   A    
C97   C119  S    
C19   C23   A    
C111  H20   S    
C22   C81   A    
C1    O18   A    
C83   H68   S    
C121  H26   S    
C6    O42   A    
Cr8   O18   S    
C11   O4    A    
C88   C106  A    
Cr7   O17   S    
Cr11  O21   S    
C39   C56   S    
C87   C105  A    
C15   O38   A    
C84   H2    S    
C58   H55   S    
C32   C50   A    
C30   C59   S    
C89   C107  A    
C24   H39   S    
C103  H35   S    
C26   C27   A    
Cr11  O26   S    
C101  H6    S    
Cr12  O64   S    
Cr8   O44   S    
C32   C37   S    
Cr10  O62   S    
C109  H14   S    
C37   O15   A    
C13   H38   S    
Cr7   O39   S    
Cr8   O45   S    
Cr4   O8    S    
C80   F3    S    
C49   H41   S    
C63   C116  S    
C117  O35   A    
C80   C82   A    
C52   H47   S    
Cr5   O10   S    
C77   C86   S    
Cr3   O29   S    
O55   S3    D    
C31   C48   S    
C116  O23   A    
Cr2   O2    S    
C54   H44   S    
C112  H17   S    
C69   C79   A    
C24   C81   A    
C67   O25   A    
C41   C63   A    
C19   C29   A    
C78   F1    S    
C93   C97   A    
C69   C74   A    
C43   C61   A    
C38   C55   S    
Cr12  O5    S    
C54   C58   S    
C16   O39   A    
Cr3   O3    S    
C101  C106  A    
C116  O33   A    
C118  H22   S    
Cr11  O13   S    
C53   C57   S    
C40   C57   S    
O61   S4    S    
C112  C121  S    
C78   C79   A    
C11   O63   A    
C65   O27   A    
Cr9   O19   S    
C54   H51   S    
Cr7   O34   S    
Cr8   O22   S    
C119  H24   S    
Cr10  O47   S    
C42   C64   A    
Cr3   O11   S    
C98   C120  S    
Cr12  O9    S    
H64   O58   S    
C92   H33   S    
C33   C51   A    
C47   H40   S    
C105  H9    S    
C59   O17   A    
C21   C70   A    
O49   S1    D    
Cr9   O10   S    
C96   C122  A    
C57   H54   S    
C43   S1    S    
C55   H52   S    
C91   C109  S    
Cr6   O16   S    
C35   C40   A    
Cr9   O24   S    
C113  O1    A    
C62   C115  S    
C8    O64   A    
C6    C88   S    
H62   O51   S    
Cr4   O4    S    
C71   C75   A    
Cr5   O12   S    
C2    C114  A    
C84   H67   S    
Cr3   O7    S    
Cr9   O46   S    
C43   C47   A    
C45   C50   A    
O52   S2    D    
C48   O20   A    
C60   H61   S    
C76   C85   S    
C48   O16   A    
Cr10  O25   S    
C45   C63   A    
C6    O47   A    
O51   S1    S    
C31   C35   A    
C52   H49   S    
C23   C25   A    
C70   H31   S    
C60   H57   S    
Cr6   O11   S    
C115  O12   A    
C46   S4    S    
C36   C54   S    
H65   O61   S    
C61   C113  S    
C90   C108  A    
C56   H53   S    
C110  H19   S    
C3    C99   A    
C10   O3    A    
C113  O31   A    
C79   F2    S    
C12   C122  S    
C74   C75   A    
C13   C24   A    
O58   S3    S    
C97   C123  A    
C13   C70   A    
Cr12  O31   S    
C46   C64   A    
C17   C66   S    
Cr4   O35   S    
C73   C77   A    
C23   C92   A    
C1    O14   A    
C33   C38   A    
C68   O30   A    
C37   O19   A    
C55   C60   S    
C92   C114  A    
C119  H28   S    
Cr7   O13   S    
C71   C78   A    
C72   C82   A    
C8    O45   A    
Cr2   O10   S    
C28   H23   S    
C8    C71   S    
Cr1   O9    S    
