data_mof_unit_67185.cif
_audit_creation_date              2012-12-11T17:48:54-0500
_audit_creation_method            fapswitch 2.2
_symmetry_space_group_name_H-M    P1
_symmetry_Int_Tables_number       1
_space_group_crystal_system       triclinic
_cell_length_a                    8.226438
_cell_length_b                    12.677123
_cell_length_c                    14.888779
_cell_angle_alpha                 96.906145
_cell_angle_beta                  97.58697
_cell_angle_gamma                 98.282209
_cell_volume                      1507.64141385

loop_
_atom_site_label
_atom_site_type_symbol
_atom_type_description
_atom_site_fract_x
_atom_site_fract_y
_atom_site_fract_z
_atom_type_partial_charge
Ba1   Ba    Ba6+2 0.843750 0.550210 0.455600 1.646624
Ba2   Ba    Ba6+2 0.346090 0.449880 0.544410 1.648805
C1    C     C_3   0.560285 0.936101 0.218396 -0.166924
C2    C     C_R   0.898629 0.435816 0.921924 -0.049997
C3    C     C_R   0.040054 0.452802 0.109631 -0.032030
C4    C     C_3   0.063813 0.772636 0.205947 0.384539
C5    C     C_R   0.881324 0.393567 0.076222 -0.049188
C6    C     C_R   0.810848 0.387363 0.985112 -0.100582
C7    C     C_R   0.108924 0.465673 0.203986 0.041962
C8    C     C_R   0.270894 0.521031 0.231931 -0.289940
C9    C     C_R   0.082561 0.532278 0.795706 0.035474
C10   C     C_R   0.151884 0.543948 0.889989 -0.044969
C11   C     C_R   0.061641 0.492705 0.952549 -0.000892
C12   C     C_3   0.506785 0.814503 0.208756 0.338714
C13   C     C_R   0.308023 0.605929 0.924032 -0.048605
C14   C     C_R   0.380982 0.609380 0.014477 -0.105067
C15   C     C_R   0.295606 0.557793 0.076982 -0.036428
C16   C     C_3   0.064235 0.809393 0.112595 -0.405621
C17   C     C_R   0.132363 0.501278 0.046549 0.018551
C18   C     C_R   0.366664 0.563789 0.169684 -0.025542
C19   C     C_R   0.922807 0.474260 0.767224 -0.277039
C20   C     C_R   0.774219 0.180177 0.533054 -0.185551
C21   C     C_R   0.424861 0.808569 0.461105 -0.271287
C22   C     C_R   0.390146 0.987022 0.432144 -0.104071
C23   C     C_3   0.414274 0.284486 0.265084 0.306930
C24   C     C_R   0.325190 0.878930 0.427105 -0.012730
C25   C     C_R   0.583207 0.847289 0.510616 0.073034
C26   C     C_R   0.649037 0.959162 0.520392 -0.047109
C27   C     C_R   0.551613 0.028942 0.477953 -0.064434
C28   C     C_3   0.312314 0.782177 0.665829 0.284954
C29   C     C_R   0.616458 0.139475 0.484437 0.031554
C30   C     C_R   0.872592 0.112917 0.573319 0.053963
C31   C     C_R   0.808908 0.003636 0.569581 -0.063007
C32   C     C_3   0.249329 0.885669 0.647057 -0.379544
C33   C     C_3   0.932514 0.214934 0.344232 0.260982
C34   C     C_3   0.374025 0.252333 0.161804 -0.401773
C35   C     C_3   0.978313 0.103361 0.329571 -0.331397
C36   C     C_3   0.763481 0.713005 0.740309 0.305731
C37   C     C_3   0.801649 0.766217 0.841344 -0.082806
C38   C     C_3   0.981931 0.824136 0.865176 -0.365701
C39   C     C_3   0.764958 0.687603 0.908792 -0.487363
C40   C     C_3   0.614894 0.971863 0.131190 -0.394315
C41   C     C_3   0.196481 0.256998 0.877405 -0.342236
C42   C     C_3   0.074513 0.189310 0.798227 0.354123
C43   C     C_3   0.974002 0.098306 0.835484 -0.323548
C44   C     C_3   0.554610 0.166172 0.754162 0.855639
C45   C     C_3   0.533646 0.063282 0.797528 -0.340337
C46   C     C_R   0.827970 0.430426 0.829210 0.040267
F1    F     F_    0.708106 0.179959 0.726116 -0.818135
H1    H     H_    0.460199 0.797862 0.273237 -0.043134
H2    H     H_    0.869409 0.675561 0.720199 0.008694
H3    H     H_    0.650854 0.650873 0.729238 0.047814
H4    H     H_    0.661709 0.961530 0.277187 0.108063
H5    H     H_    0.718787 0.827685 0.850503 0.126156
H6    H     H_    0.405128 0.789580 0.150080 -0.016276
H7    H     H_    0.453589 0.976143 0.233991 0.086951
H8    H     H_    0.300903 0.305350 0.290965 0.019309
H9    H     H_    0.514138 0.355957 0.279672 0.060733
H10   H     H_    0.272099 0.182126 0.144892 0.125261
H11   H     H_    0.334247 0.320267 0.128810 0.061692
H12   H     H_    0.218382 0.928771 0.710164 0.135273
H13   H     H_    0.485769 0.230721 0.134224 0.116179
H14   H     H_    0.076437 0.741137 0.061106 0.081228
H15   H     H_    0.991325 0.243582 0.771270 0.088415
H16   H     H_    0.059334 0.051917 0.871998 0.086670
H17   H     H_    0.898668 0.132134 0.884894 0.094314
H18   H     H_    0.891152 0.043275 0.778875 0.144436
H19   H     H_    0.458200 0.158693 0.693387 0.072447
H20   H     H_    0.620206 0.072581 0.862658 0.096601
H21   H     H_    0.559769 0.995087 0.750601 0.077410
H22   H     H_    0.956521 0.707932 0.202021 0.115731
H23   H     H_    0.344185 0.939290 0.620132 0.067468
H24   H     H_    0.405904 0.045758 0.813985 0.084653
H25   H     H_    0.807787 0.351578 0.119760 0.101487
H26   H     H_    0.686348 0.343624 0.965580 0.108333
H27   H     H_    0.503832 0.655563 0.035156 0.091298
H28   H     H_    0.376018 0.652833 0.881280 0.089291
H29   H     H_    0.325268 0.528119 0.303067 0.072327
H30   H     H_    0.867949 0.467921 0.696228 0.075402
H31   H     H_    0.311020 0.037417 0.401517 0.099675
H32   H     H_    0.887234 0.955046 0.603952 0.094287
H33   H     H_    0.823920 0.264591 0.536181 0.046249
H34   H     H_    0.135923 0.866937 0.596007 0.151410
H35   H     H_    0.179123 0.739055 0.223617 -0.095330
H36   H     H_    0.374396 0.723810 0.453908 0.067292
H37   H     H_    0.946860 0.839379 0.092046 0.127992
H38   H     H_    0.169421 0.875740 0.115009 0.107482
H39   H     H_    0.444336 0.802505 0.696643 0.029673
H40   H     H_    0.299845 0.728150 0.600070 0.020259
H41   H     H_    0.069321 0.765567 0.871905 0.127085
H42   H     H_    0.014353 0.872163 0.810716 0.145287
H43   H     H_    0.998539 0.878826 0.930922 0.106118
H44   H     H_    0.647454 0.632370 0.883678 0.147892
H45   H     H_    0.799667 0.207702 0.350876 -0.004125
H46   H     H_    0.866266 0.640519 0.920036 0.132218
H47   H     H_    0.752828 0.732508 0.975564 0.137875
H48   H     H_    0.724617 0.935957 0.115048 0.150046
H49   H     H_    0.512089 0.947242 0.072737 0.108798
H50   H     H_    0.648994 0.060933 0.140991 0.130133
H51   H     H_    0.130538 0.282812 0.934546 0.063255
H52   H     H_    0.291779 0.210228 0.904115 0.141133
H53   H     H_    0.256840 0.329919 0.853771 0.159334
H54   H     H_    0.009465 0.258287 0.408470 0.067084
H55   H     H_    0.908942 0.057683 0.264445 0.135423
H56   H     H_    0.949992 0.060218 0.387385 0.094491
H57   H     H_    0.112247 0.109996 0.324436 0.129352
O1    O     O_2   0.827880 0.435260 0.277750 -0.467889
O2    O     O_2   0.206434 0.118949 0.562449 -0.498889
O3    O     O_3   0.163293 0.144067 0.732562 -0.618187
O4    O     O_3   0.100280 0.438960 0.391170 -0.495716
O5    O     O_3   0.587780 0.631850 0.546230 -0.495865
O6    O     O_2   0.332590 0.233690 0.456160 -0.467359
O7    O     O_3   0.466261 0.197719 0.304789 -0.654135
O8    O     O_2   0.496453 0.451044 0.825826 -0.509642
O9    O     O_3   0.538414 0.251860 0.819612 -0.638061
O10   O     O_3   0.625580 0.634130 0.333250 -0.459726
O11   O     O_2   0.710773 0.563559 0.174201 -0.498343
O12   O     O_3   0.736050 0.795582 0.688842 -0.669492
O13   O     O_3   0.957385 0.263134 0.266466 -0.640988
O14   O     O_3   0.639930 0.759666 0.193754 -0.589602
O15   O     O_2   0.857130 0.766340 0.543890 -0.457501
O16   O     O_3   0.056550 0.691050 0.379010 -0.480651
O17   O     O_2   0.989044 0.882779 0.437744 -0.487111
O18   O     O_3   0.049815 0.860219 0.270169 -0.600247
O19   O     O_2   0.361830 0.564780 0.722310 -0.481736
O20   O     O_3   0.089430 0.561130 0.608830 -0.478551
O21   O     O_3   0.564130 0.365960 0.666760 -0.449285
O22   O     O_3   0.224680 0.737202 0.730002 -0.647796
O23   O     O_3   0.601940 0.368240 0.453770 -0.478458
O24   O     O_3   0.133170 0.309040 0.621000 -0.473339
P1    P     P_3+3 0.998730 0.403530 0.291970 0.972265
P2    P     P_3+3 0.687380 0.751030 0.571310 0.962499
P3    P     P_3+3 0.105851 0.829277 0.380200 0.960449
P4    P     P_3+3 0.190990 0.596560 0.708040 0.975772
P5    P     P_3+3 0.090430 0.169827 0.622300 0.951487
P6    P     P_3+3 0.584448 0.627241 0.214960 0.952846
P7    P     P_3+3 0.506931 0.233168 0.423871 0.930332
P8    P     P_3+3 0.607781 0.375634 0.785357 0.994632

loop_
_geom_bond_atom_site_label_1
_geom_bond_atom_site_label_2
_ccdc_geom_bond_type
O19   P4    D    
C1    C40   S    
C32   H23   S    
O3    P5    S    
C33   O13   S    
O24   P5    S    
C4    O18   S    
C2    C6    A    
C34   H10   S    
Ba2   O23   S    
C8    H29   S    
C5    C6    A    
C37   C39   S    
C12   H1    S    
C42   H15   S    
C35   H56   S    
C44   F1    S    
Ba2   O6    S    
Ba2   P4    S    
C20   C30   A    
C44   O9    S    
O17   P3    D    
C20   H33   S    
C26   C27   A    
C33   C35   S    
C22   C24   A    
C33   H54   S    
C40   H49   S    
C36   C37   S    
C16   H14   S    
C39   H47   S    
C36   H3    S    
C13   C14   A    
C15   C18   A    
Ba1   Ba2   S    
C21   C24   A    
C2    C11   A    
Ba1   O16   S    
C45   H20   S    
C15   C17   A    
C44   H19   S    
C22   C27   A    
C22   H31   S    
C39   H44   S    
C8    C18   A    
C14   C15   A    
C43   H18   S    
O13   P1    S    
C10   C13   A    
Ba1   O10   S    
C21   C25   A    
C29   P7    S    
C7    C8    A    
C19   C46   A    
Ba2   O21   S    
Ba1   P2    S    
C12   H6    S    
C13   H28   S    
C25   P2    S    
C23   H8    S    
C28   H40   S    
C34   H13   S    
C5    H25   S    
C7    P1    S    
C4    H22   S    
C4    C16   S    
C28   O22   S    
Ba2   O5    S    
C4    H35   S    
C20   C29   A    
C28   C32   S    
C41   H51   S    
C45   H24   S    
O2    P5    D    
O1    P1    D    
C40   H48   S    
C37   C38   S    
C3    C5    A    
C11   C17   A    
C36   H2    S    
Ba1   P1    S    
C45   H21   S    
C9    C19   A    
C32   H12   S    
C18   P6    S    
O14   P6    S    
C36   O12   S    
C41   C42   S    
C41   H52   S    
O16   P3    S    
C3    C7    A    
O22   P4    S    
Ba1   O4    S    
C30   P5    S    
C1    H7    S    
O9    P8    S    
C19   H30   S    
O4    P1    S    
C16   H37   S    
C38   H43   S    
C1    C12   S    
Ba1   O1    S    
O10   P6    S    
C23   O7    S    
O18   P3    S    
O21   P8    S    
C26   C31   A    
C12   O14   S    
C43   H16   S    
O7    P7    S    
C9    P4    S    
C32   H34   S    
O15   P2    D    
C28   H39   S    
Ba2   O20   S    
C43   H17   S    
C42   C43   S    
C2    C46   A    
C33   H45   S    
C44   C45   S    
Ba2   O4    S    
C14   H27   S    
O6    P7    D    
Ba1   O20   S    
C34   H11   S    
C35   H55   S    
C9    C10   A    
C3    C17   A    
Ba1   O23   S    
C16   H38   S    
C46   P8    S    
C30   C31   A    
C41   H53   S    
C21   H36   S    
C35   H57   S    
C27   C29   A    
C24   P3    S    
C40   H50   S    
C42   O3    S    
C1    H4    S    
C39   H46   S    
Ba2   O24   S    
O8    P8    D    
C38   H42   S    
Ba1   O15   S    
O12   P2    S    
C6    H26   S    
C23   C34   S    
C37   H5    S    
Ba2   O19   S    
O5    P2    S    
O23   P7    S    
C10   C11   A    
O20   P4    S    
C23   H9    S    
C25   C26   A    
C38   H41   S    
O11   P6    D    
C31   H32   S    
Ba1   O5    S    
