data_mof_unit_45240.cif
_audit_creation_date              2012-12-10T16:54:06-0500
_audit_creation_method            fapswitch 2.2
_symmetry_space_group_name_H-M    P1
_symmetry_Int_Tables_number       1
_space_group_crystal_system       triclinic
_cell_length_a                    9.835187
_cell_length_b                    10.79242
_cell_length_c                    13.467689
_cell_angle_alpha                 92.647695
_cell_angle_beta                  74.823393
_cell_angle_gamma                 93.513319
_cell_volume                      1376.40924539

loop_
_atom_site_label
_atom_site_type_symbol
_atom_type_description
_atom_site_fract_x
_atom_site_fract_y
_atom_site_fract_z
_atom_type_partial_charge
C1    C     C_R   0.503494 0.734604 0.500844 0.852160
C2    C     C_R   0.447725 0.491546 0.973781 0.009585
C3    C     C_R   0.473301 0.455803 0.869064 0.025324
C4    C     C_R   0.543615 0.459488 0.028052 0.074669
C5    C     C_R   0.680792 0.429172 0.973458 0.038166
C6    C     C_R   0.702203 0.380594 0.871164 0.054604
C7    C     C_R   0.583767 0.373379 0.827781 0.142982
C8    C     C_R   0.505154 0.449758 0.135136 0.094415
C9    C     C_R   0.753279 0.470658 0.131791 -0.220280
C10   C     C_R   0.384591 0.499224 0.811701 -0.111905
C11   C     C_2   0.613020 0.065023 0.427501 0.173034
C12   C     C_R   0.425346 0.496353 0.698772 0.804057
C13   C     C_2   0.497848 0.131320 0.469914 -0.399143
C14   C     C_2   0.590657 0.929307 0.415791 0.144595
C15   C     C_2   0.515575 0.868158 0.499032 -0.378416
C16   C     C_2   0.065567 0.585192 0.544815 -0.017552
C17   C     C_2   0.905481 0.570606 0.562963 0.168547
C18   C     C_R   0.499823 0.265009 0.491625 0.844665
C19   C     C_R   0.573871 0.492914 0.300871 0.757610
C20   C     C_R   0.787343 0.439357 0.026708 -0.211185
C21   C     C_R   0.611312 0.473632 0.187884 -0.106454
C22   C     C_R   0.263030 0.561698 0.862267 -0.247200
C23   C     C_R   0.234775 0.592158 0.967187 0.198901
C24   C     C_R   0.329700 0.560737 0.021688 -0.181543
Cu1   Cu    Cu3+1 0.361370 0.499980 0.499980 0.931906
Cu2   Cu    Cu3+1 0.638630 0.500020 0.500020 0.892028
H1    H     H_    0.837166 0.482688 0.170345 0.157161
H2    H     H_    0.896555 0.424053 0.988900 0.136524
H3    H     H_    0.311706 0.592063 0.101344 0.140985
N1    N     N_2   0.152660 0.501340 0.501130 -0.144120
N2    N     N_2   0.846520 0.501370 0.501160 -0.348564
O1    O     O_R   0.382960 0.678040 0.499980 -0.572287
O2    O     O_R   0.617100 0.678080 0.500020 -0.586507
O3    O     O_R   0.325800 0.499940 0.650950 -0.575128
O4    O     O_R   0.559930 0.499980 0.650990 -0.605267
O5    O     O_R   0.382900 0.321920 0.499980 -0.571462
O6    O     O_R   0.617040 0.321960 0.500020 -0.574588
O7    O     O_R   0.440070 0.500020 0.349010 -0.574406
O8    O     O_R   0.674200 0.500060 0.349050 -0.592957
H4    H     H_    0.393781 0.084275 0.485121 0.139142
C25   C     C_3   0.650046 0.865336 0.311441 -0.355148
C26   C     C_3   0.567295 0.896508 0.235340 -0.843751
H5    H     H_    0.455076 0.863559 0.263831 0.252898
H6    H     H_    0.572782 0.998263 0.224543 0.256802
H7    H     H_    0.612398 0.849636 0.159710 0.239502
H8    H     H_    0.762730 0.894550 0.280210 0.191567
H9    H     H_    0.646326 0.762881 0.315960 0.204637
H10   H     H_    0.470411 0.917800 0.571099 0.112745
H11   H     H_    0.109669 0.664588 0.579829 0.154789
C27   C     C_3   0.096518 0.389793 0.451221 -0.149496
C28   C     C_3   0.159405 0.263049 0.442559 -0.780189
H12   H     H_    0.260896 0.259049 0.384801 0.254688
H13   H     H_    0.160167 0.229105 0.519028 0.248287
H14   H     H_    0.090192 0.194077 0.412194 0.182856
H15   H     H_    0.993953 0.357029 0.499826 0.180874
H16   H     H_    0.094100 0.412124 0.372096 0.137380
C29   C     C_3   0.813456 0.630363 0.660045 -0.290218
C30   C     C_3   0.889544 0.717875 0.722963 -0.972328
H17   H     H_    0.966559 0.667311 0.751085 0.255196
H18   H     H_    0.943266 0.797713 0.676527 0.254402
H19   H     H_    0.811117 0.754986 0.791265 0.258569
H20   H     H_    0.733528 0.684745 0.639587 0.239647
H21   H     H_    0.760244 0.555985 0.712093 0.231618
H22   H     H_    0.903204 0.500928 0.425495 0.194914
C31   C     C_3   0.847653 0.333817 0.816556 -0.394240
C32   C     C_3   0.875169 0.290490 0.703855 -0.872488
H23   H     H_    0.843088 0.190986 0.696268 0.235316
H24   H     H_    0.821842 0.347751 0.661083 0.270666
H25   H     H_    0.990378 0.299196 0.668300 0.252024
H26   H     H_    0.926020 0.412294 0.817793 0.205925
H27   H     H_    0.871815 0.257498 0.860915 0.206426
C33   C     C_3   0.368935 0.376543 0.186671 -0.362882
C34   C     C_3   0.316094 0.276524 0.118892 -0.877274
H28   H     H_    0.404733 0.221622 0.073615 0.260093
H29   H     H_    0.262316 0.317532 0.066482 0.260383
H30   H     H_    0.237503 0.212184 0.168642 0.238094
H31   H     H_    0.393262 0.322531 0.246735 0.208534
H32   H     H_    0.283889 0.440010 0.222333 0.204769
H33   H     H_    0.193856 0.593206 0.818866 0.149414
C35   C     C_3   0.106512 0.662496 0.020284 -0.419009
C36   C     C_3   0.146843 0.797589 0.043146 -0.828403
H34   H     H_    0.050113 0.847305 0.080546 0.239655
H35   H     H_    0.201495 0.844177 0.970561 0.254604
H36   H     H_    0.217065 0.803126 0.095919 0.245674
H37   H     H_    0.030672 0.660736 0.971721 0.203568
H38   H     H_    0.051580 0.617144 0.093372 0.194331
C37   C     C_3   0.555064 0.256817 0.766179 -0.379214
C38   C     C_3   0.403240 0.201728 0.799640 -0.880512
H39   H     H_    0.369538 0.192499 0.884473 0.261007
H40   H     H_    0.329106 0.259277 0.775080 0.252766
H41   H     H_    0.397297 0.107984 0.762846 0.236966
H42   H     H_    0.583268 0.274255 0.683114 0.232018
H43   H     H_    0.620072 0.181876 0.778972 0.220425
C39   C     C_3   0.764226 0.119303 0.396140 -0.358803
C40   C     C_3   0.793912 0.191795 0.297302 -0.796505
H44   H     H_    0.792175 0.127506 0.230846 0.238939
H45   H     H_    0.714336 0.261702 0.302611 0.261176
H46   H     H_    0.899896 0.240144 0.283108 0.226633
H47   H     H_    0.790687 0.176797 0.459481 0.215580
H48   H     H_    0.839343 0.043735 0.382640 0.172007

loop_
_geom_bond_atom_site_label_1
_geom_bond_atom_site_label_2
_ccdc_geom_bond_type
C32   H24   S    
C37   C38   S    
C34   H28   S    
C40   H44   S    
C4    C8    A    
C36   H34   S    
C40   H46   S    
C1    O2    A    
C29   H20   S    
C5    C20   A    
C10   C22   A    
C35   H37   S    
C13   C18   S    
C19   O8    A    
C19   C21   S    
C18   O6    A    
C22   H33   S    
C3    C7    A    
C5    C6    A    
C11   C14   S    
Cu2   O8    S    
C32   H25   S    
C30   H18   S    
C31   H26   S    
C25   C26   S    
C24   H3    S    
C13   H4    S    
C33   H32   S    
C9    C20   A    
C6    C31   S    
C7    C37   S    
C16   C17   S    
C35   H38   S    
C25   H8    S    
C1    C15   S    
C23   C35   S    
Cu1   O3    S    
Cu1   O1    S    
C32   H23   S    
N1    C27   S    
Cu2   N2    S    
C37   H42   S    
C34   H29   S    
C26   H6    S    
C15   H10   S    
C36   H35   S    
C29   H21   S    
C8    C33   S    
C28   H12   S    
C16   H11   S    
C33   C34   S    
C20   H2    S    
C30   H17   S    
C31   H27   S    
C1    O1    A    
C27   H16   S    
C28   H13   S    
C26   H7    S    
C2    C4    A    
C33   H31   S    
C19   O7    A    
Cu1   O7    S    
Cu2   O2    S    
C38   H41   S    
C39   H48   S    
C23   C24   A    
C27   C28   S    
C25   H9    S    
C12   O4    A    
C10   C12   S    
C14   C25   S    
C11   C39   S    
C38   H40   S    
C2    C24   A    
C17   N2    D    
C34   H30   S    
C26   H5    S    
C12   O3    A    
C36   H36   S    
C9    H1    S    
Cu1   N1    S    
C14   C15   D    
N2    H22   S    
C35   C36   S    
C8    C21   A    
C40   H45   S    
Cu2   O6    S    
C6    C7    A    
C27   H15   S    
C28   H14   S    
C2    C3    A    
Cu1   Cu2   S    
C3    C10   A    
C11   C13   D    
C9    C21   A    
C29   C30   S    
C18   O5    A    
C39   H47   S    
C30   H19   S    
C37   H43   S    
C39   C40   S    
Cu1   O5    S    
Cu2   O4    S    
C4    C5    A    
C38   H39   S    
C31   C32   S    
C22   C23   A    
C16   N1    D    
C17   C29   S    
