data_mof_unit_17950.cif
_audit_creation_date              2012-12-10T16:51:29-0500
_audit_creation_method            fapswitch 2.2
_symmetry_space_group_name_H-M    P1
_symmetry_Int_Tables_number       1
_space_group_crystal_system       triclinic
_cell_length_a                    7.783877
_cell_length_b                    8.629294
_cell_length_c                    12.641433
_cell_angle_alpha                 92.951447
_cell_angle_beta                  102.430157
_cell_angle_gamma                 93.739411
_cell_volume                      825.574673581

loop_
_atom_site_label
_atom_site_type_symbol
_atom_type_description
_atom_site_fract_x
_atom_site_fract_y
_atom_site_fract_z
_atom_type_partial_charge
C1    C     C_R   0.042768 0.793840 0.493137 0.879632
C2    C     C_R   0.391253 0.468127 0.993194 -0.008621
C3    C     C_R   0.334824 0.441949 0.878664 -0.022151
C4    C     C_R   0.560285 0.421419 0.040590 0.064322
C5    C     C_R   0.633841 0.301067 0.988385 0.137461
C6    C     C_R   0.548306 0.243707 0.885566 -0.262837
C7    C     C_R   0.433974 0.339830 0.824859 -0.030778
C8    C     C_R   0.666179 0.502520 0.131679 -0.286352
C9    C     C_R   0.897055 0.327032 0.129864 -0.177033
C10   C     C_R   0.178340 0.511588 0.826530 -0.100401
C11   C     C_2   0.061328 0.952945 0.473229 -0.216954
C12   C     C_R   0.110936 0.503420 0.708735 0.856356
C13   C     C_2   0.930643 0.040755 0.490366 -0.398861
C14   C     C_R   0.953520 0.205008 0.496237 0.966581
C15   C     C_R   0.891550 0.490053 0.292223 0.907994
C16   C     C_R   0.801738 0.254336 0.033097 -0.182597
C17   C     C_R   0.826699 0.448565 0.179357 -0.043168
C18   C     C_R   0.081050 0.593335 0.888915 -0.237938
C19   C     C_R   0.131079 0.607697 0.000740 -0.105350
C20   C     C_R   0.283566 0.544747 0.054450 -0.000147
H1    H     H_    0.021677 0.284349 0.167864 0.181174
H2    H     H_    0.811344 0.992327 0.512312 0.177301
H3    H     H_    0.472055 0.365071 0.427865 0.203305
H4    H     H_    0.860088 0.164768 0.992478 0.145300
H5    H     H_    0.626334 0.607625 0.167374 0.163810
H6    H     H_    0.961863 0.645124 0.850674 0.159640
H7    H     H_    0.045943 0.665185 0.045326 0.178983
N1    N     N_2   0.434800 0.456690 0.470850 -0.123731
N2    N     N_2   0.565200 0.543310 0.529150 -0.089361
O1    O     O_R   0.893060 0.738880 0.507150 -0.619506
O2    O     O_R   0.172250 0.711130 0.488470 -0.635668
O3    O     O_R   0.944700 0.520730 0.667600 -0.612779
O4    O     O_R   0.223890 0.492980 0.648920 -0.643799
O5    O     O_R   0.827750 0.288870 0.511530 -0.606985
O6    O     O_R   0.106940 0.261120 0.492850 -0.583493
O7    O     O_R   0.776110 0.507020 0.351080 -0.640849
O8    O     O_R   0.055300 0.479270 0.332400 -0.584476
Zn1   Zn    Zn3+2 0.813580 0.518530 0.512470 0.983015
Zn2   Zn    Zn3+2 0.186420 0.481470 0.487530 1.015415
C21   C     C_2   0.520002 0.680899 0.578490 0.169388
H8    H     H_    0.622606 0.764762 0.624595 -0.036120
O9    O     O_2   0.634614 0.774571 0.630003 0.004673
H9    H     H_    0.612868 0.159035 0.844446 0.173579
C22   C     C_2   0.313835 0.545689 0.174168 0.363855
H10   H     H_    0.378856 0.452221 0.216326 0.084813
O10   O     O_2   0.268006 0.652058 0.226665 -0.551150
C23   C     C_2   0.511590 0.389026 0.734727 0.503165
H11   H     H_    0.560427 0.509484 0.735395 0.034176
O11   O     O_2   0.532925 0.293444 0.664633 -0.589120
C24   C     C_2   0.221747 0.005152 0.432333 0.559236
H12   H     H_    0.352831 0.978456 0.476538 0.052636
O12   O     O_2   0.207482 0.073018 0.348301 -0.575585

loop_
_geom_bond_atom_site_label_1
_geom_bond_atom_site_label_2
_ccdc_geom_bond_type
N2    Zn1   S    
C14   O5    A    
C24   O12   D    
C21   H8    S    
C6    C7    A    
O3    Zn1   S    
C19   H7    S    
C2    C4    A    
C8    C17   A    
C18   H6    S    
C4    C8    A    
C21   O9    D    
C2    C3    A    
C16   H4    S    
C11   C24   S    
O5    Zn1   S    
C13   C14   S    
C12   O3    A    
C8    H5    S    
C11   C13   D    
C9    H1    S    
O4    Zn2   S    
C10   C12   S    
C10   C18   A    
C3    C10   A    
C5    C6    A    
N2    C21   S    
O7    Zn1   S    
C1    O1    A    
C20   C22   S    
C9    C16   A    
O2    Zn2   S    
C13   H2    S    
C24   H12   S    
C3    C7    A    
C6    H9    S    
O6    Zn2   S    
O8    Zn2   S    
C7    C23   S    
C2    C20   A    
C23   H11   S    
C15   O7    A    
C1    O2    A    
C22   H10   S    
O1    Zn1   S    
C23   O11   D    
C18   C19   A    
C9    C17   A    
C14   O6    A    
C15   C17   S    
N1    N2    D    
C5    C16   A    
N1    Zn2   S    
C12   O4    A    
H3    N1    S    
C15   O8    A    
C19   C20   A    
C22   O10   D    
C4    C5    A    
C1    C11   S    
