data_mof_unit_31187.cif
_audit_creation_date              2012-12-10T17:31:04-0500
_audit_creation_method            fapswitch 2.2
_symmetry_space_group_name_H-M    P1
_symmetry_Int_Tables_number       1
_space_group_crystal_system       triclinic
_cell_length_a                    12.215141
_cell_length_b                    12.800408
_cell_length_c                    15.442595
_cell_angle_alpha                 84.468515
_cell_angle_beta                  116.433268
_cell_angle_gamma                 94.548503
_cell_volume                      2150.28571603

loop_
_atom_site_label
_atom_site_type_symbol
_atom_type_description
_atom_site_fract_x
_atom_site_fract_y
_atom_site_fract_z
_atom_type_partial_charge
C1    C     C_R   0.476022 0.300054 0.497733 0.905591
C2    C     C_R   0.598820 0.972804 0.441455 0.530478
C3    C     C_R   0.405003 0.135274 0.551487 -0.221151
C4    C     C_R   0.598440 0.864716 0.453244 -0.224950
C5    C     C_R   0.509195 0.134052 0.448896 0.426339
C6    C     C_R   0.492566 0.864852 0.554882 0.451203
C7    C     C_R   0.528826 0.027205 0.473938 -0.127116
C8    C     C_R   0.474488 0.972221 0.531204 -0.122172
C9    C     C_R   0.005852 0.606299 0.412399 0.435719
C10   C     C_R   0.992475 0.391841 0.587811 0.423289
C11   C     C_R   0.128290 0.600464 0.426668 0.365770
C12   C     C_R   0.524437 0.699776 0.503272 0.896146
C13   C     C_R   0.874435 0.406350 0.581602 0.347889
C14   C     C_R   0.154810 0.448169 0.533315 0.542691
C15   C     C_R   0.839887 0.544367 0.459143 0.556858
C16   C     C_R   0.577377 0.492448 0.681041 0.956255
C17   C     C_R   0.422918 0.505675 0.318885 0.958607
C18   C     C_R   0.036314 0.458309 0.529646 -0.189901
C19   C     C_R   0.960032 0.536528 0.466469 -0.204864
C20   C     C_R   0.628506 0.479794 0.787793 -0.263182
C21   C     C_R   0.374921 0.511770 0.212084 -0.262606
C22   C     C_R   0.794448 0.481508 0.952135 0.410558
C23   C     C_R   0.643759 0.477683 0.119226 -0.223142
C24   C     C_R   0.243719 0.586693 0.049342 0.429989
C25   C     C_R   0.753621 0.497510 0.850941 0.285248
C26   C     C_R   0.274414 0.572019 0.148957 0.284539
C27   C     C_R   0.548787 0.446353 0.827805 0.352699
C28   C     C_R   0.442056 0.464594 0.174281 0.366418
C29   C     C_R   0.581336 0.466609 0.924011 -0.118786
C30   C     C_R   0.426174 0.494790 0.079473 -0.110803
C31   C     C_R   0.707264 0.473386 0.990694 -0.150358
C32   C     C_R   0.316660 0.543413 0.012484 -0.164028
C33   C     C_R   0.490362 0.485633 0.952649 0.044132
C34   C     C_R   0.374130 0.518783 0.884473 -0.223652
C35   C     C_R   0.519665 0.481899 0.051309 0.044589
C36   C     C_R   0.737064 0.476224 0.090617 0.472061
C37   C     C_R   0.288821 0.548971 0.912704 0.481228
C38   C     C_R   0.542511 0.811329 0.506645 -0.234667
C39   C     C_R   0.459133 0.188171 0.496535 -0.249711
C40   C     C_R   0.405283 0.027088 0.564200 0.529013
Cl1   Cl    Cl    0.886316 0.483947 0.186025 -0.494731
Cl2   Cl    Cl    0.146541 0.581921 0.816093 -0.426995
Cl3   Cl    Cl    0.824891 0.331156 0.660299 -0.497506
Cl4   Cl    Cl    0.187877 0.707726 0.378885 -0.465614
Cl5   Cl    Cl    0.185815 0.631888 0.192397 -0.366795
Cl6   Cl    Cl    0.861022 0.540616 0.806154 -0.362523
Cl7   Cl    Cl    0.953501 0.471052 0.024060 -0.375043
Cl8   Cl    Cl    0.129169 0.677214 0.978907 -0.328524
H1    H     H_    0.670837 0.485337 0.195317 0.236681
H2    H     H_    0.485122 0.245640 0.348001 0.364868
H3    H     H_    0.291095 0.918294 0.570583 0.389309
H4    H     H_    0.711922 0.083104 0.435463 0.379718
H5    H     H_    0.695004 0.625999 0.404391 0.369486
H6    H     H_    0.304461 0.373949 0.594670 0.397872
H7    H     H_    0.350811 0.529210 0.807997 0.224818
H8    H     H_    0.642011 0.822275 0.420361 0.214106
H9    H     H_    0.361863 0.178119 0.584433 0.225608
H10   H     H_    0.954654 0.700268 0.295385 0.399247
H11   H     H_    0.020466 0.263536 0.674071 0.380613
H12   H     H_    0.526642 0.337547 0.186902 0.365485
H13   H     H_    0.413535 0.348938 0.817196 0.374688
H14   H     H_    0.510680 0.749852 0.652539 0.335050
N1    N     N_R   0.799120 0.480200 0.517090 -0.203495
N2    N     N_R   0.200880 0.519800 0.482910 -0.217307
O1    O     O_R   0.580150 0.341050 0.504560 -0.545922
O2    O     O_3   0.068036 0.316432 0.652426 -0.633502
O3    O     O_3   0.519062 0.385638 0.230426 -0.738665
O4    O     O_3   0.441949 0.390746 0.772991 -0.730543
O5    O     O_3   0.463292 0.814227 0.625682 -0.704472
O6    O     O_3   0.536100 0.183549 0.376578 -0.695478
O7    O     O_3   0.337292 0.978491 0.608806 -0.658671
O8    O     O_3   0.668004 0.021794 0.398008 -0.662859
O9    O     O_3   0.765251 0.617576 0.391857 -0.675590
O10   O     O_3   0.221341 0.364115 0.588354 -0.652894
O11   O     O_R   0.419850 0.658950 0.495440 -0.540264
O12   O     O_R   0.388090 0.353760 0.493600 -0.645884
O13   O     O_R   0.611910 0.646240 0.506400 -0.653161
O14   O     O_R   0.650890 0.490020 0.640860 -0.531681
O15   O     O_R   0.349110 0.509980 0.359140 -0.546453
O16   O     O_R   0.458830 0.502730 0.629890 -0.609222
O17   O     O_R   0.541170 0.497270 0.370110 -0.593979
O18   O     O_3   0.932268 0.683754 0.349559 -0.625788
Zn1   Zn    Zn3+2 0.628240 0.491510 0.507320 1.062890
Zn2   Zn    Zn3+2 0.371760 0.508490 0.492680 1.056897

loop_
_geom_bond_atom_site_label_1
_geom_bond_atom_site_label_2
_ccdc_geom_bond_type
C6    O5    S    
C21   C26   A    
C40   O7    S    
C27   C29   A    
C34   C37   A    
C14   C18   A    
C2    C7    A    
O16   Zn2   S    
O12   Zn2   S    
C7    C8    A    
C15   C19   A    
C30   C35   A    
C14   O10   S    
C24   C26   A    
H10   O18   S    
H11   O2    S    
O15   Zn2   S    
O11   Zn2   S    
C23   H1    S    
C20   C25   A    
O13   Zn1   S    
C29   C33   A    
C17   O15   A    
C18   C19   A    
C37   Cl2   S    
N2    Zn2   S    
C27   O4    S    
C26   Cl5   S    
H6    O10   S    
O14   Zn1   S    
C9    C19   A    
H12   O3    S    
C22   C25   A    
C1    O1    A    
C6    C38   A    
C17   O17   A    
C9    O18   S    
C22   Cl7   S    
C3    C39   A    
C34   H7    S    
C4    H8    S    
C36   Cl1   S    
H3    O7    S    
C2    O8    S    
O17   Zn1   S    
C10   O2    S    
C22   C31   A    
C24   Cl8   S    
C28   O3    S    
C11   N2    A    
C5    C7    A    
C6    C8    A    
C17   C21   S    
H14   O5    S    
N1    Zn1   S    
C16   O16   A    
C2    C4    A    
C24   C32   A    
C5    O6    S    
H4    O8    S    
C13   N1    A    
C16   C20   S    
C14   N2    A    
C12   O13   A    
C33   C34   A    
C11   Cl4   S    
C32   C37   A    
C9    C11   A    
C3    H9    S    
C15   O9    S    
C21   C28   A    
C4    C38   A    
C3    C40   A    
C23   C35   A    
C5    C39   A    
C13   Cl3   S    
C1    O12   A    
H5    O9    S    
C10   C13   A    
C20   C27   A    
C28   C30   A    
H2    O6    S    
C29   C31   A    
C30   C32   A    
H13   O4    S    
C10   C18   A    
C33   C35   A    
C16   O14   A    
C12   C38   S    
O1    Zn1   S    
C1    C39   S    
C23   C36   A    
C12   O11   A    
C15   N1    A    
C31   C36   A    
C8    C40   A    
C25   Cl6   S    
