data_mof_unit_61966.cif
_audit_creation_date              2012-10-26T19:58:47-0400
_audit_creation_method            fapswitch 2.2
_symmetry_space_group_name_H-M    P1
_symmetry_Int_Tables_number       1
_space_group_crystal_system       triclinic
_cell_length_a                    14.346136
_cell_length_b                    11.056129
_cell_length_c                    9.845411
_cell_angle_alpha                 111.333072
_cell_angle_beta                  97.789596
_cell_angle_gamma                 90.635893
_cell_volume                      1438.0956195

loop_
_atom_site_label
_atom_site_type_symbol
_atom_type_description
_atom_site_fract_x
_atom_site_fract_y
_atom_site_fract_z
_atom_type_partial_charge
C1    C     C_R   0.493752 0.254082 0.440593 0.554818
C2    C     C_1   0.957235 0.499916 0.499315 0.013270
C3    C     C_2   0.490355 0.114687 0.407224 -0.120117
C4    C     C_2   0.509644 0.885313 0.592776 -0.120117
C5    C     C_2   0.501576 0.069575 0.516459 -0.144696
C6    C     C_2   0.498424 0.930425 0.483541 -0.144696
C7    C     C_2   0.509044 0.511575 0.080888 0.465551
C8    C     C_2   0.490956 0.488425 0.919112 0.465551
C9    C     C_R   0.506248 0.745918 0.559407 0.554818
C10   C     C_R   0.331147 0.500042 0.500889 0.543769
C11   C     C_R   0.668853 0.499958 0.499111 0.543769
C12   C     C_1   0.228964 0.500272 0.502353 -0.014898
C13   C     C_1   0.771036 0.499728 0.497647 -0.014898
C14   C     C_1   0.143528 0.500247 0.502032 -0.022822
C15   C     C_1   0.856472 0.499753 0.497968 -0.022822
C16   C     C_1   0.042765 0.500084 0.500685 0.013270
Cu1   Cu    Cu3+1 0.515060 0.521810 0.644910 1.034328
Cu2   Cu    Cu3+1 0.484940 0.478190 0.355090 1.034328
F1    F     F_    0.423739 0.395759 0.829618 -0.641965
F2    F     F_    0.576260 0.604241 0.170382 -0.641965
H1    H     H_    0.588322 0.624161 0.932844 0.213536
H2    H     H_    0.411678 0.375839 0.067155 0.213536
H3    H     H_    0.486777 0.864481 0.368725 0.186682
H4    H     H_    0.513223 0.135519 0.631274 0.186682
H5    H     H_    0.521318 0.951542 0.707399 0.113021
H6    H     H_    0.478682 0.048458 0.292601 0.113021
N1    N     N_2   0.462290 0.445430 0.137370 -0.315187
N2    N     N_2   0.537710 0.554570 0.862630 -0.315187
O1    O     O_R   0.508040 0.332330 0.577400 -0.440346
O2    O     O_R   0.491960 0.667670 0.422600 -0.440346
O3    O     O_R   0.482600 0.295500 0.332650 -0.505400
O4    O     O_R   0.517400 0.704500 0.667350 -0.505400
O5    O     O_R   0.388780 0.518420 0.622400 -0.424834
O6    O     O_R   0.611220 0.481580 0.377600 -0.424834
O7    O     O_R   0.363340 0.481590 0.377660 -0.494711
O8    O     O_R   0.636660 0.518410 0.622340 -0.494711

loop_
_geom_bond_atom_site_label_1
_geom_bond_atom_site_label_2
_ccdc_geom_bond_type
C10   O7    A    
Cu2   O2    S    
Cu1   O8    S    
C2    C16   T    
C11   C13   S    
Cu2   O7    S    
C1    O1    A    
C4    H5    S    
C7    N1    D    
C7    C8    S    
C2    C15   S    
Cu2   O6    S    
C5    H4    S    
Cu1   O5    S    
C9    O2    A    
C6    H3    S    
C10   C12   S    
C11   O8    A    
H1    N2    S    
C12   C14   T    
Cu1   Cu2   S    
C10   O5    A    
H2    N1    S    
C13   C15   T    
C5    C6    S    
C8    N2    D    
C14   C16   S    
C8    F1    S    
C1    O3    A    
Cu1   O1    S    
C4    C6    D    
C7    F2    S    
C3    H6    S    
Cu1   O4    S    
Cu2   O3    S    
C9    O4    A    
C3    C5    D    
C4    C9    S    
Cu1   N2    S    
C11   O6    A    
Cu2   N1    S    
C1    C3    S    
