data_mof_unit_34970.cif
_audit_creation_date              2012-12-10T18:09:56-0500
_audit_creation_method            fapswitch 2.2
_symmetry_space_group_name_H-M    P1
_symmetry_Int_Tables_number       1
_space_group_crystal_system       triclinic
_cell_length_a                    10.630888
_cell_length_b                    12.578256
_cell_length_c                    13.199883
_cell_angle_alpha                 82.850888
_cell_angle_beta                  90.768009
_cell_angle_gamma                 101.94539
_cell_volume                      1713.27661734

loop_
_atom_site_label
_atom_site_type_symbol
_atom_type_description
_atom_site_fract_x
_atom_site_fract_y
_atom_site_fract_z
_atom_type_partial_charge
C1    C     C_R   0.478355 0.439519 0.691324 0.903160
C2    C     C_R   0.460211 0.455685 0.973123 -0.137489
C3    C     C_R   0.439252 0.479251 0.867877 -0.036434
C4    C     C_R   0.742064 0.501155 0.498629 0.925523
C5    C     C_R   0.454568 0.538036 0.035616 0.005571
C6    C     C_R   0.462096 0.647493 0.992615 0.114749
C7    C     C_R   0.430985 0.667875 0.890580 -0.242199
C8    C     C_R   0.406298 0.581383 0.831975 -0.108488
C9    C     C_R   0.434013 0.514277 0.140207 0.482537
C10   C     C_R   0.513557 0.705351 0.159029 -0.255140
C11   C     C_R   0.457877 0.403132 0.801399 -0.277118
C12   C     C_3   0.122112 0.501827 0.498937 0.058565
C13   C     C_R   0.320833 0.088331 0.345802 0.418711
C14   C     C_R   0.652954 0.799726 0.629096 -0.199672
C15   C     C_R   0.700365 0.907747 0.646077 0.401442
C16   C     C_R   0.505085 0.560298 0.309356 0.934254
C17   C     C_R   0.660398 0.991962 0.582335 0.399965
C18   C     C_R   0.553517 0.966634 0.517039 -0.147806
C19   C     C_R   0.513393 0.855808 0.500228 0.165492
C20   C     C_R   0.486212 0.045064 0.467025 -0.032634
C21   C     C_R   0.389927 0.012682 0.394394 0.065425
C22   C     C_R   0.362004 0.904772 0.372819 -0.242047
C23   C     C_3   0.070503 0.488963 0.389958 -0.534493
C24   C     C_R   0.421881 0.827737 0.425686 -0.182020
C25   C     C_R   0.503536 0.152660 0.491343 -0.008590
C26   C     C_R   0.343549 0.193337 0.374069 -0.041258
C27   C     C_R   0.258234 0.500081 0.500103 0.850765
C28   C     C_3   0.906746 0.410768 0.578200 -0.641598
C29   C     C_3   0.049756 0.407016 0.576086 -0.416354
C30   C     C_3   0.923972 0.487524 0.387430 0.844869
C31   C     C_3   0.957441 0.614432 0.528400 0.271520
C32   C     C_3   0.879503 0.503579 0.496849 0.063300
C33   C     C_3   0.232042 0.408807 0.157722 -0.346133
C34   C     C_3   0.100349 0.612468 0.529212 -0.431302
C35   C     C_3   0.617719 0.219296 0.767510 -0.281137
C36   C     C_3   0.273917 0.091356 0.177824 -0.238967
C37   C     C_3   0.829835 0.104640 0.497978 -0.245165
C38   C     C_3   0.750181 0.903553 0.813921 -0.298420
C39   C     C_R   0.492260 0.731864 0.054881 -0.219712
C40   C     C_R   0.485605 0.594895 0.201922 -0.204821
C41   C     C_R   0.473708 0.297162 0.842346 0.329139
C42   C     C_R   0.481913 0.270851 0.948744 0.335107
C43   C     C_R   0.491754 0.353221 0.011398 0.384590
H1    H     H_    0.847847 0.329715 0.565855 0.242950
H2    H     H_    0.290536 0.878307 0.316899 0.199397
H3    H     H_    0.568483 0.182705 0.549258 0.202278
H4    H     H_    0.691464 0.734122 0.670631 0.178982
H5    H     H_    0.393906 0.746336 0.406675 0.204644
H6    H     H_    0.090241 0.413797 0.653828 0.184179
H7    H     H_    0.061222 0.326883 0.554412 0.202674
H8    H     H_    0.090381 0.412749 0.364788 0.165494
H9    H     H_    0.927048 0.622696 0.607329 0.083004
H10   H     H_    0.138420 0.624203 0.607004 0.150545
H11   H     H_    0.920458 0.557763 0.247331 0.336469
H12   H     H_    0.153387 0.681968 0.475213 0.213238
H13   H     H_    0.173336 0.333861 0.200395 0.189022
H14   H     H_    0.215558 0.403266 0.075017 0.175233
H15   H     H_    0.197441 0.480248 0.180510 0.153777
H16   H     H_    0.667713 0.211398 0.841849 0.171962
H17   H     H_    0.667747 0.293910 0.718443 0.163661
H18   H     H_    0.625524 0.146987 0.730010 0.220416
H19   H     H_    0.601985 0.401110 0.121250 0.336971
H20   H     H_    0.470493 0.114966 0.943305 0.351748
H21   H     H_    0.197519 0.064619 0.122903 0.183913
H22   H     H_    0.356194 0.052737 0.163499 0.200951
H23   H     H_    0.123478 0.558065 0.335555 0.166704
H24   H     H_    0.303130 0.182075 0.162622 0.224038
H25   H     H_    0.875548 0.032025 0.501961 0.179058
H26   H     H_    0.908616 0.175308 0.506896 0.163311
H27   H     H_    0.786104 0.118799 0.421796 0.178235
H28   H     H_    0.718983 0.813190 0.832116 0.158663
H29   H     H_    0.669409 0.944478 0.827114 0.151514
H30   H     H_    0.827592 0.931222 0.867738 0.202954
H31   H     H_    0.883907 0.326692 0.396204 0.310632
H32   H     H_    0.963700 0.770700 0.496989 0.333900
H33   H     H_    0.546134 0.770157 0.206040 0.196227
H34   H     H_    0.420511 0.748820 0.857517 0.139624
H35   H     H_    0.503166 0.816902 0.022817 0.156176
H36   H     H_    0.879993 0.425944 0.655614 0.180262
H37   H     H_    0.365527 0.597304 0.757619 0.167452
H38   H     H_    0.289432 0.252251 0.340288 0.174415
N1    N     N_R   0.433240 0.222190 0.444680 -0.142870
N2    N     N_R   0.566070 0.776970 0.554790 -0.145315
O1    O     O_R   0.468120 0.366740 0.627160 -0.564928
O2    O     O_3   0.362638 0.413526 0.182069 -0.574321
O3    O     O_3   0.485951 0.220253 0.778647 -0.597015
O4    O     O_3   0.542717 0.332955 0.106801 -0.667919
O5    O     O_3   0.495440 0.168343 0.992906 -0.752726
O6    O     O_3   0.224137 0.057489 0.277719 -0.634375
O7    O     O_3   0.737345 0.095401 0.576159 -0.632244
O8    O     O_3   0.799615 0.932951 0.713396 -0.574472
O9    O     O_3   0.854442 0.388713 0.356394 -0.770230
O10   O     O_3   0.935627 0.704888 0.461356 -0.680314
O11   O     O_R   0.510770 0.544830 0.662520 -0.641942
O12   O     O_R   0.663880 0.410950 0.482330 -0.598338
O13   O     O_R   0.706530 0.589040 0.517700 -0.585492
O14   O     O_R   0.489230 0.455170 0.337480 -0.535527
O15   O     O_R   0.531880 0.633260 0.372840 -0.630653
O16   O     O_R   0.293470 0.410960 0.482300 -0.629339
O17   O     O_R   0.336120 0.589050 0.517670 -0.662332
O18   O     O_3   0.900778 0.574302 0.316333 -0.705949
Zn1   Zn    Zn3+2 0.471520 0.381090 0.476390 1.007674
Zn2   Zn    Zn3+2 0.528480 0.618910 0.523610 0.938263

loop_
_geom_bond_atom_site_label_1
_geom_bond_atom_site_label_2
_ccdc_geom_bond_type
C36   O6    S    
C33   H15   S    
C37   H26   S    
H20   O5    S    
O1    Zn1   S    
C41   C42   A    
H11   O18   S    
C1    C11   S    
C31   H9    S    
C36   H24   S    
C7    C8    A    
C29   H6    S    
C1    O1    A    
C41   O3    S    
C12   C23   S    
C27   O16   A    
N2    Zn2   S    
C37   O7    S    
C23   H23   S    
C10   C40   A    
C28   C29   S    
C5    C6    A    
C12   C29   S    
C35   O3    S    
C16   O14   A    
C20   C25   A    
O15   Zn2   S    
C37   H25   S    
C35   H16   S    
C18   C19   A    
H31   O9    S    
C28   H36   S    
C33   O2    S    
C9    O2    S    
C4    O13   A    
C14   H4    S    
C10   H33   S    
C1    O11   A    
C11   C41   A    
O14   Zn1   S    
O12   Zn1   S    
C7    H34   S    
C33   H13   S    
C34   H12   S    
C26   N1    A    
C21   C22   A    
C14   N2    A    
C19   N2    A    
C29   H7    S    
C38   H29   S    
C27   O17   A    
C12   C27   S    
C24   H5    S    
C23   C30   S    
C28   C32   S    
C30   O9    S    
C3    C8    A    
C36   H22   S    
C31   O10   S    
C38   O8    S    
C28   H1    S    
C9    C40   A    
C10   C39   A    
C39   H35   S    
C5    C9    A    
C4    O12   A    
C23   H8    S    
C31   C32   S    
C2    C43   A    
C22   H2    S    
C17   C18   A    
N1    Zn1   S    
C31   C34   S    
C13   C21   A    
C35   H18   S    
C4    C32   S    
C16   C40   S    
O11   Zn2   S    
C26   H38   S    
C25   N1    A    
C22   C24   A    
C13   C26   A    
C2    C5    A    
C42   O5    S    
C42   C43   A    
C12   C34   S    
H32   O10   S    
C15   C17   A    
C38   H28   S    
C33   H14   S    
C13   O6    S    
C14   C15   A    
C17   O7    S    
C6    C7    A    
H19   O4    S    
C43   O4    S    
C19   C24   A    
C30   C32   S    
C16   O15   A    
C30   O18   S    
C2    C3    A    
C18   C20   A    
O17   Zn2   S    
C3    C11   A    
C15   O8    S    
O16   Zn1   S    
C20   C21   A    
C34   H10   S    
O13   Zn2   S    
C8    H37   S    
C6    C39   A    
C35   H17   S    
C36   H21   S    
C25   H3    S    
C37   H27   S    
C38   H30   S    
