data_mof_unit_51747.cif
_audit_creation_date              2012-12-10T19:02:41-0500
_audit_creation_method            fapswitch 2.2
_symmetry_space_group_name_H-M    P1
_symmetry_Int_Tables_number       1
_space_group_crystal_system       triclinic
_cell_length_a                    9.63387
_cell_length_b                    10.869199
_cell_length_c                    13.870503
_cell_angle_alpha                 91.680505
_cell_angle_beta                  84.674069
_cell_angle_gamma                 89.270776
_cell_volume                      1445.34782167

loop_
_atom_site_label
_atom_site_type_symbol
_atom_type_description
_atom_site_fract_x
_atom_site_fract_y
_atom_site_fract_z
_atom_type_partial_charge
C1    C     C_R   0.498953 0.737207 0.503369 0.799633
C2    C     C_1   0.464215 0.504211 0.785903 -0.034806
C3    C     C_R   0.378719 0.939322 0.541774 0.110246
C4    C     C_R   0.499514 0.869945 0.516326 -0.123031
C5    C     C_R   0.627294 0.930400 0.511954 -0.237541
C6    C     C_R   0.633094 0.058823 0.515837 0.004120
C7    C     C_R   0.506090 0.129359 0.520765 -0.199915
C8    C     C_R   0.382251 0.066020 0.543093 0.141994
C9    C     C_3   0.240970 0.076282 0.508434 -0.269454
C10   C     C_3   0.236695 0.935701 0.507124 -0.443088
C11   C     C_R   0.938163 0.471736 0.417526 0.193454
C12   C     C_R   0.477213 0.500900 0.682719 0.803229
C13   C     C_R   0.914683 0.553796 0.575032 0.046203
C14   C     C_R   0.063862 0.553311 0.575233 0.000198
C15   C     C_R   0.084200 0.471166 0.417518 0.285328
C16   C     C_3   0.098690 0.356951 0.354081 -0.343239
C17   C     C_3   0.939023 0.360016 0.352678 -0.301957
C18   C     C_R   0.501284 0.262395 0.504848 0.797490
C19   C     C_R   0.522856 0.498534 0.317261 0.827845
C20   C     C_1   0.537077 0.490122 0.214075 -0.067214
C21   C     C_2   0.561863 0.468524 0.023469 -0.033468
C22   C     C_2   0.455793 0.511283 0.976429 -0.148531
C23   C     C_1   0.457903 0.507438 0.872769 0.121303
C24   C     C_1   0.548883 0.480610 0.127245 -0.058214
Cu1   Cu    Cu3+1 0.359330 0.500020 0.500000 0.964870
Cu2   Cu    Cu3+1 0.640670 0.499980 0.500000 1.004388
H1    H     H_    0.364318 0.552848 0.017154 0.183750
H2    H     H_    0.136277 0.278207 0.393223 0.103668
H3    H     H_    0.886171 0.282549 0.389420 0.175885
H4    H     H_    0.724228 0.877747 0.502132 0.189438
H5    H     H_    0.244375 0.113608 0.434813 0.123351
H6    H     H_    0.158308 0.896731 0.561247 0.210992
H7    H     H_    0.237567 0.894026 0.432880 0.200979
N1    N     N_R   0.852140 0.499070 0.499400 -0.234036
N2    N     N_R   0.148050 0.499110 0.499400 -0.256633
O1    O     O_R   0.381190 0.680360 0.500000 -0.603997
O2    O     O_R   0.618770 0.680320 0.499990 -0.611742
O3    O     O_R   0.364410 0.500000 0.637850 -0.581054
O4    O     O_R   0.602000 0.499960 0.637840 -0.546784
O5    O     O_R   0.381230 0.319680 0.500010 -0.600672
O6    O     O_R   0.618810 0.319640 0.500000 -0.549006
O7    O     O_R   0.398000 0.500040 0.362160 -0.551841
O8    O     O_R   0.635590 0.500000 0.362150 -0.573136
C25   C     C_2   0.127078 0.622936 0.652614 0.459362
H8    H     H_    0.198537 0.696451 0.634661 0.066140
O9    O     O_2   0.102653 0.596561 0.737377 -0.480608
C26   C     C_2   0.181624 0.372764 0.257431 0.474163
H9    H     H_    0.223447 0.291878 0.216544 0.058098
O10   O     O_2   0.199440 0.474309 0.223253 -0.505837
C27   C     C_2   0.884939 0.385753 0.256402 0.924945
O11   O     O_2   0.826702 0.304190 0.213783 -0.613436
O12   O     O_R   0.900656 0.502045 0.216405 -0.709053
H10   H     H_    0.860694 0.507191 0.151591 0.322412
C28   C     C_2   0.691632 0.408853 0.976141 0.465093
H11   H     H_    0.770291 0.376249 0.020833 0.093903
O13   O     O_2   0.712845 0.394663 0.888363 -0.470895
C29   C     C_2   0.775066 0.109412 0.508858 0.850654
O14   O     O_2   0.807718 0.186517 0.568271 -0.553059
O15   O     O_R   0.875129 0.059356 0.438514 -0.772728
H12   H     H_    0.970285 0.096603 0.441408 0.305747
C30   C     C_2   0.139672 0.141142 0.583096 0.485991
H13   H     H_    0.094064 0.228897 0.566586 0.096937
O16   O     O_2   0.111425 0.098864 0.663061 -0.490304
C31   C     C_2   0.829728 0.626965 0.650768 0.483976
H14   H     H_    0.769666 0.705812 0.631500 0.043037
O17   O     O_2   0.824761 0.598750 0.735546 -0.453548

loop_
_geom_bond_atom_site_label_1
_geom_bond_atom_site_label_2
_ccdc_geom_bond_type
C17   C27   S    
C16   H2    S    
C27   O12   S    
C21   C22   D    
Cu2   O2    S    
C6    C7    A    
Cu1   O3    S    
C17   H3    S    
C9    C10   S    
C19   C20   S    
C19   O7    A    
C1    O2    A    
C7    C18   S    
C2    C12   S    
C31   H14   S    
C1    C4    S    
C12   O4    A    
C27   O11   D    
O15   H12   S    
C26   O10   D    
C3    C10   S    
C13   C14   A    
O12   H10   S    
C5    C6    A    
C6    C29   S    
C29   O14   D    
C21   C28   S    
C13   C31   S    
Cu1   N2    S    
C9    C30   S    
Cu1   O7    S    
C16   C26   S    
C15   N2    A    
Cu2   O6    S    
C25   O9    D    
Cu2   O8    S    
C3    C8    A    
C10   H7    S    
C22   H1    S    
Cu1   O5    S    
C12   O3    A    
C30   H13   S    
C20   C24   T    
C28   O13   D    
Cu2   O4    S    
C29   O15   S    
C9    H5    S    
Cu1   O1    S    
C15   C16   S    
C26   H9    S    
C10   H6    S    
C7    C8    A    
C25   H8    S    
C18   O6    A    
C14   C25   S    
C5    H4    S    
C21   C24   S    
C2    C23   T    
C30   O16   D    
C18   O5    A    
C22   C23   S    
C16   C17   S    
C13   N1    A    
Cu2   N1    S    
Cu1   Cu2   S    
C28   H11   S    
C4    C5    A    
C11   C15   A    
C14   N2    A    
C11   N1    A    
C11   C17   S    
C3    C4    A    
C1    O1    A    
C19   O8    A    
C8    C9    S    
C31   O17   D    
