data_mof_unit_15877.cif
_audit_creation_date              2012-12-10T16:57:06-0500
_audit_creation_method            fapswitch 2.2
_symmetry_space_group_name_H-M    P1
_symmetry_Int_Tables_number       1
_space_group_crystal_system       triclinic
_cell_length_a                    7.751747
_cell_length_b                    8.576119
_cell_length_c                    16.748004
_cell_angle_alpha                 91.567272
_cell_angle_beta                  81.689924
_cell_angle_gamma                 93.685033
_cell_volume                      1099.25359268

loop_
_atom_site_label
_atom_site_type_symbol
_atom_type_description
_atom_site_fract_x
_atom_site_fract_y
_atom_site_fract_z
_atom_type_partial_charge
C1    C     C_R   0.546199 0.794812 0.497887 0.971083
C2    C     C_R   0.389865 0.612890 0.235509 -0.231394
C3    C     C_R   0.620553 0.450997 0.856221 0.221911
C4    C     C_R   0.399097 0.663481 0.156733 0.215807
C5    C     C_R   0.462616 0.477966 0.906825 0.156343
C6    C     C_R   0.556298 0.647609 0.103828 0.158425
C7    C     C_R   0.308375 0.494444 0.874703 -0.209937
C8    C     C_R   0.705805 0.601582 0.132335 -0.202081
C9    C     C_R   0.311960 0.498266 0.791882 -0.203518
C10   C     C_R   0.695691 0.554575 0.211536 -0.203515
C11   C     C_2   0.457856 0.509279 0.992291 -0.261929
C12   C     C_R   0.453809 0.205185 0.502018 0.973942
C13   C     C_2   0.553883 0.630563 0.017798 -0.280587
C14   C     C_3   0.237049 0.723133 0.129691 -0.446496
C15   C     C_3   0.185986 0.875369 0.173643 -0.860054
C16   C     C_3   0.788245 0.418403 0.888088 -0.455602
C17   C     C_3   0.849226 0.256718 0.861445 -0.864335
C18   C     C_2   0.570593 0.958226 0.496592 -0.381428
C19   C     C_2   0.429430 0.041754 0.503128 -0.384429
C20   C     C_R   0.478688 0.498278 0.654143 0.876510
C21   C     C_R   0.522249 0.507381 0.346141 0.874960
C22   C     C_R   0.470498 0.485787 0.740971 -0.078506
C23   C     C_R   0.535588 0.553583 0.262398 -0.076604
C24   C     C_R   0.622865 0.458685 0.773188 -0.228954
H1    H     H_    0.745043 0.445471 0.733806 0.166626
H2    H     H_    0.296135 0.990703 0.509354 0.179093
H3    H     H_    0.022784 0.381424 0.439703 0.190236
H4    H     H_    0.977213 0.618564 0.560305 0.189159
H5    H     H_    0.151039 0.857053 0.239509 0.258136
H6    H     H_    0.295579 0.965831 0.163030 0.262201
H7    H     H_    0.070743 0.918185 0.150485 0.251648
H8    H     H_    0.256440 0.746105 0.064025 0.226571
H9    H     H_    0.127249 0.633164 0.141674 0.195030
H10   H     H_    0.745186 0.165257 0.881624 0.264520
H11   H     H_    0.883576 0.248786 0.794843 0.257975
H12   H     H_    0.267204 0.618329 0.275460 0.169311
H13   H     H_    0.967290 0.234575 0.888886 0.251735
H14   H     H_    0.891557 0.508930 0.865711 0.193326
H15   H     H_    0.773256 0.422846 0.954881 0.226924
H16   H     H_    0.811120 0.514165 0.232010 0.159107
H17   H     H_    0.192294 0.516066 0.767966 0.164048
H18   H     H_    0.645416 0.700937 0.976009 0.164774
H19   H     H_    0.367987 0.438090 0.034467 0.164663
H20   H     H_    0.187255 0.513197 0.913958 0.139505
H21   H     H_    0.826156 0.589027 0.091449 0.131797
H22   H     H_    0.703890 0.009272 0.490343 0.179107
N1    N     N_2   0.953500 0.457650 0.478520 -0.177318
N2    N     N_2   0.046500 0.542350 0.521480 -0.177923
O1    O     O_R   0.388470 0.738640 0.505270 -0.611831
O2    O     O_R   0.611530 0.261360 0.494730 -0.610055
O3    O     O_R   0.679650 0.711510 0.491500 -0.629555
O4    O     O_R   0.320350 0.288490 0.508500 -0.628225
O5    O     O_R   0.337210 0.515200 0.623500 -0.619885
O6    O     O_R   0.662790 0.484800 0.376500 -0.618535
O7    O     O_R   0.628380 0.488060 0.609730 -0.631119
O8    O     O_R   0.371620 0.511940 0.390270 -0.632029
Zn1   Zn    Zn3+2 0.305580 0.518120 0.509190 0.934937
Zn2   Zn    Zn3+2 0.694420 0.481880 0.490810 0.936437

loop_
_geom_bond_atom_site_label_1
_geom_bond_atom_site_label_2
_ccdc_geom_bond_type
C21   O8    A    
C2    C4    A    
C15   H7    S    
C10   C23   A    
C1    O3    A    
C9    H17   S    
N1    N2    D    
C14   H9    S    
O6    Zn2   S    
C1    C18   S    
N2    Zn1   S    
O3    Zn2   S    
C17   H13   S    
C7    H20   S    
C24   H1    S    
N1    Zn2   S    
C11   H19   S    
C11   C13   D    
C3    C24   A    
C16   C17   S    
C20   O7    A    
C18   H22   S    
C12   C19   S    
C4    C6    A    
C13   H18   S    
C12   O4    A    
C20   C22   S    
C15   H5    S    
C21   C23   S    
C5    C11   S    
C4    C14   S    
C21   O6    A    
C22   C24   A    
C9    C22   A    
C14   H8    S    
C17   H10   S    
C16   H15   S    
C2    H12   S    
O2    Zn2   S    
C7    C9    A    
O1    Zn1   S    
O8    Zn1   S    
C15   H6    S    
C10   H16   S    
C18   C19   D    
O4    Zn1   S    
O7    Zn2   S    
H3    N1    S    
C2    C23   A    
C5    C7    A    
C19   H2    S    
O5    Zn1   S    
C14   C15   S    
C20   O5    A    
C6    C8    A    
C17   H11   S    
C3    C5    A    
C8    H21   S    
C1    O1    A    
C8    C10   A    
H4    N2    S    
C3    C16   S    
C16   H14   S    
C12   O2    A    
C6    C13   S    
