data_mof_unit_48452.cif
_audit_creation_date              2012-12-10T18:50:03-0500
_audit_creation_method            fapswitch 2.2
_symmetry_space_group_name_H-M    P1
_symmetry_Int_Tables_number       1
_space_group_crystal_system       triclinic
_cell_length_a                    10.700916
_cell_length_b                    9.837801
_cell_length_c                    10.652169
_cell_angle_alpha                 90.125469
_cell_angle_beta                  90.342287
_cell_angle_gamma                 90.142549
_cell_volume                      1121.36471613

loop_
_atom_site_label
_atom_site_type_symbol
_atom_type_description
_atom_site_fract_x
_atom_site_fract_y
_atom_site_fract_z
_atom_type_partial_charge
C1    C     C_R   0.259709 0.500262 0.498478 0.960578
C2    C     C_3   0.520323 0.350766 0.929089 -0.377253
C3    C     C_R   0.061814 0.399306 0.429044 0.192380
C4    C     C_R   0.062645 0.608291 0.556785 0.172869
C5    C     C_R   0.933592 0.398644 0.432060 -0.158624
C6    C     C_R   0.934710 0.607768 0.553910 -0.168682
C7    C     C_R   0.871492 0.501677 0.495141 -0.092018
C8    C     C_R   0.126951 0.502096 0.495263 -0.152530
C9    C     C_R   0.547559 0.072291 0.599674 -0.052664
C10   C     C_R   0.547740 0.928421 0.599588 -0.047667
C11   C     C_R   0.452577 0.927680 0.400215 -0.038026
C12   C     C_R   0.453201 0.071481 0.399960 -0.044044
C13   C     C_R   0.500744 0.499670 0.257739 1.004073
C14   C     C_R   0.739693 0.500279 0.498192 0.944093
C15   C     C_R   0.501492 0.499659 0.742448 0.944958
C16   C     C_3   0.613447 0.584885 0.074522 0.395734
C17   C     C_3   0.378236 0.562091 0.072085 0.389464
C18   C     C_3   0.611795 0.588542 0.929677 -0.057155
C19   C     C_3   0.375188 0.554675 0.927299 -0.038152
C20   C     C_3   0.514027 0.350808 0.071521 -0.342225
C21   C     C_3   0.501568 0.498946 0.121581 -0.162807
C22   C     C_3   0.502340 0.497992 0.878980 -0.136323
H1    H     H_    0.414420 0.873070 0.320468 0.134525
H2    H     H_    0.416494 0.125378 0.319578 0.148044
H3    H     H_    0.606024 0.691098 0.110074 0.067082
H4    H     H_    0.373409 0.670771 0.101184 0.054768
H5    H     H_    0.595368 0.695501 0.899926 0.084864
H6    H     H_    0.361734 0.659563 0.890614 0.113039
H7    H     H_    0.599821 0.301869 0.109961 0.222823
H8    H     H_    0.432465 0.288505 0.101577 0.226133
H9    H     H_    0.611849 0.309082 0.898752 0.213669
H10   H     H_    0.447486 0.280560 0.891539 0.214076
H11   H     H_    0.882175 0.319851 0.382453 0.184160
H12   H     H_    0.884323 0.688254 0.601203 0.186605
H13   H     H_    0.585868 0.126918 0.679341 0.132754
H14   H     H_    0.586239 0.874341 0.679149 0.133046
N1    N     N_R   0.499970 0.857200 0.499970 -0.083622
N2    N     N_R   0.499970 0.142800 0.499970 -0.087715
O1    O     O_R   0.316750 0.614620 0.499990 -0.594185
O2    O     O_R   0.316750 0.385380 0.499990 -0.593179
O3    O     O_R   0.499970 0.614670 0.314790 -0.655992
O4    O     O_R   0.499970 0.385330 0.314790 -0.624270
O5    O     O_R   0.683220 0.614710 0.500010 -0.617739
O6    O     O_R   0.683220 0.385290 0.500010 -0.625334
O7    O     O_R   0.500010 0.614660 0.685200 -0.635473
O8    O     O_R   0.500010 0.385340 0.685200 -0.626185
Zn1   Zn    Zn3+2 0.499980 0.653120 0.500000 0.992856
Zn2   Zn    Zn3+2 0.499980 0.346880 0.500000 0.995136
F1    F     F_    0.724402 0.531839 0.121207 -0.610444
F2    F     F_    0.276156 0.496786 0.124536 -0.602431
I1    I     I_    0.792414 0.536737 0.852040 -0.226378
I2    I     I_    0.214940 0.439956 0.857764 -0.168757
I3    I     I_    0.143973 0.247646 0.312845 -0.216639
I4    I     I_    0.143986 0.772405 0.661449 -0.271214

loop_
_geom_bond_atom_site_label_1
_geom_bond_atom_site_label_2
_ccdc_geom_bond_type
C17   F2    S    
C2    C22   S    
O4    Zn2   S    
C11   C12   A    
C6    C7    A    
N1    Zn1   S    
C1    C8    S    
C9    C10   A    
C12   H2    S    
C1    O1    A    
N2    Zn2   S    
C15   O8    A    
C4    C8    A    
C14   O5    A    
C13   O3    A    
O3    Zn1   S    
C13   C21   S    
C20   H8    S    
C16   F1    S    
C19   H6    S    
C3    I3    S    
C16   C21   S    
C10   N1    A    
C17   H4    S    
C2    H10   S    
C14   O6    A    
C13   O4    A    
C17   C19   S    
C18   I1    S    
C5    C7    A    
C20   H7    S    
O7    Zn1   S    
C12   N2    A    
O8    Zn2   S    
C4    C6    A    
C15   O7    A    
C2    C20   S    
C6    H12   S    
C19   C22   S    
C20   C21   S    
C16   C18   S    
C3    C8    A    
C11   H1    S    
C16   H3    S    
C11   N1    A    
O2    Zn2   S    
C9    N2    A    
C9    H13   S    
C10   H14   S    
C1    O2    A    
C4    I4    S    
C18   C22   S    
O1    Zn1   S    
O5    Zn1   S    
C19   I2    S    
C15   C22   S    
C7    C14   S    
C18   H5    S    
O6    Zn2   S    
C5    H11   S    
C2    H9    S    
C3    C5    A    
C17   C21   S    
