data_mof_unit_12746.cif
_audit_creation_date              2012-12-11T15:23:36-0500
_audit_creation_method            fapswitch 2.2
_symmetry_space_group_name_H-M    P1
_symmetry_Int_Tables_number       1
_space_group_crystal_system       triclinic
_cell_length_a                    6.935061
_cell_length_b                    17.547335
_cell_length_c                    19.333068
_cell_angle_alpha                 109.611687
_cell_angle_beta                  90.098384
_cell_angle_gamma                 90.680685
_cell_volume                      2215.99845535

loop_
_atom_site_label
_atom_site_type_symbol
_atom_type_description
_atom_site_fract_x
_atom_site_fract_y
_atom_site_fract_z
_atom_type_partial_charge
O1    O     O_R   0.505810 0.439670 0.562310 -0.548329
O2    O     O_R   0.169070 0.404920 0.411210 -0.535567
O3    O     O_R   0.005550 0.560330 0.437690 -0.514538
C1    C     C_R   0.338433 0.381268 0.383205 0.742308
O4    O     O_R   0.175650 0.430000 0.560110 -0.541049
O5    O     O_R   0.012170 0.585580 0.587650 -0.525188
C2    C     C_R   0.344559 0.415173 0.581972 0.732096
O6    O     O_R   0.499180 0.414420 0.412350 -0.542030
O7    O     O_3   0.341430 0.551020 0.508860 -0.354497
V1    V     V_3+5 0.063930 0.490540 0.498360 1.488263
O8    O     O_R   0.682850 0.595080 0.588790 -0.544817
C3    C     C_R   0.852688 0.617829 0.616967 0.743757
O9    O     O_R   0.676280 0.570000 0.439890 -0.538046
C4    C     C_R   0.845700 0.582239 0.415833 0.762278
V2    V     V_3+5 0.564760 0.509460 0.501640 1.475517
O10   O     O_3   0.837130 0.448980 0.491140 -0.384651
C5    C     C_R   0.752929 0.879130 0.184728 0.202204
C6    C     C_R   0.910816 0.870819 0.135710 -0.134129
C7    C     C_R   0.057732 0.816324 0.135351 -0.229352
C8    C     C_R   0.048561 0.768644 0.180582 0.094027
C9    C     C_R   0.889753 0.774502 0.227399 0.027240
C10   C     C_R   0.740756 0.829662 0.229516 0.046585
C11   C     C_R   0.196147 0.714497 0.179097 -0.176708
C12   C     C_R   0.187106 0.665926 0.223202 -0.143193
C13   C     C_R   0.029578 0.670074 0.270362 0.045551
C14   C     C_R   0.880612 0.725253 0.272498 0.027225
C15   C     C_R   0.721853 0.731133 0.319340 0.095537
C16   C     C_R   0.574263 0.785270 0.320817 -0.182658
C17   C     C_R   0.583244 0.833808 0.276680 -0.145400
C18   C     C_R   0.017382 0.620599 0.315139 0.200281
C19   C     C_R   0.859678 0.629000 0.364242 -0.129831
C20   C     C_R   0.712774 0.683501 0.364618 -0.235675
H1    H     H_    0.179376 0.810052 0.098753 0.160224
H2    H     H_    0.319798 0.709725 0.143725 0.140566
H3    H     H_    0.306452 0.625915 0.220030 0.183241
H4    H     H_    0.591227 0.689814 0.401261 0.156131
H5    H     H_    0.450659 0.790061 0.356209 0.136652
H6    H     H_    0.463900 0.873815 0.279856 0.181939
C21   C     C_3   0.774901 0.809109 0.746202 0.238247
C22   C     C_3   0.938627 0.773440 0.691675 -0.253375
H7    H     H_    0.982417 0.793237 0.645088 0.131015
C23   C     C_3   0.867927 0.687851 0.687144 -0.145463
C24   C     C_3   0.699826 0.723899 0.740190 -0.115880
C25   C     C_3   0.832595 0.726809 0.806362 -0.214575
C26   C     C_3   0.999316 0.690216 0.752381 0.314435
C27   C     C_3   0.065286 0.775780 0.757920 0.189022
C28   C     C_3   0.903515 0.812866 0.811991 -0.116681
H8    H     H_    0.550802 0.699144 0.732239 0.183629
H9    H     H_    0.789866 0.707569 0.853370 0.157054
C29   C     C_3   0.509776 0.244391 0.301701 -0.128212
C30   C     C_3   0.355835 0.179564 0.261309 -0.145030
H10   H     H_    0.330881 0.121267 0.270760 0.162447
H11   H     H_    0.613906 0.239644 0.343702 0.115690
C31   C     C_3   0.414388 0.189274 0.187491 -0.038211
C32   C     C_3   0.562647 0.253704 0.227767 0.242959
C33   C     C_3   0.415046 0.321323 0.238861 -0.168974
C34   C     C_3   0.261788 0.256097 0.198689 -0.148101
C35   C     C_3   0.203252 0.246817 0.273083 -0.111027
C36   C     C_3   0.356721 0.310955 0.312435 -0.066696
H12   H     H_    0.442144 0.379359 0.229165 0.160205
H13   H     H_    0.160219 0.260955 0.155977 0.136635
H14   H     H_    0.054553 0.243541 0.293009 0.144459
C37   C     C_R   0.249042 0.121742 0.816694 0.151483
C38   C     C_R   0.412646 0.129338 0.863852 -0.121421
C39   C     C_R   0.564397 0.182196 0.860874 -0.249723
C40   C     C_R   0.554252 0.228840 0.814413 0.089756
C41   C     C_R   0.390606 0.222562 0.769259 -0.000242
C42   C     C_R   0.238349 0.168740 0.770038 0.095199
C43   C     C_R   0.704898 0.282427 0.812808 -0.162512
C44   C     C_R   0.694169 0.329142 0.766756 -0.175515
C45   C     C_R   0.532076 0.323536 0.721644 0.085313
C46   C     C_R   0.379193 0.270342 0.723080 0.067964
C47   C     C_R   0.214823 0.264932 0.678398 0.098972
C48   C     C_R   0.065181 0.211008 0.679133 -0.211392
C49   C     C_R   0.076741 0.163393 0.724123 -0.156023
C50   C     C_R   0.520145 0.370173 0.675187 -0.184165
C51   C     C_R   0.355498 0.365662 0.630969 -0.068660
C52   C     C_R   0.202881 0.313198 0.633460 -0.211658
H15   H     H_    0.690000 0.188169 0.895866 0.136034
H16   H     H_    0.831813 0.288007 0.847027 0.135351
H17   H     H_    0.813112 0.369603 0.766347 0.149483
H18   H     H_    0.638355 0.410766 0.674139 0.137000
H19   H     H_    0.075975 0.308838 0.599438 0.123323
H20   H     H_    0.938142 0.205830 0.645043 0.136980
H21   H     H_    0.956728 0.123017 0.723192 0.171167
O11   O     O_R   0.271890 0.085690 0.087580 -0.537776
O12   O     O_R   0.595690 0.070020 0.939870 -0.551832
O13   O     O_R   0.758900 0.914390 0.912370 -0.543611
C53   C     C_R   0.426333 0.082966 0.916133 0.681201
O14   O     O_R   0.602020 0.095100 0.088770 -0.519932
O15   O     O_R   0.765280 0.939660 0.062330 -0.510708
C54   C     C_R   0.432663 0.118883 0.116705 0.753016
O16   O     O_R   0.265520 0.060430 0.937620 -0.550292
O17   O     O_3   0.429560 0.949050 0.991100 -0.351930
V3    V     V_3+5 0.707160 0.009450 0.001650 1.470754
O18   O     O_R   0.094540 0.929890 0.060190 -0.534928
C55   C     C_R   0.925022 0.917658 0.084183 0.782156
O19   O     O_R   0.088200 0.904800 0.911290 -0.534725
C56   C     C_R   0.918533 0.882607 0.882636 0.697577
V4    V     V_3+5 0.206300 0.990390 0.998440 1.473678
O20   O     O_3   0.934030 0.050940 0.008900 -0.381408
Br1   Br    Br    0.561397 0.961886 0.195697 -0.615384
N1    N     N_3   0.656987 0.875396 0.741559 -0.669692
H22   H     H_    0.750843 0.920810 0.737669 0.226657
H23   H     H_    0.585586 0.899734 0.791445 0.237052
Br2   Br    Br    0.167143 0.604940 0.758087 -0.579906
N2    N     N_3   0.263308 0.804902 0.766498 -0.626229
H24   H     H_    0.324773 0.783034 0.714352 0.244261
H25   H     H_    0.258059 0.867608 0.779518 0.216814
N3    N     N_3   0.759118 0.257892 0.202967 -0.667666
H26   H     H_    0.819872 0.312314 0.237164 0.229019
H27   H     H_    0.750992 0.262380 0.150496 0.217839
N4    N     N_3   0.094444 0.065389 0.813601 -0.696596
H28   H     H_    0.016333 0.085135 0.862429 0.246715
H29   H     H_    0.150748 0.008012 0.805113 0.222934
Br3   Br    Br    0.208498 0.537663 0.304003 -0.623306

loop_
_geom_bond_atom_site_label_1
_geom_bond_atom_site_label_2
_ccdc_geom_bond_type
C25   H9    S    
C35   H14   S    
C9    C14   A    
C39   H15   S    
C10   C17   A    
C47   C48   A    
C7    C8    A    
C4    C19   S    
C1    O6    A    
O14   V3    S    
C18   Br3   S    
C51   C52   A    
C26   Br2   S    
C42   C49   A    
C22   C27   S    
C14   C15   A    
C29   C36   S    
C20   H4    S    
C16   C17   A    
C6    C7    A    
O5    C3    A    
C18   C19   A    
C40   C43   A    
V2    O10   S    
C28   C56   S    
C33   C34   S    
C41   C46   A    
C44   H17   S    
N3    H26   S    
C3    C23   S    
C27   C28   S    
O8    V2    S    
C52   H19   S    
C49   H21   S    
O12   V3    S    
C17   H6    S    
N2    H24   S    
C44   C45   A    
O1    V2    S    
C6    C55   S    
O11   V4    S    
C24   H8    S    
C25   C28   S    
C2    C51   S    
C22   C23   S    
C40   C41   A    
O13   V3    S    
O9    C4    A    
C27   N2    S    
C53   O16   A    
N2    H25   S    
O17   V3    S    
C38   C53   S    
O4    V1    S    
C29   C30   S    
C12   H3    S    
C48   C49   A    
C41   C42   A    
C29   H11   S    
C12   C13   A    
C7    H1    S    
C50   H18   S    
C21   C22   S    
O4    C2    A    
C21   C24   S    
C35   C36   S    
C26   C27   S    
O15   C55   A    
C33   H12   S    
C23   C26   S    
O2    C1    A    
C5    Br1   S    
C31   C54   S    
O14   C54   A    
C19   C20   A    
C8    C11   A    
O17   V4    S    
C47   C52   A    
C11   H2    S    
O18   C55   A    
C32   C33   S    
C5    C6    A    
N1    H23   S    
C30   C35   S    
C50   C51   A    
C34   H13   S    
O16   V4    S    
O3    C4    A    
C22   H7    S    
C39   C40   A    
O6    V2    S    
O19   V4    S    
O12   C53   A    
C24   C25   S    
C23   C24   S    
O2    V1    S    
N1    H22   S    
C25   C26   S    
C21   C28   S    
N4    H28   S    
O7    V1    S    
C13   C18   A    
C31   C32   S    
C15   C20   A    
O1    C2    A    
C29   C32   S    
C48   H20   S    
C46   C47   A    
O5    V1    S    
O8    C3    A    
C21   N1    S    
C37   C42   A    
C5    C10   A    
C33   C36   S    
C30   C31   S    
C38   C39   A    
O9    V2    S    
C13   C14   A    
C30   H10   S    
C32   N3    S    
O3    V1    S    
V1    O10   S    
C34   C35   S    
C45   C50   A    
C16   H5    S    
O18   V4    S    
C1    C36   S    
V4    O20   S    
O7    V2    S    
C43   C44   A    
N3    H27   S    
O13   C56   A    
C11   C12   A    
O15   V3    S    
C37   C38   A    
C37   N4    S    
C45   C46   A    
C8    C9    A    
O19   C56   A    
C15   C16   A    
C43   H16   S    
O11   C54   A    
C9    C10   A    
V3    O20   S    
N4    H29   S    
C31   C34   S    
