data_mof_unit_16426.cif
_audit_creation_date              2013-03-05T15:52:31-0500
_audit_creation_method            fapswitch 2.2
_symmetry_space_group_name_H-M    P1
_symmetry_Int_Tables_number       1
_space_group_crystal_system       triclinic
_cell_length_a                    6.97153
_cell_length_b                    20.461778
_cell_length_c                    24.386189
_cell_angle_alpha                 89.857622
_cell_angle_beta                  90.656558
_cell_angle_gamma                 89.457757
_cell_volume                      3478.29153569

loop_
_atom_site_label
_atom_site_type_symbol
_atom_site_description
_atom_site_fract_x
_atom_site_fract_y
_atom_site_fract_z
_atom_type_partial_charge
O1    O     O_R   0.507310 0.423620 0.460450 -0.591871
O2    O     O_R   0.170760 0.556060 0.437190 -0.577389
O3    O     O_R   0.004040 0.576380 0.539550 -0.590497
C1    C     C_R   0.338447 0.576347 0.421472 0.967916
O4    O     O_R   0.177350 0.422870 0.454070 -0.592967
O5    O     O_R   0.010680 0.442240 0.556560 -0.591792
C2    C     C_R   0.345852 0.398708 0.443638 0.965008
O6    O     O_R   0.500670 0.557760 0.443440 -0.589485
O7    O     O_3   0.340380 0.506510 0.533610 -0.278061
V1    V     V_3+5 0.064130 0.498790 0.493770 1.177733
O8    O     O_R   0.681170 0.443940 0.562810 -0.590917
C3    C     C_R   0.851059 0.423865 0.578530 0.971440
O9    O     O_R   0.674570 0.577130 0.545930 -0.600088
C4    C     C_R   0.842734 0.601262 0.556265 1.025014
V2    V     V_3+5 0.564560 0.501210 0.506230 1.168094
O10   O     O_3   0.838170 0.493490 0.466390 -0.273903
C5    C     C_R   0.975904 0.836964 0.912433 -0.202081
C6    C     C_R   0.848067 0.662453 0.588078 -0.280377
C7    C     C_R   0.026425 0.719881 0.906885 -0.130749
C8    C     C_R   0.022469 0.777101 0.938328 -0.084268
C9    C     C_R   0.935436 0.838523 0.855736 -0.208739
C10   C     C_R   0.942216 0.780866 0.823221 0.114024
C11   C     C_R   0.987942 0.721306 0.850305 0.129382
C12   C     C_R   0.907096 0.780116 0.764951 0.045385
C13   C     C_R   0.917361 0.719596 0.735250 0.078915
C14   C     C_R   0.962210 0.661969 0.764784 -0.191340
C15   C     C_R   0.996631 0.663027 0.820905 -0.207318
C16   C     C_R   0.862956 0.837775 0.735328 -0.187913
C17   C     C_R   0.829025 0.836695 0.679122 -0.169795
C18   C     C_R   0.836806 0.778327 0.649802 0.107722
C19   C     C_R   0.881946 0.718738 0.677040 0.131671
C20   C     C_R   0.798690 0.779489 0.593144 -0.344266
C21   C     C_R   0.799022 0.721768 0.562429 0.618612
C22   C     C_R   0.888751 0.660914 0.644673 -0.330512
H1    H     H_    0.031258 0.617369 0.841583 0.146463
H2    H     H_    0.922082 0.613653 0.662018 0.129981
H3    H     H_    0.795117 0.882343 0.658338 0.148970
H4    H     H_    0.061266 0.673608 0.926554 0.168675
H5    H     H_    0.902567 0.885796 0.838314 0.114541
H6    H     H_    0.972451 0.614691 0.745768 0.132846
H7    H     H_    0.853201 0.885071 0.754355 0.154964
H8    H     H_    0.767439 0.825440 0.572542 0.146768
C23   C     C_3   0.719583 0.236740 0.786834 -0.206859
C24   C     C_3   0.076163 0.260600 0.795856 -0.342964
C25   C     C_3   0.056517 0.310714 0.748063 -0.339864
H9    H     H_    0.671349 0.337815 0.755139 0.194798
H10   H     H_    0.223672 0.239272 0.795970 0.142000
H11   H     H_    0.060753 0.286076 0.835755 0.210284
H12   H     H_    0.022487 0.359772 0.765219 0.171880
H13   H     H_    0.196051 0.315313 0.726905 0.186713
C26   C     C_1   0.864155 0.377961 0.623824 -0.270757
C27   C     C_3   0.925799 0.205227 0.789915 0.208821
C28   C     C_3   0.705781 0.288121 0.739338 -0.439632
C29   C     C_3   0.896046 0.290435 0.706917 0.307560
C30   C     C_3   0.937343 0.219778 0.685012 -0.245307
C31   C     C_3   0.968494 0.170496 0.734060 -0.222060
C32   C     C_1   0.877726 0.338906 0.661294 -0.066841
C33   C     C_1   0.945764 0.158494 0.836886 -0.062447
C34   C     C_1   0.959872 0.120726 0.875258 -0.257581
H14   H     H_    0.121627 0.154266 0.735705 0.188977
H15   H     H_    0.807827 0.205166 0.660939 0.089163
H16   H     H_    0.615481 0.197468 0.777265 0.074421
H17   H     H_    0.585406 0.275029 0.711233 0.194385
C35   C     C_3   0.594746 0.704232 0.269939 0.353905
C36   C     C_3   0.240404 0.698113 0.245865 -0.315780
C37   C     C_3   0.293754 0.738818 0.194277 -0.232718
H18   H     H_    0.688366 0.736752 0.188442 0.239559
H19   H     H_    0.093972 0.711540 0.259577 0.172628
H20   H     H_    0.237789 0.645330 0.235013 0.196314
H21   H     H_    0.370826 0.705372 0.165819 0.196275
C38   C     C_1   0.476551 0.879094 0.124988 -0.265367
C39   C     C_3   0.386447 0.710395 0.293346 0.141823
C40   C     C_3   0.629923 0.759678 0.226067 -0.390501
C41   C     C_3   0.436145 0.794819 0.210495 0.029414
C42   C     C_3   0.365702 0.831602 0.263197 0.414579
C43   C     C_3   0.358559 0.782847 0.313380 -0.394241
C44   C     C_1   0.461506 0.841357 0.163372 0.089683
C45   C     C_1   0.362259 0.661845 0.338865 0.082678
C46   C     C_1   0.347410 0.622611 0.376192 -0.287387
H22   H     H_    0.483703 0.793816 0.340540 0.048605
H23   H     H_    0.475993 0.868824 0.274262 0.036969
H24   H     H_    0.697059 0.710482 0.305192 0.043664
C47   C     C_R   0.471995 0.163132 0.087802 -0.435187
C48   C     C_R   0.349025 0.337698 0.411467 -0.158876
C49   C     C_R   0.524879 0.280169 0.092072 0.586209
C50   C     C_R   0.504722 0.222707 0.060799 -0.285488
C51   C     C_R   0.452835 0.161669 0.145308 0.556530
C52   C     C_R   0.434429 0.221231 0.175952 -0.111142
C53   C     C_R   0.474305 0.281274 0.148557 -0.202271
C54   C     C_R   0.384209 0.222910 0.233115 0.136413
C55   C     C_R   0.407033 0.281583 0.264140 0.070004
C56   C     C_R   0.447561 0.339368 0.235552 -0.210892
C57   C     C_R   0.468547 0.340719 0.178657 -0.045917
C58   C     C_R   0.299705 0.169114 0.259487 -0.201599
C59   C     C_R   0.260291 0.169774 0.315127 -0.224724
C60   C     C_R   0.297486 0.224877 0.347155 0.012104
C61   C     C_R   0.372041 0.281948 0.322199 0.057606
C62   C     C_R   0.253921 0.224183 0.403598 0.626870
C63   C     C_R   0.273393 0.281264 0.434563 -0.327324
C64   C     C_R   0.403214 0.337576 0.356189 -0.252855
H25   H     H_    0.464638 0.382072 0.340853 0.121129
H26   H     H_    0.226598 0.281738 0.476801 0.141092
H27   H     H_    0.196209 0.126673 0.332845 0.176948
H28   H     H_    0.445739 0.385858 0.256140 0.158922
H29   H     H_    0.251188 0.126751 0.237421 0.189935
O11   O     O_R   0.323590 0.942280 0.056590 -0.595475
O12   O     O_R   0.647030 0.077140 0.045940 -0.611119
O13   O     O_R   0.813570 0.057750 0.943430 -0.596669
C65   C     C_R   0.478290 0.100990 0.056740 1.050382
O14   O     O_R   0.653510 0.943950 0.062820 -0.580219
O15   O     O_R   0.820100 0.923600 0.960440 -0.585495
C66   C     C_R   0.485751 0.924033 0.078795 0.990938
O16   O     O_R   0.317060 0.076430 0.039590 -0.594099
O17   O     O_3   0.483830 0.993520 0.966410 -0.277076
V3    V     V_3+5 0.760140 0.001200 0.006230 1.166779
O18   O     O_R   0.149560 0.922820 0.954030 -0.592731
C67   C     C_R   0.981288 0.898868 0.943485 0.915672
O19   O     O_R   0.143080 0.056020 0.937150 -0.593116
C68   C     C_R   0.973162 0.075927 0.921314 0.977265
V4    V     V_3+5 0.259690 0.998730 0.993720 1.170024
O20   O     O_3   0.986120 0.006480 0.033580 -0.273548
C69   C     C_2   0.654613 0.265170 0.840828 0.571989
H30   H     H_    0.551927 0.238639 0.865257 0.019389
O21   O     O_2   0.718085 0.316710 0.858048 -0.546288
C70   C     C_2   0.850174 0.109615 0.725504 0.481797
H31   H     H_    0.695974 0.113159 0.719594 0.040962
O22   O     O_2   0.927385 0.055827 0.724562 -0.586479
C71   C     C_2   0.101747 0.216985 0.644972 0.517685
H32   H     H_    0.071439 0.210620 0.601564 0.014249
O23   O     O_2   0.267907 0.223012 0.660341 -0.625820
O24   O     O_3   0.616834 0.642383 0.243955 -0.589235
C72   C     C_3   0.746966 0.601546 0.273010 -0.077612
H33   H     H_    0.699227 0.592861 0.315706 0.109981
H34   H     H_    0.893216 0.622379 0.273175 0.116310
H35   H     H_    0.754044 0.553525 0.252099 0.187734
C73   C     C_2   0.117906 0.760874 0.162465 0.583569
H36   H     H_    0.086546 0.812300 0.156048 0.099365
O25   O     O_2   0.011057 0.720422 0.142199 -0.553353
O26   O     O_3   0.766530 0.723676 0.506335 -0.620859
C74   C     C_3   0.569128 0.734379 0.496161 -0.197035
H37   H     H_    0.523347 0.784036 0.509406 0.126907
H38   H     H_    0.480265 0.696452 0.516273 0.136268
H39   H     H_    0.542201 0.731069 0.451323 0.167192
C75   C     C_2   0.185577 0.795623 0.349294 0.629209
H40   H     H_    0.166075 0.843859 0.366876 0.001876
O27   O     O_2   0.068624 0.753361 0.359457 -0.621224
C76   C     C_2   0.778277 0.808107 0.245543 0.451828
H41   H     H_    0.845970 0.803439 0.285456 0.085859
O28   O     O_2   0.818999 0.854761 0.216852 -0.570073
O29   O     O_3   0.183716 0.861051 0.252726 -0.610409
C77   C     C_3   0.192398 0.929824 0.257163 -0.190355
H42   H     H_    0.292637 0.950534 0.226648 0.147499
H43   H     H_    0.235090 0.944578 0.299413 0.103906
H44   H     H_    0.048026 0.950892 0.248582 0.194435
C78   C     C_2   0.467649 0.406163 0.151902 0.580277
H45   H     H_    0.402302 0.413034 0.111707 0.077801
O30   O     O_2   0.536082 0.453548 0.175104 -0.583521
O31   O     O_3   0.603035 0.334554 0.067333 -0.602457
C79   C     C_3   0.804002 0.332010 0.075001 -0.111703
H46   H     H_    0.867784 0.288140 0.055055 0.122063
H47   H     H_    0.844161 0.332985 0.119317 0.103960
H48   H     H_    0.866961 0.375768 0.055515 0.184912
C80   C     C_2   0.526821 0.224551 0.999936 0.616301
H49   H     H_    0.542671 0.179818 0.976608 -0.049866
O32   O     O_2   0.522926 0.276138 0.974666 -0.520995
O33   O     O_3   0.460749 0.101126 0.170681 -0.654458
C81   C     C_3   0.649677 0.089832 0.190077 -0.279103
H50   H     H_    0.690998 0.125844 0.222114 0.151023
H51   H     H_    0.754684 0.090603 0.156041 0.159023
H52   H     H_    0.656881 0.040524 0.209060 0.177851
O34   O     O_3   0.173194 0.169484 0.427160 -0.630413
C82   C     C_3   0.310541 0.139494 0.462136 -0.270014
H53   H     H_    0.343408 0.170716 0.498256 0.151693
H54   H     H_    0.444477 0.127087 0.439783 0.142096
H55   H     H_    0.250401 0.093119 0.477743 0.178934
C83   C     C_2   0.067139 0.773652 0.998087 0.562791
H56   H     H_    0.056704 0.816864 0.023600 -0.017195
O35   O     O_2   0.116679 0.722224 0.019733 -0.541851

loop_
_geom_bond_atom_site_label_1
_geom_bond_atom_site_label_2
_geom_bond_distance
_ccdc_geom_bond_type
C13   C19   1.438217 A    
C47   C51   1.410486 A    
O34   C82   1.410125 S    
C58   H29   1.076581 S    
V3    O20   1.708210 S    
C78   O30   1.221940 D    
C40   C41   1.566769 S    
C4    C6    1.475123 S    
O2    C1    1.305586 A    
C59   C60   1.397789 A    
C74   H39   1.109633 S    
C38   C44   1.218029 T    
C1    O6    1.299089 A    
C71   H32   1.085460 S    
C3    C26   1.449640 S    
O17   V3    2.154511 S    
C81   H51   1.113163 S    
O11   C66   1.299098 A    
C49   C50   1.410283 A    
V4    O20   2.155213 S    
C14   C15   1.386979 A    
C40   C76   1.512516 S    
O13   V3    1.958428 S    
C16   C17   1.388510 A    
C80   O32   1.220887 D    
C74   H38   1.113901 S    
O5    C3    1.298979 A    
C18   C19   1.418044 A    
C23   C27   1.570982 S    
C51   O33   1.383721 S    
C42   O29   1.419617 S    
V2    O10   2.155195 S    
C37   C41   1.571523 S    
C16   H7    1.076195 S    
C5    C8    1.410132 A    
O18   C67   1.298891 A    
C77   H44   1.108678 S    
O19   C68   1.303035 A    
C56   C57   1.397046 A    
C39   C45   1.499813 S    
O8    V2    1.971320 S    
C23   C28   1.563837 S    
C76   H41   1.080453 S    
C59   H27   1.083542 S    
C72   H33   1.111103 S    
C41   C44   1.503649 S    
C60   C62   1.412990 A    
C77   H42   1.112492 S    
C47   C65   1.482223 S    
O1    V2    1.984136 S    
C11   C15   1.394144 A    
O7    V1    2.154420 S    
C22   H2    1.076837 S    
C24   H10   1.113291 S    
C65   O16   1.300713 A    
O11   V4    1.961894 S    
C52   C53   1.428156 A    
C24   C27   1.556733 S    
C83   O35   1.221246 D    
C2    C48   1.476178 S    
O9    C4    1.298684 A    
C38   C66   1.454716 S    
C77   H43   1.112433 S    
O12   C65   1.299329 A    
O13   C68   1.299105 A    
C13   C14   1.410865 A    
C82   H54   1.114144 S    
C54   C58   1.410590 A    
C81   H52   1.109489 S    
O19   V4    1.971392 S    
C74   H37   1.111950 S    
O26   C74   1.410549 S    
C19   C22   1.424640 A    
C41   C42   1.572152 S    
C48   C64   1.404138 A    
C43   H22   1.114180 S    
C57   C78   1.488078 S    
C24   H11   1.110777 S    
C12   C13   1.437774 A    
C1    C46   1.454929 S    
C73   O25   1.220458 D    
C8    C83   1.488069 S    
C81   H50   1.112676 S    
O4    C2    1.298304 A    
C49   C53   1.425943 A    
C45   C46   1.218146 T    
C42   H23   1.118683 S    
C15   H1    1.084434 S    
C33   C34   1.214644 T    
C28   C29   1.552990 S    
C5    C9    1.408168 A    
O18   V4    1.987934 S    
O31   C79   1.411797 S    
C7    C11   1.402768 A    
C42   C43   1.578483 S    
C17   C18   1.394434 A    
C7    H4    1.084566 S    
O16   V4    1.987351 S    
C79   H46   1.113406 S    
C9    H5    1.077104 S    
C35   O24   1.424536 S    
C25   H12   1.113014 S    
C35   C40   1.580229 S    
C36   H19   1.110137 S    
C35   H24   1.119122 S    
C60   C61   1.421065 A    
C47   C50   1.405844 A    
C30   C31   1.574347 S    
C79   H47   1.113527 S    
C79   H48   1.109162 S    
C39   C43   1.573087 S    
C31   C70   1.514143 S    
C55   C61   1.439474 A    
C6    C22   1.406020 A    
C23   C69   1.513207 S    
O12   V3    1.993952 S    
O3    C4    1.300258 A    
C27   C33   1.494733 S    
H18   C40   1.111324 S    
C62   O34   1.384102 S    
C43   C75   1.519551 S    
C75   O27   1.221033 D    
C83   H56   1.084786 S    
C52   C54   1.441574 A    
C25   C29   1.554237 S    
C62   C63   1.399248 A    
O6    V2    1.961558 S    
O9    V2    1.987892 S    
O33   C81   1.411150 S    
C37   C73   1.508107 S    
C49   O31   1.383790 S    
C69   O21   1.221101 D    
O24   C72   1.411127 S    
O2    V1    1.965084 S    
C55   C56   1.403797 A    
C61   C64   1.426588 A    
C24   C25   1.554473 S    
C29   C30   1.567802 S    
C34   C68   1.449538 S    
C76   O28   1.219749 D    
O1    C2    1.302399 A    
C48   C63   1.394179 A    
C12   C16   1.411484 A    
C75   H40   1.085074 S    
C71   O23   1.220873 D    
O5    V1    1.958263 S    
O8    C3    1.303103 A    
C82   H55   1.109258 S    
C5    C67   1.477926 S    
C36   C39   1.555549 S    
C37   H21   1.114741 S    
O29   C77   1.413451 S    
O15   C67   1.300284 A    
C20   C21   1.400126 A    
C7    C8    1.401379 A    
O7    V2    1.709162 S    
O4    V1    1.993820 S    
O3    V1    1.987294 S    
V1    O10   1.708391 S    
C18   C20   1.404110 A    
C28   H17   1.112534 S    
C14   H6    1.075941 S    
C54   C55   1.429832 A    
C70   H31   1.084710 S    
C25   H13   1.111006 S    
C21   O26   1.384375 S    
C72   H35   1.109122 S    
C36   H20   1.112892 S    
C30   H15   1.114951 S    
H9    C28   1.113333 S    
C64   H25   1.077740 S    
C10   C12   1.439304 A    
C35   C39   1.570477 S    
C53   C57   1.422714 A    
C58   C59   1.387548 A    
C6    C21   1.401648 A    
O14   C66   1.305509 A    
C80   H49   1.084333 S    
C56   H28   1.076744 S    
C82   H53   1.112386 S    
C31   H14   1.115282 S    
C26   C32   1.214691 T    
C63   H26   1.084046 S    
C30   C71   1.514939 S    
C51   C52   1.436664 A    
C72   H34   1.108801 S    
C36   C37   1.557582 S    
C17   H3    1.084394 S    
C78   H45   1.084412 S    
C70   O22   1.220961 D    
C20   H8    1.084074 S    
C10   C11   1.416640 A    
C73   H36   1.083323 S    
O15   V3    1.987408 S    
C50   C80   1.494371 S    
C69   H30   1.085170 S    
C9    C10   1.423815 A    
O14   V3    1.965012 S    
O17   V4    1.708118 S    
C27   C31   1.568129 S    
C23   H16   1.111298 S    
C29   C32   1.492201 S    
