data_mof_unit_44658.cif
_audit_creation_date              2012-12-10T20:34:52-0500
_audit_creation_method            fapswitch 2.2
_symmetry_space_group_name_H-M    P1
_symmetry_Int_Tables_number       1
_space_group_crystal_system       triclinic
_cell_length_a                    10.63605
_cell_length_b                    10.680781
_cell_length_c                    9.868542
_cell_angle_alpha                 89.639011
_cell_angle_beta                  90.262207
_cell_angle_gamma                 90.139051
_cell_volume                      1121.04219138

loop_
_atom_site_label
_atom_site_type_symbol
_atom_type_description
_atom_site_fract_x
_atom_site_fract_y
_atom_site_fract_z
_atom_type_partial_charge
C1    C     C_R   0.504562 0.259932 0.500355 0.884783
C2    C     C_3   0.878628 0.502363 0.499465 0.194108
C3    C     C_3   0.928427 0.615623 0.581322 -0.405404
C4    C     C_3   0.927823 0.513059 0.351805 -0.400071
C5    C     C_R   0.525820 0.062796 0.623438 0.097657
C6    C     C_R   0.525832 0.128571 0.501216 -0.112899
C7    C     C_R   0.549593 0.065544 0.379635 -0.234095
C8    C     C_R   0.548721 0.936021 0.379160 -0.229670
C9    C     C_R   0.524057 0.871321 0.500262 -0.152627
C10   C     C_R   0.524661 0.934852 0.622999 0.154002
C11   C     C_3   0.434307 0.927946 0.739417 -0.043907
C12   C     C_R   0.257607 0.500962 0.499639 0.828884
C13   C     C_3   0.437454 0.070192 0.740456 -0.520801
C14   C     C_R   0.391618 0.478012 0.070767 0.221534
C15   C     C_R   0.604615 0.532581 0.072173 -0.146243
C16   C     C_R   0.604753 0.532160 0.928330 -0.142895
C17   C     C_R   0.391293 0.479476 0.928226 0.204441
C18   C     C_3   0.311509 0.365221 0.921386 -0.517418
C19   C     C_3   0.314241 0.361472 0.074852 -0.513434
C20   C     C_R   0.503811 0.740011 0.499727 0.874288
C21   C     C_R   0.742305 0.501512 0.499994 0.826824
C22   C     C_3   0.071801 0.379446 0.565141 -0.407113
C23   C     C_3   0.927495 0.379157 0.564139 -0.402089
C24   C     C_3   0.072867 0.616208 0.579683 -0.404660
C25   C     C_3   0.070427 0.510294 0.351668 -0.395708
C26   C     C_3   0.121096 0.501916 0.499072 0.192231
H1    H     H_    0.106039 0.371113 0.671344 0.169194
H2    H     H_    0.894850 0.601957 0.304025 0.166508
H3    H     H_    0.107379 0.704689 0.532433 0.151519
H4    H     H_    0.892351 0.704677 0.536822 0.154539
H5    H     H_    0.559634 0.115191 0.284205 0.170574
H6    H     H_    0.558421 0.887764 0.283534 0.173017
H7    H     H_    0.340652 0.890815 0.708423 0.121693
H8    H     H_    0.345740 0.113013 0.712035 0.173429
H9    H     H_    0.483581 0.111304 0.831120 0.208779
H10   H     H_    0.689621 0.557357 0.126249 0.144391
H11   H     H_    0.107106 0.296644 0.508987 0.153174
H12   H     H_    0.689834 0.556589 0.874676 0.148419
H13   H     H_    0.216691 0.385703 0.879448 0.189735
H14   H     H_    0.360515 0.285627 0.874075 0.215111
H15   H     H_    0.220192 0.376837 0.118972 0.189478
H16   H     H_    0.366540 0.279989 0.117224 0.213284
H17   H     H_    0.892372 0.297231 0.505757 0.157435
H18   H     H_    0.892636 0.369070 0.669878 0.174368
H19   H     H_    0.108765 0.613220 0.685814 0.173954
H20   H     H_    0.895338 0.610298 0.688087 0.170531
H21   H     H_    0.107008 0.595603 0.299484 0.172593
H22   H     H_    0.101203 0.426960 0.294190 0.168584
H23   H     H_    0.891805 0.434083 0.289260 0.175938
N1    N     N_R   0.499150 0.499140 0.142800 -0.105517
N2    N     N_R   0.499150 0.499180 0.857150 -0.109257
O1    O     O_R   0.500020 0.316790 0.614690 -0.610293
O2    O     O_R   0.500000 0.316760 0.385350 -0.621410
O3    O     O_R   0.314800 0.500000 0.614670 -0.627173
O4    O     O_R   0.314790 0.499960 0.385330 -0.624291
O5    O     O_R   0.500000 0.683240 0.614650 -0.620372
O6    O     O_R   0.499980 0.683210 0.385310 -0.619244
O7    O     O_R   0.685210 0.500040 0.614670 -0.632775
O8    O     O_R   0.685200 0.500000 0.385330 -0.635714
Zn1   Zn    Zn3+2 0.500010 0.500020 0.653130 0.926515
Zn2   Zn    Zn3+2 0.499990 0.499980 0.346870 0.929361
C27   C     C_3   0.484398 0.864914 0.870445 -0.326708
C28   C     C_3   0.625835 0.879870 0.895908 -0.858989
H24   H     H_    0.680229 0.832585 0.815275 0.256198
H25   H     H_    0.652788 0.980198 0.899822 0.252665
H26   H     H_    0.650719 0.835580 0.994523 0.232395
H27   H     H_    0.432484 0.903100 0.958441 0.191800
H28   H     H_    0.462364 0.763444 0.866140 0.216844

loop_
_geom_bond_atom_site_label_1
_geom_bond_atom_site_label_2
_ccdc_geom_bond_type
C3    H4    S    
C2    C4    S    
C18   H13   S    
C28   H25   S    
O6    Zn2   S    
C6    C7    A    
O1    Zn1   S    
C9    C10   A    
C25   H21   S    
C9    C20   S    
C5    C13   S    
C25   H22   S    
C19   H16   S    
C27   H28   S    
C4    H23   S    
C20   O5    A    
C11   C27   S    
C21   O7    A    
C17   N2    A    
C2    C21   S    
C17   C18   S    
C20   O6    A    
C28   H26   S    
C19   H15   S    
C13   H8    S    
C21   O8    A    
O3    Zn1   S    
C11   C13   S    
C14   C17   A    
C3    C24   S    
C27   C28   S    
C27   H27   S    
C24   H19   S    
O4    Zn2   S    
C5    C10   A    
C4    H2    S    
C24   C26   S    
C4    C25   S    
C2    C3    S    
C22   H1    S    
C5    C6    A    
C1    O1    A    
O8    Zn2   S    
C12   O4    A    
C7    H5    S    
C10   C11   S    
C14   N1    A    
O7    Zn1   S    
C28   H24   S    
C8    H6    S    
O5    Zn1   S    
C15   H10   S    
C11   H7    S    
C23   H17   S    
C7    C8    A    
C22   C26   S    
C15   N1    A    
C16   H12   S    
C2    C23   S    
N1    Zn2   S    
C18   H14   S    
C22   C23   S    
C18   C19   S    
C16   N2    A    
C1    O2    A    
N2    Zn1   S    
C3    H20   S    
C25   C26   S    
C24   H3    S    
C22   H11   S    
O2    Zn2   S    
C14   C19   S    
C13   H9    S    
C12   O3    A    
C23   H18   S    
C15   C16   A    
C12   C26   S    
C8    C9    A    
C1    C6    S    
