data_mof_unit_13155.cif
_audit_creation_date              2012-12-10T22:16:24-0500
_audit_creation_method            fapswitch 2.2
_symmetry_space_group_name_H-M    P1
_symmetry_Int_Tables_number       1
_space_group_crystal_system       triclinic
_cell_length_a                    26.695431
_cell_length_b                    26.714433
_cell_length_c                    26.714495
_cell_angle_alpha                 89.988246
_cell_angle_beta                  89.998084
_cell_angle_gamma                 89.973045
_cell_volume                      19051.5278236

loop_
_atom_site_label
_atom_site_type_symbol
_atom_type_description
_atom_site_fract_x
_atom_site_fract_y
_atom_site_fract_z
_atom_type_partial_charge
C1    C     C_R   0.569566 0.298549 0.298551 0.865094
C2    C     C_R   0.430540 0.298662 0.298623 0.850270
C3    C     C_R   0.174047 0.890564 0.325898 -0.175277
C4    C     C_R   0.326312 0.109125 0.826160 -0.143609
C5    C     C_R   0.674181 0.890520 0.174200 -0.191987
C6    C     C_R   0.178292 0.115196 0.320358 -0.166928
C7    C     C_R   0.826114 0.890923 0.673692 -0.157892
C8    C     C_R   0.674098 0.890604 0.825885 -0.192482
C9    C     C_R   0.325846 0.109453 0.174176 -0.192429
C10   C     C_R   0.821686 0.884777 0.320340 -0.166954
C11   C     C_R   0.174067 0.109355 0.674074 -0.184536
C12   C     C_R   0.325902 0.890619 0.174091 -0.193675
C13   C     C_R   0.701490 0.701499 0.430365 0.842224
C14   C     C_R   0.674089 0.109375 0.825914 -0.192249
C15   C     C_R   0.173681 0.890882 0.673832 -0.142991
C16   C     C_R   0.825856 0.109442 0.325845 -0.191530
C17   C     C_R   0.890654 0.825959 0.673988 -0.170791
C18   C     C_R   0.108198 0.173177 0.326832 -0.217263
C19   C     C_R   0.890999 0.326350 0.826163 -0.155711
C20   C     C_R   0.109259 0.674090 0.174049 -0.196453
C21   C     C_R   0.890642 0.174087 0.325905 -0.190297
C22   C     C_R   0.108954 0.826157 0.673688 -0.160339
C23   C     C_R   0.884786 0.679583 0.178238 -0.167977
C24   C     C_R   0.298552 0.298531 0.569569 0.859975
C25   C     C_R   0.109356 0.325911 0.825902 -0.187161
C26   C     C_R   0.109319 0.174063 0.674056 -0.190109
C27   C     C_R   0.891763 0.826771 0.326798 -0.212318
C28   C     C_R   0.109328 0.674067 0.825941 -0.193092
C29   C     C_R   0.890666 0.325923 0.174062 -0.184392
C30   C     C_R   0.109278 0.825896 0.325927 -0.194515
C31   C     C_R   0.890644 0.174087 0.674095 -0.190036
C32   C     C_R   0.108950 0.326160 0.173684 -0.161444
C33   C     C_R   0.890638 0.674088 0.825903 -0.192863
C34   C     C_R   0.174068 0.325919 0.890634 -0.188981
C35   C     C_R   0.430437 0.701449 0.298553 0.844364
C36   C     C_R   0.827252 0.672944 0.107817 -0.142530
C37   C     C_R   0.674116 0.174121 0.890596 -0.193129
C38   C     C_R   0.325884 0.825882 0.109401 -0.192483
C39   C     C_R   0.825914 0.674086 0.890624 -0.184647
C40   C     C_R   0.173969 0.325937 0.109299 -0.179175
C41   C     C_R   0.325914 0.825907 0.890628 -0.192960
C42   C     C_R   0.674101 0.174110 0.109389 -0.192659
C43   C     C_R   0.825887 0.325883 0.109398 -0.186284
C44   C     C_R   0.174099 0.674102 0.890616 -0.187277
C45   C     C_R   0.325919 0.174090 0.109381 -0.194297
C46   C     C_R   0.569561 0.298553 0.701446 0.865331
C47   C     C_R   0.674090 0.825899 0.890614 -0.193772
C48   C     C_R   0.173673 0.673874 0.109054 -0.156928
C49   C     C_R   0.825931 0.325962 0.890593 -0.174231
C50   C     C_R   0.674098 0.825902 0.109397 -0.195021
C51   C     C_R   0.326030 0.174062 0.890700 -0.180946
C52   C     C_R   0.174015 0.609388 0.174054 -0.169101
C53   C     C_R   0.825947 0.390717 0.825910 -0.194158
C54   C     C_R   0.819908 0.615487 0.178125 -0.155564
C55   C     C_R   0.174101 0.390601 0.825881 -0.192016
C56   C     C_R   0.825880 0.609413 0.825873 -0.191343
C57   C     C_R   0.298560 0.701460 0.569554 0.842601
C58   C     C_R   0.173690 0.390872 0.173841 -0.141409
C59   C     C_R   0.174090 0.609373 0.825917 -0.192754
C60   C     C_R   0.825891 0.390602 0.174106 -0.189457
C61   C     C_R   0.390676 0.825937 0.174054 -0.194090
C62   C     C_R   0.609322 0.174064 0.825945 -0.187936
C63   C     C_R   0.390683 0.825941 0.825947 -0.193140
C64   C     C_R   0.609332 0.174074 0.174066 -0.192906
C65   C     C_R   0.391054 0.173836 0.826318 -0.163105
C66   C     C_R   0.609416 0.825861 0.174157 -0.194192
C67   C     C_R   0.390588 0.174139 0.174153 -0.194652
C68   C     C_R   0.701442 0.298548 0.430425 0.843975
C69   C     C_R   0.609364 0.825903 0.825896 -0.192959
C70   C     C_R   0.173663 0.826125 0.390944 -0.154315
C71   C     C_R   0.825902 0.174107 0.609394 -0.191231
C72   C     C_R   0.178292 0.179646 0.384802 -0.169473
C73   C     C_R   0.825868 0.825898 0.609330 -0.196364
C74   C     C_R   0.825879 0.174128 0.390582 -0.190783
C75   C     C_R   0.173971 0.825936 0.609300 -0.174433
C76   C     C_R   0.821661 0.820290 0.384751 -0.163465
C77   C     C_R   0.174106 0.174114 0.609395 -0.191115
C78   C     C_R   0.674045 0.609276 0.674084 -0.193888
C79   C     C_R   0.701455 0.430405 0.701465 0.844008
C80   C     C_R   0.325955 0.390722 0.325920 -0.201615
C81   C     C_R   0.325925 0.609421 0.674052 -0.173764
C82   C     C_R   0.674110 0.390592 0.325872 -0.192339
C83   C     C_R   0.325874 0.609420 0.325864 -0.194631
C84   C     C_R   0.674120 0.390584 0.674132 -0.189302
C85   C     C_R   0.674153 0.609441 0.325860 -0.189822
C86   C     C_R   0.325925 0.390591 0.674029 -0.173996
C87   C     C_R   0.391006 0.326166 0.673631 -0.156613
C88   C     C_R   0.609395 0.674131 0.325886 -0.190797
C89   C     C_R   0.390962 0.326310 0.326133 -0.160250
C90   C     C_R   0.298542 0.569597 0.298533 0.848738
C91   C     C_R   0.608986 0.673636 0.673824 -0.150631
C92   C     C_R   0.390643 0.674085 0.325907 -0.192289
C93   C     C_R   0.609354 0.325917 0.674092 -0.185413
C94   C     C_R   0.390978 0.673854 0.673669 -0.153049
C95   C     C_R   0.609360 0.325908 0.325900 -0.187527
C96   C     C_R   0.674085 0.325903 0.390617 -0.190460
C97   C     C_R   0.325949 0.674097 0.609291 -0.196440
C98   C     C_R   0.674220 0.674223 0.390493 -0.188242
C99   C     C_R   0.325919 0.325881 0.609310 -0.193503
C100  C     C_R   0.325894 0.674106 0.390602 -0.191980
C101  C     C_R   0.701457 0.569597 0.298532 0.857038
C102  C     C_R   0.674110 0.325888 0.609404 -0.190158
C103  C     C_R   0.325901 0.325932 0.390565 -0.176076
C104  C     C_R   0.674070 0.674041 0.609410 -0.176195
C105  C     C_R   0.694149 0.129529 0.129530 -0.066649
C106  C     C_R   0.305885 0.870506 0.870503 -0.075184
C107  C     C_R   0.870527 0.129493 0.694103 -0.072813
C108  C     C_R   0.129565 0.870344 0.305739 -0.065372
C109  C     C_R   0.306391 0.129200 0.870779 -0.068002
C110  C     C_R   0.694161 0.870439 0.129568 -0.068328
C111  C     C_R   0.128876 0.129065 0.306886 -0.063044
C112  C     C_R   0.430546 0.701370 0.701330 0.871605
C113  C     C_R   0.298556 0.430377 0.701470 0.858855
C114  C     C_R   0.870921 0.870996 0.693394 -0.080501
C115  C     C_R   0.694115 0.870476 0.870478 -0.068180
C116  C     C_R   0.305883 0.129528 0.129532 -0.072181
C117  C     C_R   0.871105 0.870912 0.306876 -0.061748
C118  C     C_R   0.129407 0.129431 0.694020 -0.070565
C119  C     C_R   0.305810 0.870441 0.129560 -0.069097
C120  C     C_R   0.694176 0.129550 0.870448 -0.065843
C121  C     C_R   0.128810 0.870980 0.693409 -0.077186
C122  C     C_R   0.870497 0.129528 0.305871 -0.069906
C123  C     C_R   0.871006 0.306553 0.870878 -0.068461
C124  C     C_R   0.298549 0.569630 0.701473 0.858846
C125  C     C_R   0.129220 0.694015 0.129324 -0.068315
C126  C     C_R   0.871238 0.692943 0.128695 -0.063268
C127  C     C_R   0.129445 0.305944 0.870531 -0.073906
C128  C     C_R   0.129459 0.694085 0.870517 -0.068710
C129  C     C_R   0.870537 0.305908 0.129485 -0.068311
C130  C     C_R   0.129327 0.305918 0.129340 -0.067050
C131  C     C_R   0.870546 0.694051 0.870526 -0.069560
C132  C     C_R   0.193475 0.629141 0.129039 -0.081747
C133  C     C_R   0.805735 0.370418 0.870349 -0.063097
C134  C     C_R   0.854414 0.645343 0.204722 -0.107552
C135  C     C_R   0.701454 0.430409 0.298538 0.849814
C136  C     C_R   0.129511 0.370467 0.805851 -0.067367
C137  C     C_R   0.805863 0.629532 0.870471 -0.070941
C138  C     C_R   0.193607 0.370800 0.129219 -0.074754
C139  C     C_R   0.129444 0.629466 0.805953 -0.066078
C140  C     C_R   0.870542 0.370511 0.194061 -0.068629
C141  C     C_R   0.194102 0.370489 0.870490 -0.069286
C142  C     C_R   0.807422 0.628664 0.128240 -0.059786
C143  C     C_R   0.870731 0.370791 0.806038 -0.070127
C144  C     C_R   0.129521 0.629606 0.194196 -0.064049
C145  C     C_R   0.805816 0.370443 0.129558 -0.064863
C146  C     C_R   0.298568 0.430454 0.298548 0.841218
C147  C     C_R   0.194151 0.629524 0.870476 -0.073121
C148  C     C_R   0.128815 0.370974 0.193415 -0.074810
C149  C     C_R   0.870482 0.629539 0.805856 -0.065322
C150  C     C_R   0.370569 0.870547 0.194030 -0.067662
C151  C     C_R   0.629419 0.129445 0.805978 -0.071896
C152  C     C_R   0.370541 0.805907 0.870518 -0.065354
C153  C     C_R   0.629469 0.194105 0.129493 -0.066347
C154  C     C_R   0.371189 0.129021 0.806587 -0.074317
C155  C     C_R   0.629644 0.870335 0.194291 -0.078881
C156  C     C_R   0.370533 0.194072 0.129492 -0.068748
C157  C     C_R   0.701435 0.569550 0.701457 0.843887
C158  C     C_R   0.629482 0.805904 0.870497 -0.066774
C159  C     C_R   0.629440 0.129462 0.194053 -0.066118
C160  C     C_R   0.370588 0.870567 0.805976 -0.072502
C161  C     C_R   0.629474 0.194104 0.870501 -0.067506
C162  C     C_R   0.370537 0.805912 0.129487 -0.067397
C163  C     C_R   0.629494 0.870484 0.805873 -0.069266
C164  C     C_R   0.370379 0.129641 0.194272 -0.077707
C165  C     C_R   0.629461 0.805948 0.129490 -0.065679
C166  C     C_R   0.370676 0.194076 0.870663 -0.068439
C167  C     C_R   0.129217 0.806005 0.370678 -0.068942
C168  C     C_R   0.069551 0.798537 0.298549 0.844177
C169  C     C_R   0.870519 0.194094 0.629502 -0.065030
C170  C     C_R   0.204730 0.144719 0.355272 -0.086474
C171  C     C_R   0.805877 0.870584 0.629340 -0.071625
C172  C     C_R   0.870534 0.194069 0.370509 -0.065498
C173  C     C_R   0.129339 0.805906 0.629351 -0.067011
C174  C     C_R   0.795231 0.855228 0.355226 -0.111561
C175  C     C_R   0.194149 0.129527 0.629535 -0.079388
C176  C     C_R   0.870412 0.805786 0.629546 -0.065458
C177  C     C_R   0.128879 0.193143 0.370931 -0.064033
C178  C     C_R   0.805863 0.129541 0.629540 -0.067428
C179  C     C_R   0.930436 0.201448 0.701448 0.841324
C180  C     C_R   0.193476 0.870825 0.370938 -0.082822
C181  C     C_R   0.129473 0.194110 0.629497 -0.066486
C182  C     C_R   0.871053 0.806747 0.370861 -0.054103
C183  C     C_R   0.193597 0.870811 0.629208 -0.079060
C184  C     C_R   0.805784 0.129613 0.370393 -0.069276
C185  C     C_R   0.694271 0.629589 0.629658 -0.061667
C186  C     C_R   0.305747 0.370424 0.370359 -0.066289
C187  C     C_R   0.370978 0.629147 0.693475 -0.079776
C188  C     C_R   0.629508 0.370469 0.305856 -0.066767
C189  C     C_R   0.305823 0.629569 0.370432 -0.067285
C190  C     C_R   0.701442 0.798547 0.069577 0.839775
C191  C     C_R   0.694174 0.370431 0.629569 -0.064378
C192  C     C_R   0.629460 0.629483 0.305957 -0.066513
C193  C     C_R   0.371029 0.370902 0.693389 -0.077470
C194  C     C_R   0.694130 0.370463 0.370464 -0.063967
C195  C     C_R   0.305750 0.629660 0.629592 -0.062497
C196  C     C_R   0.370735 0.370790 0.306050 -0.070855
C197  C     C_R   0.629242 0.629185 0.693936 -0.076722
C198  C     C_R   0.305689 0.370314 0.629620 -0.064694
C199  C     C_R   0.694298 0.629664 0.370340 -0.050631
C200  C     C_R   0.629487 0.370488 0.694114 -0.072276
C201  C     C_R   0.298552 0.201458 0.930408 0.846351
C202  C     C_R   0.370499 0.629523 0.305874 -0.066984
C203  C     C_R   0.370923 0.306459 0.370802 -0.081550
C204  C     C_R   0.628987 0.693443 0.629117 -0.070613
C205  C     C_R   0.370723 0.693967 0.629219 -0.074795
C206  C     C_R   0.629459 0.305928 0.370518 -0.071120
C207  C     C_R   0.629610 0.694246 0.370373 -0.081845
C208  C     C_R   0.370721 0.306017 0.629221 -0.072897
C209  C     C_R   0.629472 0.305926 0.629495 -0.067220
C210  C     C_R   0.370538 0.694060 0.370516 -0.067741
C211  C     C_2   0.731433 0.100322 0.100328 0.511156
C212  C     C_R   0.930413 0.798565 0.701450 0.861981
C213  C     C_2   0.268675 0.899763 0.899748 0.504870
C214  C     C_2   0.899840 0.100192 0.731219 0.501816
C215  C     C_2   0.100543 0.899390 0.268189 0.513277
C216  C     C_2   0.268924 0.100102 0.899635 0.493672
C217  C     C_2   0.731372 0.899672 0.100328 0.512696
C218  C     C_2   0.096792 0.096308 0.275521 0.492495
C219  C     C_2   0.900102 0.900390 0.730362 0.513498
C220  C     C_2   0.731297 0.899724 0.899729 0.506893
C221  C     C_2   0.268739 0.100258 0.100254 0.507006
C222  C     C_2   0.903210 0.903696 0.275545 0.489425
C223  C     C_R   0.701450 0.298539 0.569586 0.843560
C224  C     C_R   0.068612 0.200792 0.299207 0.839333
C225  C     C_2   0.100017 0.100058 0.731002 0.498300
C226  C     C_2   0.268452 0.899605 0.100402 0.507082
C227  C     C_2   0.731499 0.100365 0.899628 0.506960
C228  C     C_2   0.099556 0.899991 0.730631 0.501866
C229  C     C_2   0.899786 0.100267 0.268713 0.511325
C230  C     C_2   0.900382 0.269476 0.899989 0.485814
C231  C     C_2   0.099982 0.731250 0.100099 0.508191
C232  C     C_2   0.904078 0.724310 0.096699 0.480033
C233  C     C_2   0.100087 0.268909 0.899864 0.503661
C234  C     C_2   0.100140 0.731201 0.899805 0.504641
C235  C     C_R   0.298558 0.798550 0.930423 0.843229
C236  C     C_2   0.899854 0.268792 0.100195 0.501930
C237  C     C_2   0.100259 0.268470 0.100264 0.506604
C238  C     C_2   0.899898 0.731075 0.899861 0.504999
C239  C     C_2   0.230613 0.600051 0.099723 0.515112
C240  C     C_2   0.768108 0.399385 0.899357 0.507039
C241  C     C_2   0.855585 0.643469 0.260289 0.542844
C242  C     C_2   0.100275 0.399681 0.768604 0.508674
C243  C     C_2   0.768650 0.600305 0.899716 0.506598
C244  C     C_2   0.231063 0.399905 0.100355 0.502966
C245  C     C_2   0.100105 0.600152 0.768897 0.508341
C246  C     C_R   0.701447 0.201456 0.069584 0.847204
C247  C     C_2   0.899878 0.399794 0.231143 0.502920
C248  C     C_2   0.231262 0.399748 0.899757 0.499722
C249  C     C_2   0.776271 0.595903 0.095830 0.446458
C250  C     C_2   0.900028 0.400051 0.768899 0.507360
C251  C     C_2   0.100478 0.600515 0.231676 0.504091
C252  C     C_2   0.768483 0.399624 0.100385 0.499591
C253  C     C_2   0.231411 0.600303 0.899700 0.503520
C254  C     C_2   0.099559 0.399981 0.230641 0.495385
C255  C     C_2   0.899725 0.600322 0.768627 0.509437
C256  C     C_2   0.399943 0.899895 0.231030 0.505972
C257  C     C_R   0.069547 0.201435 0.701437 0.843481
C258  C     C_2   0.600030 0.100089 0.768995 0.505200
C259  C     C_2   0.399842 0.768755 0.899792 0.506189
C260  C     C_2   0.600178 0.231273 0.100227 0.508865
C261  C     C_2   0.400443 0.100015 0.769359 0.493185
C262  C     C_2   0.600605 0.899347 0.231843 0.510837
C263  C     C_2   0.399887 0.231103 0.100154 0.505698
C264  C     C_2   0.600187 0.768775 0.899775 0.510985
C265  C     C_2   0.600098 0.100142 0.231116 0.509976
C266  C     C_2   0.399961 0.899922 0.768967 0.501028
C267  C     C_2   0.600185 0.231268 0.899759 0.508605
C268  C     C_R   0.931374 0.799196 0.299197 0.843840
C269  C     C_2   0.399856 0.768797 0.100197 0.506042
C270  C     C_2   0.600214 0.899743 0.768697 0.502340
C271  C     C_2   0.399442 0.100599 0.231790 0.507977
C272  C     C_2   0.600073 0.768982 0.100120 0.506436
C273  C     C_2   0.399750 0.231516 0.899744 0.507639
C274  C     C_2   0.099957 0.768837 0.399932 0.507449
C275  C     C_2   0.899813 0.231222 0.600224 0.508838
C276  C     C_2   0.260344 0.142904 0.357059 0.520465
C277  C     C_2   0.768397 0.899681 0.600284 0.507917
C278  C     C_2   0.899879 0.231109 0.399830 0.509204
C279  C     C_R   0.701452 0.201462 0.930408 0.842384
C280  C     C_2   0.100295 0.768419 0.600299 0.508220
C281  C     C_2   0.739612 0.856995 0.356969 0.552632
C282  C     C_2   0.231439 0.100313 0.600352 0.510119
C283  C     C_2   0.899529 0.768314 0.600503 0.510772
C284  C     C_2   0.096797 0.224556 0.403675 0.489646
C285  C     C_2   0.768618 0.100334 0.600328 0.507556
C286  C     C_2   0.230594 0.899892 0.400270 0.508017
C287  C     C_2   0.100190 0.231290 0.600239 0.510197
C288  C     C_2   0.903051 0.775142 0.403514 0.488671
C289  C     C_2   0.231035 0.899929 0.600334 0.521622
C290  C     C_R   0.298549 0.798539 0.069590 0.842035
C291  C     C_2   0.768385 0.100508 0.399521 0.511382
C292  C     C_2   0.731924 0.600639 0.600666 0.511389
C293  C     C_2   0.268190 0.399435 0.399410 0.510266
C294  C     C_2   0.400328 0.600051 0.730579 0.506141
C295  C     C_2   0.600260 0.399697 0.268630 0.508725
C296  C     C_2   0.268514 0.600396 0.399610 0.510234
C297  C     C_2   0.731482 0.399604 0.600389 0.509217
C298  C     C_2   0.600035 0.600083 0.269041 0.503248
C299  C     C_2   0.400449 0.400059 0.730358 0.505128
C300  C     C_2   0.731355 0.399683 0.399689 0.508760
C301  C     C_R   0.930437 0.201449 0.298552 0.843696
C302  C     C_2   0.268159 0.600648 0.600620 0.510246
C303  C     C_2   0.400071 0.400090 0.268975 0.505944
C304  C     C_2   0.599904 0.599891 0.731016 0.504780
C305  C     C_2   0.267970 0.399272 0.600714 0.510691
C306  C     C_2   0.731766 0.600568 0.399426 0.515765
C307  C     C_2   0.600183 0.399758 0.731253 0.504291
C308  C     C_2   0.399781 0.600267 0.268709 0.505860
C309  C     C_2   0.400170 0.269196 0.399805 0.493271
C310  C     C_2   0.599609 0.730518 0.600005 0.486740
C311  C     C_2   0.400038 0.731074 0.599943 0.504687
C312  C     C_R   0.069441 0.798623 0.701346 0.868534
C313  C     C_2   0.600120 0.268864 0.399832 0.505467
C314  C     C_2   0.600483 0.731666 0.399471 0.503734
C315  C     C_2   0.400018 0.268865 0.599966 0.501682
C316  C     C_2   0.600151 0.268851 0.600194 0.503433
C317  C     C_2   0.399886 0.731092 0.399844 0.501438
C318  C     C_R   0.298563 0.201446 0.069569 0.857481
C319  C     C_R   0.298552 0.701458 0.430418 0.844536
C320  C     C_R   0.701445 0.798547 0.930423 0.843272
C321  C     C_R   0.201329 0.701375 0.069471 0.854422
C322  C     C_R   0.798555 0.298532 0.930376 0.845214
C323  C     C_R   0.201343 0.930468 0.701399 0.855520
C324  C     C_R   0.798536 0.069604 0.298526 0.856417
C325  C     C_R   0.201435 0.298555 0.930433 0.858841
C326  C     C_R   0.799317 0.700747 0.068514 0.870631
C327  C     C_R   0.203169 0.072005 0.296530 0.853656
C328  C     C_R   0.798628 0.930521 0.701348 0.852925
C329  C     C_R   0.798550 0.298540 0.069588 0.861245
C330  C     C_R   0.430562 0.298641 0.701321 0.849442
C331  C     C_R   0.201445 0.701454 0.930418 0.861745
C332  C     C_R   0.798552 0.069582 0.701456 0.863624
C333  C     C_R   0.201468 0.930367 0.298540 0.855671
C334  C     C_R   0.798560 0.701450 0.930427 0.863632
C335  C     C_R   0.201448 0.298542 0.069592 0.846420
C336  C     C_R   0.796825 0.927988 0.296527 0.834176
C337  C     C_R   0.201431 0.069563 0.701444 0.874191
C338  C     C_R   0.298558 0.930423 0.201453 0.843769
C339  C     C_R   0.701439 0.069574 0.798548 0.845184
C340  C     C_R   0.069441 0.298623 0.201346 0.851782
C341  C     C_R   0.569573 0.701456 0.298541 0.842820
C342  C     C_R   0.930434 0.701451 0.798551 0.844262
C343  C     C_R   0.701439 0.069572 0.201449 0.844946
C344  C     C_R   0.298572 0.930442 0.798562 0.874045
C345  C     C_R   0.927935 0.703473 0.203212 0.839699
C346  C     C_R   0.069565 0.298550 0.798551 0.860606
C347  C     C_R   0.701449 0.930416 0.798544 0.840619
C348  C     C_R   0.298529 0.069609 0.201477 0.822363
C349  C     C_R   0.930556 0.298676 0.798636 0.856577
C350  C     C_R   0.069539 0.701453 0.201444 0.859603
C351  C     C_R   0.298654 0.069536 0.798597 0.857394
C352  C     C_R   0.298544 0.298522 0.430363 0.821562
C353  C     C_R   0.701480 0.930378 0.201488 0.820196
C354  C     C_R   0.069549 0.701438 0.798561 0.842325
C355  C     C_R   0.930450 0.298559 0.201439 0.864133
C356  C     C_R   0.569569 0.798547 0.798548 0.842650
C357  C     C_R   0.430410 0.201471 0.201468 0.835164
C358  C     C_R   0.201448 0.798542 0.569592 0.860638
C359  C     C_R   0.798546 0.201467 0.430409 0.843553
C360  C     C_R   0.430453 0.798565 0.201437 0.843627
C361  C     C_R   0.569546 0.201435 0.798563 0.864747
C362  C     C_R   0.796806 0.796508 0.427968 0.841670
C363  C     C_R   0.701446 0.701470 0.569626 0.843570
C364  C     C_R   0.201449 0.201458 0.569585 0.858607
C365  C     C_R   0.569552 0.201439 0.201441 0.847761
C366  C     C_R   0.430453 0.798566 0.798564 0.840353
C367  C     C_R   0.203169 0.203468 0.427992 0.837991
C368  C     C_R   0.798536 0.798535 0.569575 0.854635
C369  C     C_R   0.430562 0.201374 0.798657 0.850359
C370  C     C_R   0.569589 0.798527 0.201469 0.841553
C371  C     C_R   0.798552 0.201457 0.569581 0.843163
C372  C     C_R   0.201327 0.798623 0.430532 0.870577
C373  C     C_R   0.201347 0.430464 0.201403 0.866815
C374  C     C_R   0.569436 0.701318 0.701358 0.875323
C375  C     C_R   0.798543 0.569594 0.798536 0.842937
C376  C     C_R   0.201440 0.569574 0.798550 0.845786
C377  C     C_R   0.798553 0.430417 0.201458 0.872014
C378  C     C_R   0.796486 0.572023 0.203079 0.864835
C379  C     C_R   0.201451 0.430413 0.798542 0.845591
C380  C     C_R   0.798562 0.430447 0.798542 0.844739
C381  C     C_R   0.201452 0.569611 0.201446 0.878778
C382  C     C_R   0.674085 0.109371 0.174086 -0.192962
C383  C     C_R   0.325941 0.890657 0.825940 -0.188015
C384  C     C_R   0.825903 0.109393 0.674113 -0.186400
H1    H     H_    0.718672 0.073059 0.073081 -0.026055
H2    H     H_    0.281630 0.073073 0.072979 0.017021
H3    H     H_    0.931402 0.926954 0.293244 -0.017944
H4    H     H_    0.072803 0.072870 0.717990 0.036901
H5    H     H_    0.281140 0.926890 0.073132 -0.009369
H6    H     H_    0.718778 0.073087 0.926890 -0.018504
H7    H     H_    0.109138 0.898185 0.770079 0.104473
H8    H     H_    0.927110 0.073079 0.281557 -0.014871
H9    H     H_    0.890699 0.230041 0.898607 0.116399
H10   H     H_    0.072770 0.718478 0.072791 -0.006188
H11   H     H_    0.927475 0.706639 0.068592 -0.005635
H12   H     H_    0.281504 0.927057 0.926932 0.031598
H13   H     H_    0.072810 0.281870 0.927033 0.035848
H14   H     H_    0.072854 0.718317 0.926993 -0.008773
H15   H     H_    0.927123 0.281676 0.072988 0.021448
H16   H     H_    0.072831 0.281044 0.073061 0.009493
H17   H     H_    0.927130 0.718102 0.927072 -0.007605
H18   H     H_    0.270091 0.601594 0.109330 0.105815
H19   H     H_    0.780544 0.426718 0.926683 -0.002018
H20   H     H_    0.887199 0.627083 0.279829 0.086764
H21   H     H_    0.072964 0.426916 0.781365 -0.015047
H22   H     H_    0.781476 0.573124 0.927038 0.032443
H23   H     H_    0.927090 0.072952 0.718335 0.040388
H24   H     H_    0.270547 0.390437 0.102640 0.103818
H25   H     H_    0.072848 0.572970 0.781840 -0.018717
H26   H     H_    0.927268 0.426854 0.218224 0.034417
H27   H     H_    0.218386 0.426958 0.927015 0.034302
H28   H     H_    0.737990 0.586830 0.105801 0.121705
H29   H     H_    0.927385 0.427164 0.781763 -0.012972
H30   H     H_    0.073241 0.573132 0.219132 0.031110
H31   H     H_    0.781195 0.426908 0.073125 0.014424
H32   H     H_    0.218629 0.573074 0.926983 0.041017
H33   H     H_    0.109213 0.398265 0.270075 0.106244
H34   H     H_    0.073156 0.926683 0.280664 -0.006161
H35   H     H_    0.927036 0.573090 0.781405 -0.019527
H36   H     H_    0.427187 0.927065 0.218034 -0.019161
H37   H     H_    0.572747 0.072964 0.782006 0.024040
H38   H     H_    0.427132 0.781606 0.926985 -0.017014
H39   H     H_    0.572890 0.218436 0.073025 -0.024556
H40   H     H_    0.390804 0.101755 0.729922 0.110837
H41   H     H_    0.573191 0.926619 0.219376 -0.017740
H42   H     H_    0.427108 0.218139 0.072931 -0.012872
H43   H     H_    0.572916 0.781649 0.926991 -0.024692
H44   H     H_    0.572844 0.072959 0.218180 -0.026446
H45   H     H_    0.229447 0.109602 0.897376 0.111322
H46   H     H_    0.427175 0.927122 0.781955 0.023840
H47   H     H_    0.572882 0.218428 0.926952 -0.019642
H48   H     H_    0.427138 0.781684 0.073005 -0.018933
H49   H     H_    0.572918 0.926962 0.781525 -0.004078
H50   H     H_    0.426844 0.073334 0.219290 -0.010669
H51   H     H_    0.572865 0.782007 0.072910 -0.020737
H52   H     H_    0.427179 0.218934 0.926941 -0.003017
H53   H     H_    0.072744 0.781672 0.427224 -0.005528
H54   H     H_    0.927092 0.218348 0.573016 -0.019846
H55   H     H_    0.281992 0.167160 0.332717 0.042947
H56   H     H_    0.718545 0.926881 0.073036 -0.023651
H57   H     H_    0.780968 0.927154 0.573151 0.005972
H58   H     H_    0.927169 0.218154 0.426992 -0.020303
H59   H     H_    0.072867 0.780957 0.573080 0.002642
H60   H     H_    0.718005 0.832680 0.332658 0.075881
H61   H     H_    0.218686 0.072921 0.573233 0.057309
H62   H     H_    0.926903 0.780864 0.573246 -0.003953
H63   H     H_    0.068546 0.206928 0.426927 -0.012093
H64   H     H_    0.781414 0.073079 0.573078 -0.014645
H65   H     H_    0.270029 0.898644 0.390442 0.107345
H66   H     H_    0.072896 0.218466 0.573037 -0.013298
H67   H     H_    0.068580 0.073044 0.293191 -0.013897
H68   H     H_    0.931330 0.792616 0.426839 -0.015080
H69   H     H_    0.270513 0.890418 0.602531 0.101425
H70   H     H_    0.781033 0.073304 0.426900 -0.009101
H71   H     H_    0.719511 0.573297 0.573338 -0.014409
H72   H     H_    0.280692 0.426774 0.426700 -0.005535
H73   H     H_    0.390652 0.601516 0.770017 0.107980
H74   H     H_    0.572951 0.426926 0.281411 -0.019887
H75   H     H_    0.281248 0.573134 0.426892 -0.019183
H76   H     H_    0.718746 0.426871 0.573112 -0.020762
H77   H     H_    0.572814 0.572925 0.282112 -0.017834
H78   H     H_    0.898571 0.890923 0.769849 0.107235
H79   H     H_    0.390832 0.398723 0.769815 0.108545
H80   H     H_    0.718540 0.426919 0.426949 -0.022708
H81   H     H_    0.280631 0.573326 0.573286 -0.009699
H82   H     H_    0.427391 0.427213 0.281899 -0.008150
H83   H     H_    0.572519 0.572830 0.718095 0.042642
H84   H     H_    0.280319 0.426636 0.573367 -0.007462
H85   H     H_    0.719183 0.573227 0.426688 -0.024327
H86   H     H_    0.572849 0.426929 0.718392 0.036854
H87   H     H_    0.427078 0.573049 0.281546 -0.015867
H88   H     H_    0.390501 0.229768 0.398087 0.103754
H89   H     H_    0.718441 0.926965 0.926965 -0.019081
H90   H     H_    0.609321 0.769947 0.601343 0.115050
H91   H     H_    0.427426 0.718181 0.572853 0.038031
H92   H     H_    0.572825 0.281797 0.426998 0.024391
H93   H     H_    0.573099 0.719073 0.426699 0.021140
H94   H     H_    0.427394 0.281715 0.572851 0.028873
H95   H     H_    0.572876 0.281774 0.573002 -0.004443
H96   H     H_    0.427136 0.718128 0.427042 -0.002533
O1    O     O_R   0.553790 0.256330 0.314650 -0.570524
O2    O     O_R   0.446210 0.256330 0.314650 -0.617653
O3    O     O_R   0.814650 0.743670 0.946210 -0.584179
O4    O     O_R   0.946210 0.256330 0.185350 -0.583516
O5    O     O_R   0.053790 0.743670 0.814650 -0.591867
O6    O     O_R   0.814650 0.256330 0.946210 -0.633889
O7    O     O_R   0.185350 0.743670 0.053790 -0.580013
O8    O     O_R   0.053790 0.743670 0.185350 -0.577570
O9    O     O_R   0.946210 0.256330 0.814650 -0.614565
O10   O     O_R   0.185350 0.743670 0.946210 -0.583692
O11   O     O_R   0.814650 0.256330 0.053790 -0.574579
O12   O     O_R   0.946210 0.743670 0.814650 -0.591354
O13   O     O_R   0.685350 0.743670 0.446210 -0.587631
O14   O     O_R   0.053790 0.256330 0.185350 -0.582808
O15   O     O_R   0.814650 0.743670 0.053790 -0.581071
O16   O     O_R   0.185350 0.256330 0.946210 -0.592689
O17   O     O_R   0.743670 0.185350 0.053790 -0.580995
O18   O     O_R   0.256330 0.814650 0.946210 -0.583030
O19   O     O_R   0.743670 0.946210 0.185350 -0.584052
O20   O     O_R   0.256330 0.053790 0.814650 -0.608563
O21   O     O_R   0.743670 0.814650 0.946210 -0.582774
O22   O     O_R   0.256330 0.185350 0.053790 -0.572983
O23   O     O_R   0.743670 0.053790 0.814650 -0.582372
O24   O     O_R   0.314650 0.256330 0.553790 -0.574382
O25   O     O_R   0.256330 0.946210 0.185350 -0.579862
O26   O     O_R   0.256330 0.814650 0.053790 -0.580231
O27   O     O_R   0.743670 0.185350 0.946210 -0.592528
O28   O     O_R   0.256330 0.053790 0.185350 -0.583921
O29   O     O_R   0.743670 0.946210 0.814650 -0.592966
O30   O     O_R   0.256330 0.185350 0.946210 -0.632603
O31   O     O_R   0.743670 0.814650 0.053790 -0.582852
O32   O     O_R   0.256330 0.946210 0.814650 -0.580900
O33   O     O_R   0.743670 0.053790 0.185350 -0.581935
O34   O     O_R   0.814650 0.946210 0.743670 -0.617504
O35   O     O_R   0.446210 0.743670 0.314650 -0.581241
O36   O     O_R   0.185350 0.053790 0.256330 -0.575964
O37   O     O_R   0.053790 0.814650 0.743670 -0.610965
O38   O     O_R   0.946210 0.185350 0.256330 -0.581392
O39   O     O_R   0.185350 0.053790 0.743670 -0.585031
O40   O     O_R   0.814650 0.946210 0.256330 -0.574352
O41   O     O_R   0.946210 0.185350 0.743670 -0.593224
O42   O     O_R   0.053790 0.814650 0.256330 -0.582416
O43   O     O_R   0.185350 0.946210 0.256330 -0.573264
O44   O     O_R   0.814650 0.053790 0.743670 -0.572071
O45   O     O_R   0.946210 0.814650 0.256330 -0.578059
O46   O     O_R   0.553790 0.256330 0.685350 -0.582667
O47   O     O_R   0.053790 0.185350 0.743670 -0.582066
O48   O     O_R   0.814650 0.053790 0.256330 -0.579045
O49   O     O_R   0.185350 0.946210 0.743670 -0.631519
O50   O     O_R   0.053790 0.185350 0.256330 -0.575523
O51   O     O_R   0.946210 0.814650 0.743670 -0.624438
O52   O     O_R   0.553790 0.756330 0.814650 -0.580360
O53   O     O_R   0.446210 0.243670 0.185350 -0.580780
O54   O     O_R   0.185350 0.756330 0.553790 -0.576947
O55   O     O_R   0.814650 0.243670 0.446210 -0.581444
O56   O     O_R   0.446210 0.756330 0.185350 -0.581972
O57   O     O_R   0.314650 0.743670 0.553790 -0.592179
O58   O     O_R   0.553790 0.243670 0.814650 -0.583328
O59   O     O_R   0.814650 0.756330 0.446210 -0.572373
O60   O     O_R   0.185350 0.243670 0.553790 -0.578456
O61   O     O_R   0.553790 0.243670 0.185350 -0.581080
O62   O     O_R   0.446210 0.756330 0.814650 -0.592909
O63   O     O_R   0.185350 0.243670 0.446210 -0.575338
O64   O     O_R   0.814650 0.756330 0.553790 -0.578552
O65   O     O_R   0.446210 0.243670 0.814650 -0.593206
O66   O     O_R   0.553790 0.756330 0.185350 -0.581232
O67   O     O_R   0.814650 0.243670 0.553790 -0.581823
O68   O     O_R   0.685350 0.256330 0.446210 -0.582130
O69   O     O_R   0.185350 0.756330 0.446210 -0.580799
O70   O     O_R   0.243670 0.185350 0.553790 -0.574748
O71   O     O_R   0.756330 0.814650 0.446210 -0.586852
O72   O     O_R   0.243670 0.446210 0.185350 -0.604863
O73   O     O_R   0.756330 0.553790 0.814650 -0.583138
O74   O     O_R   0.243670 0.814650 0.446210 -0.610001
O75   O     O_R   0.756330 0.185350 0.553790 -0.582087
O76   O     O_R   0.243670 0.553790 0.814650 -0.591400
O77   O     O_R   0.756330 0.446210 0.185350 -0.576261
O78   O     O_R   0.756330 0.814650 0.553790 -0.585306
O79   O     O_R   0.743670 0.685350 0.553790 -0.576742
O80   O     O_R   0.243670 0.185350 0.446210 -0.590748
O81   O     O_R   0.756330 0.553790 0.185350 -0.641184
O82   O     O_R   0.243670 0.446210 0.814650 -0.590842
O83   O     O_R   0.756330 0.185350 0.446210 -0.582845
O84   O     O_R   0.243670 0.814650 0.553790 -0.624435
O85   O     O_R   0.756330 0.446210 0.814650 -0.582975
O86   O     O_R   0.243670 0.553790 0.185350 -0.624806
O87   O     O_R   0.814650 0.446210 0.243670 -0.578883
O88   O     O_R   0.185350 0.553790 0.756330 -0.579055
O89   O     O_R   0.553790 0.814650 0.243670 -0.583638
O90   O     O_R   0.256330 0.314650 0.446210 -0.579276
O91   O     O_R   0.446210 0.185350 0.756330 -0.614730
O92   O     O_R   0.185350 0.553790 0.243670 -0.569823
O93   O     O_R   0.814650 0.446210 0.756330 -0.581355
O94   O     O_R   0.446210 0.185350 0.243670 -0.595484
O95   O     O_R   0.553790 0.814650 0.756330 -0.592523
O96   O     O_R   0.185350 0.446210 0.756330 -0.579487
O97   O     O_R   0.814650 0.553790 0.243670 -0.619367
O98   O     O_R   0.446210 0.814650 0.756330 -0.581059
O99   O     O_R   0.553790 0.185350 0.243670 -0.580744
O100  O     O_R   0.814650 0.553790 0.756330 -0.581729
O101  O     O_R   0.743670 0.446210 0.685350 -0.582390
O102  O     O_R   0.185350 0.446210 0.243670 -0.632947
O103  O     O_R   0.553790 0.185350 0.756330 -0.571031
O104  O     O_R   0.446210 0.814650 0.243670 -0.581525
O105  O     O_2   0.776305 0.106713 0.106716 -0.468629
O106  O     O_2   0.223787 0.893404 0.893444 -0.497980
O107  O     O_2   0.893540 0.106472 0.776090 -0.494442
O108  O     O_2   0.107216 0.892804 0.223414 -0.471040
O109  O     O_2   0.282282 0.064840 0.925456 -0.598869
O110  O     O_2   0.776259 0.893335 0.106706 -0.477586
O111  O     O_2   0.100445 0.096720 0.229941 -0.481293
O112  O     O_R   0.446210 0.743670 0.685350 -0.571103
O113  O     O_R   0.256330 0.553790 0.314650 -0.578711
O114  O     O_2   0.925308 0.935928 0.716597 -0.563048
O115  O     O_2   0.776191 0.893384 0.893404 -0.495114
O116  O     O_2   0.223837 0.106541 0.106579 -0.476443
O117  O     O_2   0.899592 0.903319 0.229964 -0.480625
O118  O     O_2   0.106204 0.106228 0.775903 -0.498352
O119  O     O_2   0.223597 0.893152 0.106853 -0.469327
O120  O     O_2   0.776362 0.106789 0.893202 -0.495117
O121  O     O_2   0.064029 0.925395 0.717117 -0.552540
O122  O     O_2   0.893416 0.106561 0.223851 -0.466668
O123  O     O_2   0.936172 0.283082 0.924942 -0.603396
O124  O     O_R   0.743670 0.314650 0.446210 -0.581900
O125  O     O_2   0.106338 0.776096 0.106482 -0.472772
O126  O     O_2   0.903578 0.769892 0.100282 -0.483558
O127  O     O_2   0.106355 0.224020 0.893663 -0.497903
O128  O     O_2   0.106453 0.776073 0.893545 -0.496851
O129  O     O_2   0.893554 0.223920 0.106467 -0.470547
O130  O     O_2   0.106892 0.223672 0.106759 -0.480811
O131  O     O_2   0.893652 0.775966 0.893638 -0.495674
O132  O     O_2   0.217001 0.574908 0.064091 -0.561317
O133  O     O_2   0.723313 0.392715 0.892712 -0.471737
O134  O     O_2   0.820069 0.659180 0.284419 -0.513337
O135  O     O_R   0.256330 0.685350 0.553790 -0.580954
O136  O     O_2   0.106694 0.393313 0.723762 -0.471574
O137  O     O_2   0.723763 0.606630 0.893325 -0.471993
O138  O     O_2   0.217687 0.435129 0.074492 -0.552616
O139  O     O_2   0.106374 0.606379 0.724012 -0.471874
O140  O     O_2   0.893523 0.393612 0.276023 -0.473453
O141  O     O_2   0.276161 0.393440 0.893433 -0.497636
O142  O     O_2   0.793022 0.580410 0.056223 -0.610162
O143  O     O_2   0.893669 0.393807 0.724032 -0.472337
O144  O     O_2   0.107027 0.607101 0.276469 -0.477811
O145  O     O_2   0.723622 0.393189 0.106815 -0.472281
O146  O     O_R   0.743670 0.553790 0.314650 -0.582013
O147  O     O_2   0.276287 0.606663 0.893310 -0.496706
O148  O     O_2   0.063937 0.425264 0.217150 -0.592089
O149  O     O_2   0.893316 0.606687 0.723781 -0.470077
O150  O     O_2   0.393720 0.893711 0.275927 -0.495339
O151  O     O_2   0.606263 0.106236 0.724094 -0.470097
O152  O     O_2   0.393508 0.723891 0.893517 -0.496802
O153  O     O_2   0.606519 0.276133 0.106520 -0.469414
O154  O     O_2   0.436044 0.074702 0.782853 -0.600165
O155  O     O_2   0.607300 0.892748 0.276617 -0.489231
O156  O     O_2   0.393650 0.275993 0.106382 -0.499641
O157  O     O_R   0.256330 0.446210 0.685350 -0.576507
O158  O     O_2   0.606518 0.723906 0.893490 -0.471962
O159  O     O_2   0.606364 0.106362 0.276000 -0.469025
O160  O     O_2   0.393757 0.893728 0.724072 -0.499473
O161  O     O_2   0.606537 0.276129 0.893464 -0.471203
O162  O     O_2   0.393552 0.723926 0.106462 -0.495746
O163  O     O_2   0.606579 0.893432 0.723839 -0.494448
O164  O     O_2   0.392778 0.107159 0.276571 -0.514023
O165  O     O_2   0.606263 0.724078 0.106311 -0.493089
O166  O     O_2   0.393120 0.276316 0.893259 -0.502734
O167  O     O_2   0.106293 0.723977 0.393591 -0.473687
O168  O     O_R   0.256330 0.314650 0.553790 -0.583207
O169  O     O_2   0.893479 0.276091 0.606504 -0.469576
O170  O     O_2   0.281928 0.114406 0.385597 -0.507827
O171  O     O_2   0.723570 0.893062 0.606761 -0.498226
O172  O     O_2   0.893591 0.275997 0.393622 -0.468385
O173  O     O_2   0.106953 0.723630 0.606830 -0.478401
O174  O     O_2   0.717975 0.885492 0.385458 -0.503416
O175  O     O_2   0.276310 0.106778 0.606677 -0.498243
O176  O     O_2   0.892949 0.723520 0.607050 -0.473958
O177  O     O_2   0.100489 0.270130 0.403256 -0.500878
O178  O     O_2   0.723737 0.106721 0.606706 -0.469921
O179  O     O_R   0.743670 0.685350 0.446210 -0.583313
O180  O     O_2   0.217031 0.924614 0.436224 -0.543598
O181  O     O_2   0.106543 0.276148 0.606539 -0.470538
O182  O     O_2   0.899250 0.729577 0.402936 -0.490162
O183  O     O_2   0.217654 0.935224 0.574571 -0.549170
O184  O     O_2   0.723539 0.106973 0.392975 -0.467683
O185  O     O_2   0.776713 0.607331 0.607329 -0.473091
O186  O     O_2   0.223379 0.392807 0.392833 -0.506424
O187  O     O_2   0.436078 0.575005 0.716987 -0.566500
O188  O     O_2   0.606662 0.393347 0.223783 -0.470619
O189  O     O_2   0.223648 0.606828 0.393174 -0.472161
O190  O     O_R   0.256330 0.553790 0.685350 -0.576441
O191  O     O_2   0.776348 0.393171 0.606821 -0.469445
O192  O     O_2   0.606192 0.606206 0.224127 -0.493130
O193  O     O_2   0.436205 0.424998 0.716637 -0.570166
O194  O     O_2   0.776240 0.393319 0.393318 -0.469617
O195  O     O_2   0.223355 0.607284 0.607285 -0.475287
O196  O     O_2   0.393778 0.393881 0.224094 -0.502242
O197  O     O_2   0.606236 0.606066 0.775895 -0.473245
O198  O     O_2   0.223197 0.392552 0.607460 -0.475024
O199  O     O_2   0.776596 0.607126 0.392904 -0.474286
O200  O     O_2   0.606544 0.393485 0.776119 -0.469180
O201  O     O_R   0.743670 0.446210 0.314650 -0.581135
O202  O     O_2   0.393423 0.606584 0.223849 -0.496903
O203  O     O_2   0.435798 0.282647 0.425071 -0.601466
O204  O     O_2   0.563777 0.716919 0.575107 -0.600746
O205  O     O_2   0.393675 0.775947 0.606160 -0.501334
O206  O     O_2   0.606419 0.223981 0.393616 -0.468775
O207  O     O_2   0.607062 0.776470 0.392989 -0.489474
O208  O     O_2   0.393646 0.224002 0.606221 -0.499981
O209  O     O_2   0.606453 0.223970 0.606442 -0.469659
O210  O     O_2   0.393629 0.775981 0.393620 -0.494469
O211  O     O_R   0.256330 0.685350 0.446210 -0.580697
O212  O     O_R   0.685350 0.256330 0.553790 -0.581255
O213  O     O_R   0.743670 0.314650 0.553790 -0.582555
O214  O     O_R   0.256330 0.446210 0.314650 -0.591795
O215  O     O_R   0.743670 0.553790 0.685350 -0.583331
O216  O     O_R   0.314650 0.446210 0.743670 -0.627541
O217  O     O_R   0.685350 0.553790 0.256330 -0.591886
O218  O     O_R   0.553790 0.314650 0.743670 -0.571472
O219  O     O_R   0.446210 0.685350 0.256330 -0.582172
O220  O     O_R   0.685350 0.553790 0.743670 -0.581434
O221  O     O_R   0.314650 0.446210 0.256330 -0.589469
O222  O     O_R   0.446210 0.685350 0.743670 -0.618603
O223  O     O_R   0.314650 0.743670 0.446210 -0.591107
O224  O     O_R   0.553790 0.314650 0.256330 -0.583089
O225  O     O_R   0.685350 0.446210 0.256330 -0.579921
O226  O     O_R   0.314650 0.553790 0.743670 -0.627351
O227  O     O_R   0.446210 0.314650 0.256330 -0.581405
O228  O     O_R   0.553790 0.685350 0.743670 -0.570782
O229  O     O_R   0.314650 0.553790 0.256330 -0.590991
O230  O     O_R   0.685350 0.446210 0.743670 -0.581970
O231  O     O_R   0.553790 0.685350 0.256330 -0.580995
O232  O     O_R   0.446210 0.314650 0.743670 -0.615681
O233  O     O_R   0.053790 0.756330 0.314650 -0.579006
O234  O     O_R   0.446210 0.256330 0.685350 -0.592544
O235  O     O_R   0.946210 0.243670 0.685350 -0.580276
O236  O     O_R   0.685350 0.756330 0.053790 -0.591829
O237  O     O_R   0.314650 0.243670 0.946210 -0.575213
O238  O     O_R   0.946210 0.756330 0.685350 -0.577299
O239  O     O_R   0.053790 0.243670 0.314650 -0.589873
O240  O     O_R   0.314650 0.756330 0.946210 -0.581917
O241  O     O_R   0.685350 0.243670 0.053790 -0.581291
O242  O     O_R   0.053790 0.243670 0.685350 -0.581925
O243  O     O_R   0.946210 0.756330 0.314650 -0.588249
O244  O     O_R   0.685350 0.243670 0.946210 -0.579932
O245  O     O_R   0.553790 0.743670 0.314650 -0.583676
O246  O     O_R   0.314650 0.756330 0.053790 -0.592702
O247  O     O_R   0.946210 0.243670 0.314650 -0.580893
O248  O     O_R   0.053790 0.756330 0.685350 -0.581400
O249  O     O_R   0.314650 0.243670 0.053790 -0.592166
O250  O     O_R   0.685350 0.756330 0.946210 -0.582292
O251  O     O_R   0.243670 0.685350 0.053790 -0.617751
O252  O     O_R   0.756330 0.314650 0.946210 -0.576109
O253  O     O_R   0.243670 0.946210 0.685350 -0.611169
O254  O     O_R   0.756330 0.053790 0.314650 -0.575324
O255  O     O_R   0.243670 0.314650 0.946210 -0.573067
O256  O     O_R   0.314650 0.256330 0.446210 -0.645094
O257  O     O_R   0.756330 0.685350 0.053790 -0.602286
O258  O     O_R   0.243670 0.053790 0.314650 -0.574453
O259  O     O_R   0.756330 0.946210 0.685350 -0.581939
O260  O     O_R   0.756330 0.314650 0.053790 -0.582500
O261  O     O_R   0.243670 0.685350 0.946210 -0.572522
O262  O     O_R   0.756330 0.053790 0.685350 -0.583081
O263  O     O_R   0.243670 0.946210 0.314650 -0.627513
O264  O     O_R   0.756330 0.685350 0.946210 -0.571387
O265  O     O_R   0.243670 0.314650 0.053790 -0.633616
O266  O     O_R   0.756330 0.946210 0.314650 -0.587508
O267  O     O_R   0.685350 0.743670 0.553790 -0.633190
O268  O     O_R   0.243670 0.053790 0.685350 -0.582042
O269  O     O_R   0.314650 0.946210 0.243670 -0.591048
O270  O     O_R   0.685350 0.053790 0.756330 -0.581365
O271  O     O_R   0.053790 0.314650 0.243670 -0.618483
O272  O     O_R   0.946210 0.685350 0.756330 -0.579908
O273  O     O_R   0.685350 0.053790 0.243670 -0.580622
O274  O     O_R   0.314650 0.946210 0.756330 -0.585392
O275  O     O_R   0.946210 0.685350 0.243670 -0.654326
O276  O     O_R   0.053790 0.314650 0.756330 -0.583680
O277  O     O_R   0.685350 0.946210 0.756330 -0.580660
O278  O     O_R   0.553790 0.743670 0.685350 -0.616391
O279  O     O_R   0.314650 0.053790 0.243670 -0.593286
O280  O     O_R   0.946210 0.314650 0.756330 -0.581133
O281  O     O_R   0.053790 0.685350 0.243670 -0.578498
O282  O     O_R   0.314650 0.053790 0.756330 -0.631976
O283  O     O_R   0.685350 0.946210 0.243670 -0.594527
O284  O     O_R   0.053790 0.685350 0.756330 -0.579853
O285  O     O_R   0.946210 0.314650 0.243670 -0.571508
O286  O     O_R   0.053790 0.256330 0.814650 -0.572200
O287  O     O_R   0.946210 0.743670 0.185350 -0.564091
O288  O     O_R   0.185350 0.256330 0.053790 -0.574061
Zn1   Zn    Zn3+2 0.500000 0.210530 0.289470 1.100006
Zn2   Zn    Zn3+2 0.210530 0.289470 0.500000 1.128662
Zn3   Zn    Zn3+2 0.789470 0.500000 0.710530 1.127199
Zn4   Zn    Zn3+2 0.210530 0.500000 0.289470 1.094577
Zn5   Zn    Zn3+2 0.789470 0.289470 0.500000 1.127330
Zn6   Zn    Zn3+2 0.210530 0.710530 0.500000 1.130372
Zn7   Zn    Zn3+2 0.789470 0.500000 0.289470 1.094599
Zn8   Zn    Zn3+2 0.210530 0.500000 0.710530 1.131006
Zn9   Zn    Zn3+2 0.289470 0.500000 0.789470 1.060641
Zn10  Zn    Zn3+2 0.710530 0.500000 0.210530 1.087512
Zn11  Zn    Zn3+2 0.500000 0.289470 0.789470 1.105832
Zn12  Zn    Zn3+2 0.500000 0.789470 0.710530 1.101826
Zn13  Zn    Zn3+2 0.500000 0.710530 0.210530 1.115658
Zn14  Zn    Zn3+2 0.710530 0.500000 0.789470 1.129654
Zn15  Zn    Zn3+2 0.289470 0.500000 0.210530 1.069848
Zn16  Zn    Zn3+2 0.500000 0.710530 0.789470 1.105829
Zn17  Zn    Zn3+2 0.500000 0.289470 0.210530 1.121827
Zn18  Zn    Zn3+2 0.000000 0.710530 0.289470 1.082534
Zn19  Zn    Zn3+2 1.000000 0.289470 0.710530 1.130151
Zn20  Zn    Zn3+2 0.710530 0.710530 0.000000 1.108007
Zn21  Zn    Zn3+2 0.289470 0.289470 0.000000 1.089976
Zn22  Zn    Zn3+2 0.000000 0.710530 0.710530 1.131475
Zn23  Zn    Zn3+2 0.710530 0.210530 0.500000 1.128421
Zn24  Zn    Zn3+2 0.000000 0.289470 0.289470 1.105028
Zn25  Zn    Zn3+2 0.289470 0.710530 0.000000 1.097971
Zn26  Zn    Zn3+2 0.710530 0.289470 0.000000 1.129013
Zn27  Zn    Zn3+2 0.289470 0.000000 0.710530 1.074330
Zn28  Zn    Zn3+2 0.710530 0.000000 0.289470 1.124580
Zn29  Zn    Zn3+2 0.289470 0.000000 0.289470 1.091367
Zn30  Zn    Zn3+2 0.710530 0.000000 0.710530 1.124995
Zn31  Zn    Zn3+2 0.000000 0.210530 0.789470 1.102037
Zn32  Zn    Zn3+2 0.000000 0.789470 0.210530 1.139664
Zn33  Zn    Zn3+2 0.210530 0.210530 0.000000 1.096194
Zn34  Zn    Zn3+2 0.289470 0.789470 0.500000 1.071640
Zn35  Zn    Zn3+2 0.789470 0.789470 0.000000 1.125190
Zn36  Zn    Zn3+2 0.000000 0.210530 0.210530 1.133103
Zn37  Zn    Zn3+2 1.000000 0.789470 0.789470 1.069357
Zn38  Zn    Zn3+2 0.789470 0.210530 0.000000 1.093383
Zn39  Zn    Zn3+2 0.210530 0.789470 0.000000 1.124972
Zn40  Zn    Zn3+2 0.789470 1.000000 0.210530 1.133125
Zn41  Zn    Zn3+2 0.210530 0.000000 0.789470 1.075331
Zn42  Zn    Zn3+2 0.789470 0.000000 0.789470 1.098737
Zn43  Zn    Zn3+2 0.210530 1.000000 0.210530 1.136556
Zn44  Zn    Zn3+2 0.500000 0.210530 0.710530 1.107181
Zn45  Zn    Zn3+2 0.500000 0.789470 0.289470 1.117918
Zn46  Zn    Zn3+2 0.289470 0.210530 0.500000 1.093325
Zn47  Zn    Zn3+2 0.710530 0.789470 0.500000 1.091575
Zn48  Zn    Zn3+2 0.789470 0.710530 0.500000 1.132973

loop_
_geom_bond_atom_site_label_1
_geom_bond_atom_site_label_2
_ccdc_geom_bond_type
C10   C174  A    
C269  H48   S    
C226  O119  D    
O74   Zn34  S    
O216  Zn9   S    
C341  O245  A    
C140  C247  S    
C20   C144  A    
C145  C252  S    
C217  O110  D    
C336  O40   A    
O258  Zn29  S    
C15   C323  S    
C360  O56   A    
C40   C335  S    
C344  O32   A    
C8    C347  S    
O286  Zn31  S    
C94   C205  A    
C52   C144  A    
O256  Zn46  S    
O48   Zn40  S    
C379  O82   A    
C239  O132  D    
C104  C204  A    
C349  O280  A    
C132  C239  S    
C375  O73   A    
C225  O118  D    
C68   O68   A    
C86   C193  A    
C66   C155  A    
C56   C375  S    
C319  O223  A    
C340  O271  A    
C113  O157  A    
C369  O65   A    
O243  Zn18  S    
C350  O281  A    
C50   C110  A    
C141  C248  S    
O238  Zn22  S    
C73   C368  S    
C331  O261  A    
C231  H10   S    
C28   C354  S    
C116  C221  S    
C363  O267  A    
C159  C382  A    
C301  O247  A    
C257  O242  A    
C199  C306  S    
C67   C164  A    
C314  H93   S    
O232  Zn11  S    
C320  O21   A    
C18   C177  A    
C34   C127  A    
O113  Zn4   S    
C294  H73   S    
C168  O42   A    
C14   C151  A    
O227  Zn17  S    
C378  O81   A    
C77   C181  A    
C246  O17   A    
C198  C305  S    
O47   Zn31  S    
C283  H62   S    
C171  C277  S    
C275  O169  D    
C295  O188  D    
C365  O61   A    
C80   C146  S    
C379  O96   A    
O11   Zn38  S    
C51   C109  A    
O96   Zn8   S    
O100  Zn3   S    
O61   Zn17  S    
C64   C365  S    
C57   O57   A    
C358  O54   A    
O89   Zn45  S    
C160  C383  A    
O38   Zn36  S    
C95   C188  A    
C247  H26   S    
C27   C117  A    
C178  C285  S    
C80   C196  A    
C340  O14   A    
C312  O248  A    
C259  O152  D    
C163  C270  S    
C299  H79   S    
C52   C132  A    
C12   C150  A    
C93   C200  A    
C53   C133  A    
C18   C111  A    
C345  O287  A    
C309  O203  D    
C255  H35   S    
C349  O9    A    
C5    C155  A    
C65   C166  A    
C234  H14   S    
C333  O43   A    
C67   C156  A    
C366  O98   A    
C9    C164  A    
O146  Zn7   S    
C134  C241  S    
C43   C145  A    
O285  Zn24  S    
O37   Zn37  S    
C353  O19   A    
C354  O5    A    
C87   C330  S    
C27   C268  S    
C296  H75   S    
C377  O87   A    
C57   C97   S    
O271  Zn24  S    
C219  H78   S    
C50   C165  A    
C16   C184  A    
C361  O58   A    
C285  H64   S    
O83   Zn23  S    
O18   Zn39  S    
C214  H23   S    
C11   C337  S    
O43   Zn43  S    
C360  O104  A    
C120  C227  S    
C87   C193  A    
C284  O177  D    
C265  O159  D    
C187  C294  S    
C213  O106  D    
C86   C198  A    
O3    Zn35  S    
C38   C119  A    
O77   Zn10  S    
C179  O235  A    
O215  Zn3   S    
C238  O131  D    
C332  O44   A    
C242  O136  D    
C287  O181  D    
O259  Zn30  S    
C88   C341  S    
O93   Zn3   S    
C139  C245  S    
C278  O172  D    
O274  Zn27  S    
O98   Zn12  S    
C71   C178  A    
C276  O170  D    
C174  C281  S    
C49   C133  A    
O179  Zn48  S    
C311  O205  D    
C224  O239  A    
O44   Zn42  S    
O33   Zn40  S    
O277  Zn30  S    
C9    C116  A    
C31   C107  A    
C176  C283  S    
C133  C240  S    
C36   C126  A    
O84   Zn34  S    
C105  C211  S    
C75   C358  S    
C335  O288  A    
C345  O275  A    
C208  C315  S    
O76   Zn9   S    
C257  O47   A    
C4    C109  A    
C374  O228  A    
C322  O6    A    
C267  H47   S    
O214  Zn4   S    
C274  H53   S    
C82   C188  A    
C97   C195  A    
C312  O37   A    
C339  O270  A    
C20   C125  A    
C154  C261  S    
C33   C149  A    
C70   C167  A    
C231  O125  D    
C226  H5    S    
O92   Zn4   S    
C301  O38   A    
C26   C257  S    
C39   C131  A    
O54   Zn6   S    
C64   C159  A    
C232  O126  D    
C305  H84   S    
O20   Zn41  S    
C185  C292  S    
C32   C340  S    
C325  O16   A    
C63   C152  A    
C72   C367  S    
C108  C215  S    
C112  O222  A    
C137  C243  S    
C336  O266  A    
C317  O210  D    
O213  Zn5   S    
C335  O265  A    
C290  O246  A    
C303  H82   S    
O237  Zn21  S    
O14   Zn36  S    
O263  Zn29  S    
C265  H44   S    
C330  O234  A    
C316  O209  D    
C239  H18   S    
C282  O175  D    
C262  H41   S    
C54   C134  A    
C44   C331  S    
C33   C342  S    
C217  H56   S    
C34   C141  A    
C160  C266  S    
C165  C272  S    
C77   C175  A    
C4    C351  S    
C381  O92   A    
C6    C111  A    
C338  O25   A    
C92   C210  A    
C157  O220  A    
C280  O173  D    
C288  H68   S    
C17   C212  S    
C362  O71   A    
C283  O176  D    
O4    Zn36  S    
C206  C313  S    
O81   Zn10  S    
O29   Zn42  S    
C19   C123  A    
C98   C199  A    
C331  O10   A    
O87   Zn7   S    
O249  Zn21  S    
C264  O158  D    
C315  H94   S    
C282  H61   S    
C30   C167  A    
C324  O48   A    
O80   Zn46  S    
C210  C317  S    
C332  O262  A    
C79   C84   S    
O211  Zn6   S    
C24   O24   A    
C113  O216  A    
C74   C184  A    
C5    C110  A    
C277  O171  D    
C1    O1    A    
C212  O238  A    
C300  H80   S    
C9    C348  S    
O71   Zn47  S    
C186  C293  S    
O103  Zn44  S    
C376  O76   A    
C16   C122  A    
C66   C370  S    
O244  Zn26  S    
C293  O186  D    
C29   C129  A    
C124  O190  A    
C237  O130  D    
C304  H83   S    
O66   Zn13  S    
C255  O149  D    
C91   C204  A    
O270  Zn30  S    
C173  C280  S    
O284  Zn22  S    
C58   C138  A    
C95   C206  A    
C48   C125  A    
O1    Zn1   S    
O6    Zn38  S    
C142  C249  S    
C180  C286  S    
C117  C222  S    
C6    C327  S    
C28   C139  A    
O34   Zn42  S    
C83   C202  A    
O278  Zn12  S    
C260  O153  D    
C310  H90   S    
C192  C298  S    
C57   O135  A    
O49   Zn41  S    
C127  C233  S    
C12   C338  S    
C82   C194  A    
C216  H45   S    
C61   C162  A    
C369  O91   A    
O42   Zn32  S    
C43   C129  A    
C288  O182  D    
C183  C289  S    
O280  Zn19  S    
C79   O101  A    
C229  H8    S    
C45   C156  A    
C31   C169  A    
C220  O115  D    
C41   C235  S    
C327  O36   A    
C64   C153  A    
C147  C253  S    
C377  O77   A    
C40   C138  A    
C3    C180  A    
O22   Zn33  S    
C281  H60   S    
O276  Zn19  S    
C12   C119  A    
C247  O140  D    
C72   C177  A    
C326  O257  A    
C289  H69   S    
C216  O109  D    
C1    C95   S    
C107  C214  S    
O73   Zn14  S    
C62   C361  S    
O16   Zn33  S    
C106  C213  S    
C230  O123  D    
C60   C140  A    
C23   C126  A    
C1    O224  A    
C105  C382  A    
C273  H52   S    
O24   Zn46  S    
C111  C218  S    
C164  C271  S    
C107  C384  A    
C337  O39   A    
O266  Zn28  S    
O168  Zn2   S    
C115  C220  S    
C271  H50   S    
C279  O244  A    
O226  Zn9   S    
C285  O178  D    
C22   C173  A    
C319  O211  A    
C251  O144  D    
C6    C170  A    
C323  O253  A    
C29   C140  A    
C42   C246  S    
C80   C186  A    
O51   Zn37  S    
C23   C134  A    
C144  C251  S    
C236  H15   S    
C304  O197  D    
C26   C118  A    
C125  C231  S    
C305  O198  D    
C364  O60   A    
O62   Zn16  S    
C22   C312  S    
C102  C209  A    
O255  Zn21  S    
C249  H28   S    
C3    C108  A    
C149  C255  S    
O265  Zn21  S    
C351  O20   A    
O60   Zn2   S    
C76   C174  A    
O45   Zn32  S    
O19   Zn40  S    
C46   O46   A    
C10   C117  A    
C148  C254  S    
C56   C137  A    
C45   C116  A    
C123  C230  S    
C161  C267  S    
C266  O160  D    
C272  O165  D    
C99   C198  A    
O102  Zn4   S    
O63   Zn2   S    
C102  C191  A    
C343  C382  S    
C236  O129  D    
C87   C208  A    
O230  Zn14  S    
C100  C319  S    
C378  O97   A    
C318  O249  A    
C28   C128  A    
C61   C360  S    
O21   Zn35  S    
O85   Zn14  S    
C289  O183  D    
C263  H42   S    
C124  O226  A    
O17   Zn38  S    
C10   C336  S    
O252  Zn26  S    
C368  O64   A    
C252  O145  D    
C119  C226  S    
C11   C118  A    
C261  O154  D    
C21   C172  A    
C240  O133  D    
C249  O142  D    
C259  H38   S    
C59   C147  A    
O239  Zn24  S    
C325  O255  A    
O218  Zn11  S    
C266  H46   S    
C90   O113  A    
C4    C154  A    
O12   Zn37  S    
C284  H63   S    
C162  C269  S    
C55   C141  A    
C207  C314  S    
C7    C171  A    
O234  Zn44  S    
C238  H17   S    
O264  Zn20  S    
O79   Zn48  S    
C228  H7    S    
C359  O55   A    
O279  Zn29  S    
C109  C216  S    
O269  Zn29  S    
C221  O116  D    
C337  O268  A    
C92   C202  A    
C274  O167  D    
C193  C299  S    
O9    Zn31  S    
C47   C115  A    
C370  O89   A    
C34   C325  S    
C68   C96   S    
C86   C113  S    
C299  O193  D    
C7    C114  A    
C380  O93   A    
O31   Zn35  S    
C302  O195  D    
C246  O241  A    
C254  O148  D    
C190  O31   A    
C204  C310  S    
C286  H65   S    
C227  O120  D    
C131  C238  S    
C55   C136  A    
C49   C123  A    
C215  O108  D    
C361  O103  A    
C44   C147  A    
O250  Zn20  S    
C168  O233  A    
C275  H54   S    
C84   C191  A    
O282  Zn27  S    
C82   C135  S    
C122  C229  S    
C110  C217  S    
O26   Zn39  S    
C356  O52   A    
C241  H20   S    
C317  H96   S    
C248  H27   S    
C298  O192  D    
C100  C189  A    
C268  O243  A    
C15   C183  A    
C326  O15   A    
C368  O78   A    
C258  O151  D    
C71   C169  A    
C175  C282  S    
C18   C224  S    
O95   Zn12  S    
C209  C316  S    
O124  Zn5   S    
C66   C165  A    
C272  H51   S    
C248  O141  D    
O101  Zn3   S    
C35   C92   S    
C24   O168  A    
C63   C366  S    
C96   C194  A    
C75   C183  A    
C355  O285  A    
C79   O230  A    
O112  Zn12  S    
C354  O284  A    
O97   Zn7   S    
O268  Zn27  S    
O267  Zn47  S    
C219  O114  D    
C101  O217  A    
C229  O122  D    
C167  C274  S    
C102  C223  S    
O39   Zn41  S    
C245  H25   S    
C60   C377  S    
C372  O69   A    
O70   Zn46  S    
C41   C106  A    
C129  C236  S    
C221  H2    S    
C69   C356  S    
C69   C163  A    
O253  Zn27  S    
C268  O45   A    
C62   C151  A    
O246  Zn25  S    
C306  O199  D    
C41   C152  A    
C364  O70   A    
C311  H91   S    
C347  O29   A    
O50   Zn36  S    
C8    C163  A    
C308  H87   S    
C31   C179  S    
C74   C359  S    
C85   C192  A    
C323  O49   A    
C2    C89   S    
C126  C232  S    
O68   Zn23  S    
C59   C376  S    
C251  H30   S    
O224  Zn17  S    
C177  C284  S    
C314  O207  D    
C240  H19   S    
C59   C139  A    
C290  O26   A    
C78   C185  A    
C381  O86   A    
C297  H76   S    
C169  C275  S    
O275  Zn18  S    
C25   C346  S    
O99   Zn1   S    
C363  O79   A    
C37   C279  S    
C243  H22   S    
C194  C300  S    
C197  C304  S    
O90   Zn2   S    
C309  H88   S    
C14   C120  A    
C212  O51   A    
C371  O67   A    
C220  H89   S    
C98   C207  A    
C71   C371  S    
C60   C145  A    
C13   O179  A    
O273  Zn28  S    
C334  O264  A    
C338  O269  A    
C45   C318  S    
C243  O137  D    
C215  H34   S    
C138  C244  S    
C22   C121  A    
C37   C161  A    
O58   Zn11  S    
O88   Zn8   S    
O260  Zn26  S    
C88   C192  A    
C40   C130  A    
C223  O213  A    
C222  O117  D    
C322  O252  A    
O220  Zn14  S    
O248  Zn22  S    
C83   C189  A    
C234  O128  D    
C271  O164  D    
O222  Zn16  S    
C357  O53   A    
C342  O272  A    
C269  O162  D    
C23   C345  S    
C365  O99   A    
C32   C148  A    
C313  H92   S    
C278  H58   S    
C344  C383  S    
O30   Zn33  S    
C358  O84   A    
C11   C175  A    
C227  H6    S    
C136  C242  S    
O56   Zn13  S    
C256  O150  D    
O67   Zn5   S    
C73   C176  A    
C25   C127  A    
C253  H32   S    
C30   C168  S    
C371  O75   A    
O64   Zn48  S    
C70   C180  A    
C300  O194  D    
C14   C339  S    
C267  O161  D    
O157  Zn8   S    
C100  C210  A    
O217  Zn10  S    
O135  Zn6   S    
C36   C326  S    
C292  O185  D    
O228  Zn16  S    
C270  O163  D    
C195  C302  S    
C54   C378  S    
C373  O72   A    
C50   C190  S    
C42   C105  A    
C55   C379  S    
C181  C287  S    
C356  O95   A    
C178  C384  A    
C29   C355  S    
C182  C288  S    
O91   Zn44  S    
C62   C161  A    
C26   C181  A    
C35   O35   A    
C296  O189  D    
C256  H36   S    
O75   Zn23  S    
O219  Zn13  S    
C375  O100  A    
C291  O184  D    
C308  O202  D    
C47   C320  S    
C201  O237  A    
C48   C132  A    
C13   O13   A    
C97   C205  A    
C153  C260  S    
C30   C108  A    
C106  C383  A    
C58   C373  S    
C172  C278  S    
C218  H67   S    
C51   C201  S    
C81   C187  A    
C318  O22   A    
O223  Zn34  S    
C39   C137  A    
C43   C329  S    
C328  O34   A    
C143  C250  S    
C75   C173  A    
C24   C99   S    
C250  O143  D    
C152  C259  S    
C292  H71   S    
O201  Zn7   S    
C114  C219  S    
C211  O105  D    
C244  H24   S    
C170  C276  S    
C343  O33   A    
C32   C130  A    
C307  O200  D    
C91   C374  S    
C350  O8    A    
O240  Zn25  S    
C90   O229  A    
C84   C200  A    
C254  H33   S    
O5    Zn37  S    
C104  C185  A    
O28   Zn43  S    
C67   C357  S    
C121  C228  S    
O65   Zn11  S    
C280  H59   S    
C303  O196  D    
C262  O155  D    
O41   Zn31  S    
O25   Zn43  S    
C330  O232  A    
C228  O121  D    
C2    O227  A    
C99   C208  A    
C327  O258  A    
C58   C148  A    
C191  C297  S    
C135  O225  A    
O55   Zn5   S    
C258  H37   S    
C367  O80   A    
C155  C262  S    
C223  O212  A    
C38   C290  S    
O2    Zn1   S    
C298  H77   S    
O46   Zn44  S    
C362  O59   A    
C293  H72   S    
C94   C112  S    
C13   C98   S    
C81   C195  A    
C25   C136  A    
C20   C350  S    
O69   Zn6   S    
C76   C362  S    
C237  H16   S    
C48   C321  S    
O78   Zn47  S    
O27   Zn38  S    
C65   C369  S    
C85   C199  A    
C77   C364  S    
C324  O254  A    
C373  O102  A    
C222  H3    S    
C230  H9    S    
C329  O260  A    
C279  O27   A    
C374  O278  A    
C146  O221  A    
C286  O180  D    
O36   Zn43  S    
O261  Zn25  S    
C103  C352  S    
C73   C171  A    
C224  O50   A    
C61   C150  A    
O52   Zn16  S    
C74   C172  A    
C8    C115  A    
C264  H43   S    
C320  O250  A    
O233  Zn18  S    
O231  Zn13  S    
C189  C296  S    
O10   Zn39  S    
C33   C131  A    
C112  O112  A    
O82   Zn9   S    
O32   Zn41  S    
O287  Zn32  S    
C5    C353  S    
C101  O146  A    
C376  O88   A    
C213  H12   S    
C103  C186  A    
C63   C160  A    
C179  O41   A    
O212  Zn23  S    
C76   C182  A    
O288  Zn33  S    
C205  C311  S    
C196  C303  S    
C17   C114  A    
C253  O147  D    
C348  O28   A    
C118  C225  S    
C128  C234  S    
C370  O66   A    
C333  O263  A    
C146  O214  A    
C81   C124  S    
C313  O206  D    
C188  C295  S    
C380  O85   A    
C42   C153  A    
C202  C308  S    
C94   C187  A    
O254  Zn28  S    
C273  O166  D    
O23   Zn42  S    
C306  H85   S    
O235  Zn19  S    
C89   C196  A    
C53   C380  S    
C104  C363  S    
C342  O12   A    
O241  Zn26  S    
C225  H4    S    
C287  H66   S    
C53   C143  A    
C72   C170  A    
O59   Zn48  S    
C347  O277  A    
C166  C273  S    
C65   C154  A    
O190  Zn8   S    
C346  O276  A    
C156  C263  S    
C78   C157  S    
C150  C256  S    
C281  O174  D    
C184  C291  S    
C232  H11   S    
C263  O156  D    
C52   C381  S    
C235  O18   A    
O262  Zn30  S    
O13   Zn47  S    
O86   Zn15  S    
C241  O134  D    
C353  O283  A    
C46   O218  A    
O236  Zn20  S    
O40   Zn40  S    
C276  H55   S    
C307  H86   S    
C89   C203  A    
C250  H29   S    
O242  Zn19  S    
O251  Zn25  S    
O247  Zn24  S    
C93   C209  A    
O257  Zn20  S    
O272  Zn22  S    
C295  H74   S    
O229  Zn15  S    
C16   C324  S    
C245  O139  D    
C339  O23   A    
C201  O30   A    
C316  H95   S    
O225  Zn10  S    
C130  C237  S    
C85   C101  S    
C3    C333  S    
C37   C120  A    
C357  O94   A    
C21   C122  A    
O72   Zn15  S    
C334  O3    A    
C83   C90   S    
C261  H40   S    
C44   C128  A    
C19   C143  A    
C15   C121  A    
C242  H21   S    
C54   C142  A    
C297  O191  D    
C366  O62   A    
C341  O231  A    
C96   C206  A    
C355  O4    A    
C321  O7    A    
C352  O256  A    
C328  O259  A    
O53   Zn17  S    
O245  Zn45  S    
C17   C176  A    
C359  O83   A    
C277  H57   S    
O281  Zn18  S    
C159  C265  S    
C302  H81   S    
C157  O215  A    
C158  C264  S    
C19   C349  S    
C260  H39   S    
O57   Zn34  S    
C36   C142  A    
C346  O286  A    
C27   C182  A    
C78   C197  A    
O104  Zn45  S    
C344  O274  A    
C190  O236  A    
C235  O240  A    
C252  H31   S    
C46   C93   S    
C294  O187  D    
O8    Zn32  S    
C332  C384  S    
C270  H49   S    
C351  O282  A    
C68   O124  A    
C348  O279  A    
C69   C158  A    
C211  H1    S    
C21   C301  S    
O283  Zn28  S    
C135  O201  A    
C233  H13   S    
O7    Zn39  S    
C103  C203  A    
C329  O11   A    
C2    O2    A    
C343  O273  A    
C49   C322  S    
C372  O74   A    
C218  O111  D    
C91   C197  A    
C39   C334  S    
C310  O204  D    
C38   C162  A    
C291  H70   S    
C35   O219  A    
C315  O208  D    
C244  O138  D    
C7    C328  S    
C321  O251  A    
O15   Zn35  S    
C367  O63   A    
O221  Zn15  S    
C51   C166  A    
C88   C207  A    
C200  C307  S    
C70   C372  S    
C56   C149  A    
C233  O127  D    
C352  O90   A    
O94   Zn1   S    
C214  O107  D    
O35   Zn45  S    
C151  C258  S    
C47   C158  A    
C203  C309  S    
