data_mof_unit_56537.cif
_audit_creation_date              2012-12-11T14:33:03-0500
_audit_creation_method            fapswitch 2.2
_symmetry_space_group_name_H-M    P1
_symmetry_Int_Tables_number       1
_space_group_crystal_system       triclinic
_cell_length_a                    6.962407
_cell_length_b                    13.910523
_cell_length_c                    17.971491
_cell_angle_alpha                 113.594597
_cell_angle_beta                  95.694849
_cell_angle_gamma                 90.546656
_cell_volume                      1584.85280586

loop_
_atom_site_label
_atom_site_type_symbol
_atom_type_description
_atom_site_fract_x
_atom_site_fract_y
_atom_site_fract_z
_atom_type_partial_charge
O1    O     O_R   0.484560 0.544530 0.414330 -0.547420
O2    O     O_R   0.197040 0.638810 0.585080 -0.532811
O3    O     O_R   0.026800 0.455470 0.585670 -0.527824
C1    C     C_R   0.375233 0.674362 0.616157 0.692953
O4    O     O_R   0.155000 0.556150 0.414940 -0.529875
O5    O     O_R   0.984450 0.372220 0.414320 -0.536363
C2    C     C_R   0.316948 0.561432 0.385073 0.688245
O6    O     O_R   0.526900 0.627780 0.585680 -0.550271
O7    O     O_3   0.339170 0.439750 0.499990 -0.351532
V1    V     V_3+5 0.064350 0.511180 0.500000 1.496487
O8    O     O_R   0.654880 0.361190 0.414920 -0.535132
C3    C     C_R   0.816392 0.324338 0.386366 0.801442
O9    O     O_R   0.696930 0.443850 0.585060 -0.535208
C4    C     C_R   0.872963 0.431865 0.611691 0.872824
V2    V     V_3+5 0.564340 0.488820 0.500000 1.479536
O10   O     O_3   0.839390 0.560250 0.500010 -0.387730
C5    C     C_R   0.037395 0.867036 0.825689 -0.058808
C6    C     C_R   0.902875 0.395709 0.679857 -0.255312
C7    C     C_R   0.899462 0.826322 0.686461 -0.145801
C8    C     C_R   0.970695 0.793988 0.747221 -0.139072
C9    C     C_R   0.033789 0.975439 0.842028 -0.226820
C10   C     C_R   0.962375 0.010851 0.780026 0.090577
C11   C     C_R   0.890834 0.933142 0.702394 0.166172
C12   C     C_R   0.958992 0.119619 0.791512 0.006736
C13   C     C_R   0.887221 0.147590 0.724963 0.074302
C14   C     C_R   0.799398 0.066633 0.652836 -0.076685
C15   C     C_R   0.805107 0.961923 0.641314 -0.130631
C16   C     C_R   0.027908 0.201115 0.866728 -0.120494
C17   C     C_R   0.036385 0.305019 0.876115 -0.072950
C18   C     C_R   0.984154 0.332364 0.810390 -0.056656
C19   C     C_R   0.908487 0.255083 0.732961 -0.035348
C20   C     C_R   0.015708 0.437018 0.821741 -0.197694
C21   C     C_R   0.976652 0.468156 0.757631 0.496607
C22   C     C_R   0.872309 0.288954 0.666861 0.482758
H1    H     H_    0.740649 0.902423 0.583599 0.117718
H2    H     H_    0.093014 0.364649 0.935170 0.150277
H3    H     H_    0.845913 0.767081 0.626887 0.134189
H4    H     H_    0.967160 0.711058 0.733058 0.186734
H5    H     H_    0.082563 0.029490 0.903627 0.101252
H6    H     H_    0.720814 0.081358 0.604284 0.213432
H7    H     H_    0.078677 0.187006 0.919843 0.140070
H8    H     H_    0.075803 0.495256 0.880738 0.174429
H9    H     H_    0.113007 0.225281 0.309386 0.159018
H10   H     H_    0.835331 0.033586 0.192729 0.149384
C23   C     C_2   0.136636 0.038356 0.184383 -0.322866
C24   C     C_2   0.973313 0.077830 0.216765 -0.113114
H11   H     H_    0.674132 0.175838 0.293465 0.124712
C25   C     C_2   0.811786 0.220280 0.317910 -0.299601
C26   C     C_2   0.975067 0.180972 0.285396 -0.093096
H12   H     H_    0.274330 0.082746 0.208868 0.129227
C27   C     C_R   0.412482 0.776200 0.689354 -0.116035
C28   C     C_R   0.535781 0.461297 0.835954 -0.139081
C29   C     C_R   0.537816 0.873766 0.832054 -0.094520
C30   C     C_R   0.484667 0.777946 0.765443 -0.121141
C31   C     C_R   0.400161 0.872151 0.681572 -0.125083
C32   C     C_R   0.439243 0.971139 0.750347 0.115250
C33   C     C_R   0.514523 0.970303 0.825473 -0.000214
C34   C     C_R   0.412444 0.070332 0.745721 -0.153662
C35   C     C_R   0.482001 0.169066 0.812885 -0.119885
C36   C     C_R   0.557521 0.162782 0.886718 0.629235
C37   C     C_R   0.569689 0.065354 0.892702 -0.280241
C38   C     C_R   0.307322 0.073840 0.676756 0.585641
C39   C     C_R   0.294737 0.165334 0.667707 -0.203478
C40   C     C_R   0.393566 0.258010 0.722802 -0.039349
C41   C     C_R   0.473382 0.267226 0.800758 0.096561
C42   C     C_R   0.411596 0.339939 0.697989 0.149944
C43   C     C_R   0.478046 0.441057 0.753688 -0.155665
C44   C     C_R   0.538492 0.372842 0.858849 -0.162757
H13   H     H_    0.628457 0.064133 0.950445 0.150160
H14   H     H_    0.588312 0.389147 0.921528 0.200107
H15   H     H_    0.484414 0.503783 0.732687 0.125971
H16   H     H_    0.198829 0.161475 0.615526 0.217653
H17   H     H_    0.597599 0.872853 0.889264 0.152836
H18   H     H_    0.504468 0.705079 0.772921 0.111444
H19   H     H_    0.374713 0.865698 0.619731 0.175967
H20   H     H_    0.595891 0.641490 0.329757 0.107688
C45   C     C_2   0.307820 0.579580 0.308679 0.065728
C46   C     C_2   0.463744 0.619402 0.287766 -0.259803
H21   H     H_    0.767432 0.665515 0.221941 0.142930
C47   C     C_2   0.630224 0.663202 0.187038 -0.402932
C48   C     C_2   0.464314 0.638943 0.211624 0.683337
O11   O     O_R   0.421600 0.630430 0.917010 -0.523346
O12   O     O_R   0.793840 0.702190 0.087630 -0.528067
O13   O     O_R   0.964010 0.886170 0.088190 -0.545542
C49   C     C_R   0.630490 0.693938 0.116277 0.794195
O14   O     O_R   0.751460 0.619510 0.917500 -0.523754
O15   O     O_R   0.921330 0.802900 0.916840 -0.542999
C50   C     C_R   0.574032 0.575576 0.897011 0.702846
O16   O     O_R   0.464290 0.713700 0.088350 -0.500178
O17   O     O_3   0.609200 0.818520 0.002630 -0.406035
V3    V     V_3+5 0.884140 0.747190 0.002530 1.510742
O18   O     O_R   0.251150 0.814630 0.917340 -0.542359
C51   C     C_R   0.074431 0.828670 0.892139 0.743611
O19   O     O_R   0.293530 0.897310 0.087470 -0.548929
C52   C     C_R   0.132031 0.934164 0.116042 0.753786
V4    V     V_3+5 0.384070 0.769710 0.002370 1.482990
O20   O     O_3   0.109180 0.698190 0.002460 -0.341847
F1    F     F_    0.826692 0.219987 0.588351 -0.697215
F2    F     F_    0.620820 0.249294 0.954288 -0.699817
F3    F     F_    0.198809 0.991696 0.619030 -0.710402
I1    I     I_    0.373568 0.294475 0.569991 -0.270681
F4    F     F_    0.292018 0.638086 0.168500 -0.640355
I2    I     I_    0.052052 0.512683 0.227038 -0.322593
F5    F     F_    0.016515 0.569624 0.771559 -0.730622

loop_
_geom_bond_atom_site_label_1
_geom_bond_atom_site_label_2
_ccdc_geom_bond_type
C34   C38   A    
C31   C32   A    
C13   C19   A    
O15   V3    S    
C21   F5    S    
C4    C6    S    
O2    C1    A    
C7    C8    A    
C1    O6    A    
C36   F2    S    
C45   C46   D    
C17   H2    S    
C14   C15   A    
C38   C39   A    
C10   C12   A    
C16   C17   A    
H20   C46   S    
O14   V3    S    
O5    C3    A    
C18   C19   A    
O14   C50   A    
V2    O10   S    
C16   H7    S    
O18   V4    S    
C5    C8    A    
C32   C33   A    
C33   C37   A    
C7    H3    S    
C30   H18   S    
O8    V2    S    
C29   C30   A    
O1    V2    S    
O13   V3    S    
C11   C15   A    
C17   C18   A    
O7    V1    S    
C27   C31   A    
C28   C44   A    
C3    C25   S    
C2    C45   S    
C31   H19   S    
C42   C43   A    
C35   C36   A    
O9    C4    A    
C42   I1    S    
H10   C24   S    
C48   F4    S    
O11   V4    S    
C1    C27   S    
C28   C50   S    
C12   C13   A    
O4    C2    A    
C49   O16   A    
H9    C26   S    
C15   H1    S    
C34   C35   A    
C23   C24   D    
C5    C9    A    
H21   C47   S    
C36   C37   A    
O13   C52   A    
C40   C42   A    
C7    C11   A    
C47   C49   S    
C8    H4    S    
H11   C25   S    
C9    H5    S    
C41   C44   A    
V4    O20   S    
C19   C22   A    
V3    O20   S    
O19   V4    S    
C6    C22   A    
C28   C43   A    
C38   F3    S    
C25   C26   D    
O12   C49   A    
O6    V2    S    
O9    V2    S    
C24   C26   S    
C45   I2    S    
C5    C51   S    
O2    V1    S    
C37   H13   S    
C29   C33   A    
O1    C2    A    
C29   H17   S    
C12   C16   A    
C47   C48   D    
O5    V1    S    
O8    C3    A    
O17   V4    S    
O3    C4    A    
O12   V3    S    
C27   C30   A    
C20   C21   A    
O16   V4    S    
C13   C14   A    
O4    V1    S    
O3    V1    S    
V1    O10   S    
C35   C41   A    
C18   C20   A    
C46   C48   S    
C14   H6    S    
O17   V3    S    
C23   H12   S    
O11   C50   A    
O15   C51   A    
C40   C41   A    
O18   C51   A    
C22   F1    S    
C32   C34   A    
C43   H15   S    
O7    V2    S    
O19   C52   A    
C6    C21   A    
C39   C40   A    
C39   H16   S    
C44   H14   S    
C20   H8    S    
C10   C11   A    
C9    C10   A    
C23   C52   S    
