data_mof_unit_67292.cif
_audit_creation_date              2013-03-05T16:02:15-0500
_audit_creation_method            fapswitch 2.2
_symmetry_space_group_name_H-M    P1
_symmetry_Int_Tables_number       1
_space_group_crystal_system       triclinic
_cell_length_a                    8.319632
_cell_length_b                    14.856067
_cell_length_c                    15.128663
_cell_angle_alpha                 97.205954
_cell_angle_beta                  97.74313
_cell_angle_gamma                 92.417324
_cell_volume                      1834.85183099

loop_
_atom_site_label
_atom_site_type_symbol
_atom_site_description
_atom_site_fract_x
_atom_site_fract_y
_atom_site_fract_z
_atom_type_partial_charge
P1    P     P_3+3 0.018600 0.416790 0.295970 0.473522
O1    O     O_2   0.841230 0.444160 0.280430 -0.356121
O2    O     O_3   0.112860 0.447350 0.393710 -0.344839
O3    O     O_3   0.597940 0.615700 0.327690 -0.333143
O4    O     O_2   0.704158 0.550027 0.178155 -0.374899
O5    O     O_3   0.004609 0.298394 0.273451 -0.604182
O6    O     O_3   0.607323 0.712627 0.178257 -0.529297
H1    H     H_    0.583022 0.775236 0.306703 0.109105
C1    C     C_3   0.600818 0.872798 0.215963 -0.135916
H2    H     H_    0.565755 0.925047 0.267508 0.129918
H3    H     H_    0.735152 0.877236 0.222490 0.175315
P2    P     P_3+3 0.635660 0.716530 0.560900 0.509551
P3    P     P_3+3 0.033044 0.782551 0.375722 0.470919
O7    O     O_2   0.802240 0.729740 0.532850 -0.360678
O8    O     O_3   0.017180 0.664790 0.371080 -0.400519
O9    O     O_2   0.888655 0.821994 0.418746 -0.392778
O10   O     O_3   0.684432 0.726652 0.678655 -0.504542
O11   O     O_3   0.000476 0.809236 0.265424 -0.518465
C2    C     C_3   0.023519 0.732257 0.205097 0.266975
H4    H     H_    0.939802 0.674293 0.212108 0.178463
H5    H     H_    0.150497 0.711987 0.216892 0.053235
C3    C     C_3   0.985332 0.752195 0.108214 -0.686068
H6    H     H_    0.008266 0.691146 0.062305 0.187238
H7    H     H_    0.855005 0.765501 0.093119 0.257069
C4    C     C_3   0.246035 0.742041 0.659134 0.348563
H8    H     H_    0.359113 0.710528 0.644842 0.116690
H9    H     H_    0.153372 0.737321 0.598427 0.107453
C5    C     C_3   0.286189 0.841738 0.694692 -0.730341
H10   H     H_    0.376615 0.848899 0.756399 0.267761
H11   H     H_    0.336321 0.877429 0.643689 0.205184
H12   H     H_    0.174654 0.873726 0.711852 0.318831
Ba1   Ba    Ba6+2 0.833400 0.543310 0.453520 1.669068
C6    C     C_3   0.925679 0.258661 0.335523 0.354312
H13   H     H_    0.817343 0.294945 0.349221 0.116170
H14   H     H_    0.010710 0.259616 0.398918 0.098597
C7    C     C_3   0.875309 0.159851 0.295151 -0.850397
H15   H     H_    0.802655 0.126454 0.339394 0.176369
H16   H     H_    0.987007 0.122325 0.290871 0.205224
C8    C     C_3   0.725348 0.817523 0.716056 0.097704
H17   H     H_    0.631602 0.862778 0.691189 0.014059
H18   H     H_    0.845843 0.839002 0.699466 0.158228
C9    C     C_3   0.734102 0.824237 0.818759 -0.066546
H19   H     H_    0.621121 0.790067 0.832782 0.189716
P4    P     P_3+3 0.171090 0.583290 0.704030 0.591349
O12   O     O_2   0.348480 0.555870 0.719620 -0.324485
O13   O     O_3   0.076830 0.552730 0.606300 -0.364048
O14   O     O_3   0.591760 0.384380 0.672320 -0.383991
O15   O     O_3   0.180932 0.701929 0.725347 -0.484241
P5    P     P_3+3 0.147676 0.216820 0.627758 0.544043
O16   O     O_3   0.629090 0.386350 0.459240 -0.367887
O17   O     O_3   0.172520 0.335290 0.628920 -0.384245
O18   O     O_2   0.274516 0.175927 0.571617 -0.333487
O19   O     O_3   0.210539 0.178755 0.732667 -0.503985
Ba2   Ba    Ba6+2 0.356420 0.456770 0.546480 1.652825
P6    P     P_3+3 0.565493 0.605786 0.209787 0.500208
C10   C     C_3   0.541395 0.779474 0.234457 0.268934
H20   H     H_    0.406774 0.773154 0.221291 0.049891
O20   O     O_3   0.560610 0.613730 0.540770 -0.315733
C11   C     C_3   0.351313 0.246091 0.278809 0.473054
H21   H     H_    0.263690 0.197529 0.295715 0.115832
H22   H     H_    0.307710 0.309919 0.306764 0.078489
C12   C     C_3   0.330908 0.233053 0.175955 -0.880723
H23   H     H_    0.204171 0.245135 0.148500 0.242504
H24   H     H_    0.414064 0.279564 0.149404 0.288275
H25   H     H_    0.356620 0.162388 0.150973 0.294927
P7    P     P_3+3 0.556165 0.268095 0.432969 0.422565
O21   O     O_2   0.387460 0.270290 0.467210 -0.348694
O22   O     O_3   0.514001 0.234003 0.315019 -0.582358
C13   C     C_3   0.212650 0.245833 0.807787 0.297370
H26   H     H_    0.274752 0.309872 0.796309 0.114275
C14   C     C_3   0.307923 0.213198 0.892179 -0.787587
H27   H     H_    0.438688 0.214507 0.888635 0.215082
H28   H     H_    0.295594 0.261423 0.953066 0.194181
P8    P     P_3+3 0.630782 0.397690 0.788824 0.486826
C15   C     C_3   0.612133 0.222987 0.739340 0.433861
H29   H     H_    0.697592 0.238177 0.692373 0.124521
O23   O     O_2   0.481277 0.439613 0.824997 -0.401025
O24   O     O_3   0.630985 0.286943 0.817951 -0.581919
H30   H     H_    0.487791 0.222729 0.703776 0.164670
H31   H     H_    0.616821 0.077839 0.701193 0.234915
C16   C     C_3   0.643840 0.128025 0.762762 -0.903378
H32   H     H_    0.565744 0.108587 0.811614 0.273675
H33   H     H_    0.772950 0.124919 0.791453 0.296532
C17   C     C_R   0.825230 0.463973 0.835445 0.318916
C18   C     C_R   0.895261 0.468399 0.926912 0.003776
C19   C     C_R   0.042899 0.467644 0.110405 0.004290
C20   C     C_R   0.887820 0.426356 0.078558 -0.027683
C21   C     C_R   0.813902 0.429235 0.990218 -0.181972
C22   C     C_R   0.122353 0.463465 0.200947 0.077125
H34   H     H_    0.822127 0.389510 0.120819 0.203828
H35   H     H_    0.692852 0.397419 0.971581 0.175272
C23   C     C_R   0.291502 0.488772 0.215444 -0.446598
C24   C     C_R   0.071229 0.539641 0.797825 0.218816
C25   C     C_R   0.139694 0.550734 0.892065 -0.177427
C26   C     C_R   0.053324 0.509942 0.955195 0.011391
C27   C     C_R   0.290768 0.599206 0.927726 0.420199
C28   C     C_R   0.360078 0.596250 0.015934 -0.216965
C29   C     C_R   0.283038 0.551551 0.075409 -0.130662
C30   C     C_R   0.125950 0.509882 0.047133 0.027897
C31   C     C_R   0.363373 0.544431 0.161521 0.227830
C32   C     C_R   0.914340 0.498381 0.773221 -0.311126
H36   H     H_    0.478946 0.629885 0.036463 0.220233
H37   H     H_    0.860921 0.491333 0.703222 0.156844
C33   C     C_R   0.705045 0.940506 0.544286 -0.122677
C34   C     C_R   0.505416 0.803725 0.510214 0.047603
C35   C     C_R   0.350332 0.770847 0.467869 -0.519782
C36   C     C_R   0.232598 0.828098 0.437687 0.186001
C37   C     C_R   0.271381 0.918995 0.444504 -0.166581
C38   C     C_R   0.431932 0.955517 0.474246 0.024489
C39   C     C_R   0.549264 0.899412 0.511847 0.001868
C40   C     C_R   0.630615 0.088833 0.496191 -0.109911
C41   C     C_R   0.744903 0.034309 0.541022 -0.086554
C42   C     C_R   0.678117 0.183532 0.492435 0.157702
C43   C     C_R   0.832902 0.218361 0.533703 -0.520759
C44   C     C_R   0.944996 0.164420 0.575068 0.223941
C45   C     C_R   0.901038 0.072999 0.579929 0.221392
C46   C     C_R   0.476148 0.045007 0.459181 -0.007795
H38   H     H_    0.174004 0.959215 0.420496 0.181895
H39   H     H_    0.868249 0.289138 0.532538 0.171252
H40   H     H_    0.797903 0.899072 0.570705 0.166603
C47   C     C_2   0.780302 0.151131 0.201430 1.305210
O25   O     O_2   0.719930 0.216938 0.172351 -0.582054
O26   O     O_R   0.762274 0.067773 0.146195 -0.734955
H41   H     H_    0.819423 0.018358 0.175994 0.313425
C48   C     C_2   0.739918 0.921113 0.863402 0.972690
O27   O     O_2   0.858898 0.972431 0.863990 -0.560201
O28   O     O_R   0.609437 0.951407 0.906041 -0.708507
H42   H     H_    0.629038 0.016511 0.936405 0.357841
N1    N     N_R   0.873967 0.778203 0.856873 0.259609
O29   O     O_R   0.852249 0.705651 0.894835 -0.380115
O30   O     O_R   0.021068 0.808821 0.852425 -0.291494
N2    N     N_R   0.533537 0.890231 0.125931 0.303854
O31   O     O_R   0.570038 0.840322 0.055287 -0.277673
O32   O     O_R   0.450863 0.961451 0.115665 -0.336262
C49   C     C_2   0.086011 0.832697 0.091493 1.225914
O33   O     O_2   0.186637 0.822650 0.039850 -0.527940
O34   O     O_R   0.061728 0.919139 0.133855 -0.786232
H43   H     H_    0.133574 0.968478 0.115977 0.332226
C50   C     C_2   0.043618 0.264802 0.825478 0.899158
O35   O     O_2   0.955206 0.299484 0.770378 -0.707274
O36   O     O_R   0.989768 0.245156 0.905179 -0.777322
H44   H     H_    0.874745 0.261283 0.910414 0.361505
C51   C     C_2   0.253858 0.118376 0.905899 1.323061
O37   O     O_2   0.276989 0.053264 0.852118 -0.537398
O38   O     O_R   0.179674 0.105078 0.981123 -0.761550
H45   H     H_    0.148588 0.038673 0.982667 0.358238
N3    N     N_R   0.375583 0.658389 0.880313 0.246281
O39   O     O_R   0.341395 0.743333 0.888519 -0.272436
O40   O     O_R   0.521985 0.639230 0.866383 -0.367513
C52   C     C_2   0.406068 0.453991 0.282325 1.036297
O41   O     O_2   0.400639 0.470428 0.362623 -0.543659
O42   O     O_R   0.532750 0.407625 0.251354 -0.769874
H46   H     H_    0.601269 0.383137 0.301335 0.369661
C53   C     C_2   0.316040 0.675353 0.439592 1.166280
O43   O     O_2   0.260490 0.626432 0.488496 -0.577758
O44   O     O_R   0.311968 0.646611 0.349321 -0.839505
H47   H     H_    0.232453 0.593205 0.332173 0.320817
N4    N     N_R   0.011356 0.021122 0.630511 0.234026
O45   O     O_R   0.981815 0.002977 0.708726 -0.394389
O46   O     O_R   0.152012 0.005081 0.605812 -0.392562
C54   C     C_2   0.369484 0.077684 0.387043 0.975698
O47   O     O_2   0.240835 0.108441 0.402675 -0.656910
O48   O     O_R   0.396931 0.051810 0.298646 -0.805660
H48   H     H_    0.295852 0.052166 0.253203 0.327254

loop_
_geom_bond_atom_site_label_1
_geom_bond_atom_site_label_2
_geom_bond_distance
_ccdc_geom_bond_type
C13   C50   1.498208 S    
P7    O22   1.775763 S    
C34   C39   1.448957 A    
C24   C25   1.448660 A    
P7    C42   1.887339 S    
C50   O36   1.400926 S    
C34   C35   1.399745 A    
C2    H4    1.109108 S    
Ba1   O20   2.940843 S    
P3    C36   1.849238 S    
O19   C13   1.412060 S    
H1    C10   1.111591 S    
P5    O17   1.761024 S    
C54   O47   1.221732 D    
C38   C46   1.418487 A    
O26   H41   1.011401 S    
C8    H18   1.109353 S    
C37   C38   1.413041 A    
C4    C5    1.518102 S    
O16   Ba2   2.939922 S    
P3    O11   1.751631 S    
C14   C51   1.508255 S    
C7    H15   1.107512 S    
C2    H5    1.108172 S    
O11   C2    1.407595 S    
C13   H26   1.107406 S    
P2    C34   1.893102 S    
O2    Ba2   2.846091 S    
C26   C30   1.439999 A    
C1    N2    1.459764 S    
C35   C36   1.392297 A    
C51   O37   1.222767 D    
C28   C29   1.389515 A    
C6    C7    1.535479 S    
C10   H20   1.108696 S    
O1    Ba1   2.849122 S    
P1    O1    1.542488 D    
O10   C8    1.405774 S    
C13   C14   1.551902 S    
C12   H24   1.105265 S    
P4    C24   1.904551 S    
C9    C48   1.507061 S    
C16   H33   1.108104 S    
N3    O39   1.299725 A    
N2    O31   1.300723 A    
C35   C53   1.434473 S    
P8    O23   1.548472 D    
P6    C31   1.887999 S    
C36   C37   1.362935 A    
O6    P6    1.748168 S    
C1    H2    1.106459 S    
C53   O44   1.374265 S    
C28   H36   1.077386 S    
C12   H25   1.109898 S    
P2    O20   1.602061 S    
P7    O21   1.560433 D    
C11   H21   1.081428 S    
C32   H37   1.082299 S    
C49   O34   1.396781 S    
P2    Ba1   3.463553 S    
N4    O46   1.298002 A    
C17   C32   1.404948 A    
C25   C26   1.445385 A    
O6    C10   1.403461 S    
Ba1   Ba2   4.572220 S    
C54   O48   1.396093 S    
P4    O13   1.579957 S    
O38   H45   1.013179 S    
C8    C9    1.536049 S    
C11   H22   1.085989 S    
P1    O5    1.745012 S    
C37   H38   1.077618 S    
C49   O33   1.221097 D    
C2    C3    1.525907 S    
C17   C18   1.419622 A    
C24   C32   1.400829 A    
C8    H17   1.109262 S    
C14   H28   1.112829 S    
C19   C20   1.401629 A    
C15   C16   1.522172 S    
Ba2   O21   2.913775 S    
C46   C54   1.456885 S    
C4    H8    1.103428 S    
P1    Ba1   3.420246 S    
C16   H32   1.104018 S    
P1    O2    1.580085 S    
O44   H47   0.996124 S    
P2    O10   1.758911 S    
C15   H29   1.106398 S    
C45   N4    1.428388 S    
C12   H23   1.110477 S    
C11   O22   1.417635 S    
C1    H3    1.107048 S    
C21   H35   1.080294 S    
P5    O18   1.539542 D    
C27   C28   1.387346 A    
O13   Ba2   2.964003 S    
C6    H13   1.099616 S    
C47   O25   1.221205 D    
C40   C42   1.455285 A    
C1    C10   1.523686 S    
C22   C23   1.421737 A    
C25   C27   1.425776 A    
C19   C30   1.442138 A    
O16   P7    1.811736 S    
C4    O15   1.385856 S    
Ba1   O16   2.844292 S    
C53   O43   1.219783 D    
O3    Ba1   2.881716 S    
O14   Ba2   2.881202 S    
P5    C44   1.859074 S    
P2    O7    1.515154 D    
O12   Ba2   2.849623 S    
C29   C31   1.400352 A    
P3    O8    1.740743 S    
O3    P6    1.754185 S    
C23   C52   1.453306 S    
C48   O27   1.222064 D    
C52   O42   1.384971 S    
C20   H34   1.078819 S    
C9    H19   1.107575 S    
O28   H42   1.013965 S    
C41   C45   1.417860 A    
P4    O12   1.542928 D    
C23   C31   1.402046 A    
C33   C41   1.427253 A    
C42   C43   1.400690 A    
Ba2   O20   2.843693 S    
C18   C21   1.412511 A    
C51   O38   1.396587 S    
C27   N3    1.423985 S    
C5    H10   1.108089 S    
C11   C12   1.529067 S    
P1    C22   1.956140 S    
C40   C41   1.431520 A    
N3    O40   1.300903 A    
C3    H6    1.110688 S    
Ba1   O13   2.845549 S    
O4    P6    1.541430 D    
C5    H12   1.106998 S    
C43   H39   1.082743 S    
O14   P8    1.733212 S    
P8    C17   1.862279 S    
H31   C16   1.108708 S    
C19   C22   1.448417 A    
O8    Ba1   2.827732 S    
C50   O35   1.214857 D    
C43   C44   1.391071 A    
C4    H9    1.109611 S    
O34   H43   1.011949 S    
O5    C6    1.390683 S    
C3    C49   1.498108 S    
C40   C46   1.425823 A    
O17   Ba2   2.828304 S    
C5    H11   1.105079 S    
C7    C47   1.514996 S    
N1    O29   1.300395 A    
C14   H27   1.095905 S    
P4    O15   1.747933 S    
O36   H44   1.007190 S    
C33   C39   1.407110 A    
C18   C26   1.416665 A    
N4    O45   1.298459 A    
P5    O19   1.771642 S    
C7    H16   1.108794 S    
C6    H14   1.110587 S    
C9    N1    1.462691 S    
C3    H7    1.108856 S    
O2    Ba1   2.963034 S    
C15   O24   1.412602 S    
C47   O26   1.394734 S    
O48   H48   1.012593 S    
P4    Ba2   3.420858 S    
O7    Ba1   2.913566 S    
O42   H46   0.999715 S    
C20   C21   1.400447 A    
N2    O32   1.300198 A    
C29   C30   1.410279 A    
P8    O24   1.755845 S    
P3    O9    1.544159 D    
C48   O28   1.397910 S    
C52   O41   1.216018 D    
N1    O30   1.300808 A    
C38   C39   1.417454 A    
C15   H30   1.099456 S    
C44   C45   1.405037 A    
C33   H40   1.074286 S    
