data_mof_unit_41129.cif
_audit_creation_date              2012-12-11T17:02:18-0500
_audit_creation_method            fapswitch 2.2
_symmetry_space_group_name_H-M    P1
_symmetry_Int_Tables_number       1
_space_group_crystal_system       triclinic
_cell_length_a                    21.645985
_cell_length_b                    7.099893
_cell_length_c                    14.867966
_cell_angle_alpha                 89.874299
_cell_angle_beta                  106.716243
_cell_angle_gamma                 89.950044
_cell_volume                      2188.40254856

loop_
_atom_site_label
_atom_site_type_symbol
_atom_type_description
_atom_site_fract_x
_atom_site_fract_y
_atom_site_fract_z
_atom_type_partial_charge
O1    O     O_R   0.585850 0.505770 0.002130 -0.533886
O2    O     O_R   0.414150 0.005770 0.997870 -0.534428
O3    O     O_R   0.467530 0.173560 0.861970 -0.538848
O4    O     O_R   0.532470 0.673560 0.138030 -0.538633
C1    C     C_R   0.455913 0.344930 0.825186 0.674078
C2    C     C_R   0.543864 0.844241 0.174789 0.674020
O5    O     O_R   0.588690 0.175900 0.993250 -0.544102
O6    O     O_R   0.411310 0.675900 0.006750 -0.543906
O7    O     O_R   0.536170 0.007950 0.130090 -0.534164
O8    O     O_R   0.463830 0.507950 0.869910 -0.533448
C3    C     C_R   0.615026 0.345082 0.997667 0.702090
C4    C     C_R   0.385061 0.845189 0.002761 0.702931
O9    O     O_3   0.482630 0.339970 0.044740 -0.378161
O10   O     O_3   0.517370 0.839970 0.955260 -0.377786
V1    V     V_3+5 0.503220 0.064200 0.991700 1.386790
V2    V     V_3+5 0.496780 0.564200 0.008300 1.388083
C5    C     C_R   0.276768 0.008005 0.959710 0.103435
C6    C     C_R   0.723438 0.507215 0.041723 0.107979
C7    C     C_R   0.316013 0.855607 0.000737 -0.134661
C8    C     C_R   0.684199 0.355398 0.000306 -0.137173
C9    C     C_R   0.287897 0.715943 0.042654 -0.202311
C10   C     C_R   0.712371 0.216471 0.958192 -0.201125
H1    H     H_    0.318280 0.607696 0.082095 0.147022
H2    H     H_    0.682027 0.109216 0.918332 0.147169
C11   C     C_R   0.222172 0.722177 0.038936 -0.164126
C12   C     C_R   0.778024 0.222873 0.961682 -0.159852
H3    H     H_    0.202991 0.611926 0.073583 0.124169
H4    H     H_    0.797181 0.113249 0.926761 0.123985
C13   C     C_R   0.183083 0.876027 0.996933 -0.092777
C14   C     C_R   0.817027 0.376281 0.003606 -0.090683
C15   C     C_R   0.211345 0.016112 0.955538 0.031323
C16   C     C_R   0.788793 0.515526 0.045444 0.018662
C17   C     C_3   0.213557 0.221933 0.975115 -0.380815
C18   C     C_3   0.786483 0.721765 0.026458 -0.384748
C19   C     C_3   0.285741 0.212541 0.985260 0.295114
C20   C     C_3   0.714388 0.712588 0.017065 0.299923
H5    H     H_    0.200834 0.254926 0.040700 0.151456
H6    H     H_    0.798869 0.756151 0.960714 0.152865
H7    H     H_    0.184889 0.303008 0.912961 0.165710
H8    H     H_    0.815421 0.801440 0.088668 0.160938
C21   C     C_R   0.925936 0.891801 0.722777 -0.055890
C22   C     C_R   0.074625 0.389486 0.277036 -0.084266
C23   C     C_R   0.569784 0.851844 0.276944 -0.022665
C24   C     C_R   0.429679 0.356707 0.723027 -0.021744
C25   C     C_R   0.930838 0.988315 0.568984 -0.183244
C26   C     C_R   0.067173 0.454722 0.433065 -0.135244
C27   C     C_R   0.962432 0.947921 0.663190 0.201838
C28   C     C_R   0.036908 0.422223 0.338215 0.189127
C29   C     C_R   0.859042 0.868667 0.687246 -0.262528
C30   C     C_R   0.142052 0.383510 0.312063 -0.239804
C31   C     C_R   0.825988 0.913061 0.592532 0.097468
C32   C     C_R   0.173769 0.420632 0.407923 0.096255
C33   C     C_R   0.863390 0.976979 0.534417 0.064350
C34   C     C_R   0.134724 0.459159 0.467675 0.037036
C35   C     C_R   0.757313 0.900212 0.554059 -0.005848
C36   C     C_R   0.242570 0.422404 0.446396 -0.005477
C37   C     C_R   0.727960 0.949651 0.457989 0.032620
C38   C     C_R   0.270350 0.455665 0.544387 0.034503
C39   C     C_R   0.766241 0.045423 0.408510 0.153730
C40   C     C_R   0.229798 0.528598 0.596650 0.162686
C41   C     C_R   0.833261 0.043782 0.444327 -0.187792
C42   C     C_R   0.162970 0.515631 0.560014 -0.197477
C43   C     C_R   0.716945 0.843111 0.608824 -0.178410
C44   C     C_R   0.284551 0.396951 0.390042 -0.179340
C45   C     C_R   0.650182 0.823899 0.570661 0.141198
C46   C     C_R   0.351639 0.388961 0.428587 0.142143
C47   C     C_R   0.622291 0.847339 0.473232 0.122755
C48   C     C_R   0.378379 0.389854 0.527005 0.122342
C49   C     C_R   0.661728 0.902149 0.415881 0.050229
C50   C     C_R   0.337354 0.416146 0.585456 0.049391
C51   C     C_R   0.556122 0.809954 0.431001 -0.164750
C52   C     C_R   0.445141 0.360140 0.568715 -0.164571
C53   C     C_R   0.530207 0.813715 0.333813 -0.180100
C54   C     C_R   0.470459 0.345847 0.665852 -0.178210
C55   C     C_R   0.634948 0.891445 0.317466 -0.214617
C56   C     C_R   0.363769 0.387293 0.683054 -0.214158
H9    H     H_    0.862087 0.108647 0.403848 0.141370
H10   H     H_    0.132528 0.562687 0.602251 0.129434
H11   H     H_    0.664772 0.903766 0.270923 0.127231
H12   H     H_    0.333384 0.381845 0.729038 0.126037
H13   H     H_    0.479555 0.782280 0.302836 0.105971
H14   H     H_    0.521800 0.323924 0.696365 0.105256
H15   H     H_    0.958738 0.036811 0.523445 0.119470
H16   H     H_    0.037638 0.483875 0.479270 0.134052
H17   H     H_    0.834269 0.825560 0.737120 0.101197
H18   H     H_    0.168064 0.355832 0.261658 0.099969
H19   H     H_    0.735937 0.814173 0.682666 0.123548
H20   H     H_    0.266498 0.386862 0.314819 0.121941
H21   H     H_    0.524024 0.773062 0.472152 0.132234
H22   H     H_    0.478335 0.344874 0.526977 0.131636
O11   O     O_R   0.036080 0.231270 0.130120 -0.539714
O12   O     O_R   0.963920 0.731270 0.869880 -0.544110
O13   O     O_R   0.911300 0.558970 0.006750 -0.543432
O14   O     O_R   0.088700 0.058970 0.993250 -0.537969
C57   C     C_R   0.884969 0.389826 0.001691 0.687039
C58   C     C_R   0.115070 0.889692 0.998508 0.704493
O15   O     O_R   0.032450 0.561140 0.138040 -0.540536
O16   O     O_R   0.967550 0.061140 0.861960 -0.527443
O17   O     O_R   0.085870 0.728910 0.002130 -0.541996
O18   O     O_R   0.914130 0.228910 0.997870 -0.542770
C59   C     C_R   0.045427 0.392762 0.175017 0.689343
C60   C     C_R   0.954849 0.893208 0.824902 0.733041
O19   O     O_3   0.017320 0.394650 0.955270 -0.369985
O20   O     O_3   0.982680 0.894650 0.044730 -0.378328
V3    V     V_3+5 0.996780 0.670490 0.008300 1.404853
V4    V     V_3+5 0.003220 0.170490 0.991700 1.429856
C61   C     C_3   0.610275 0.767876 0.634789 -0.808505
H23   H     H_    0.587217 0.629043 0.613267 0.211076
H24   H     H_    0.639907 0.755329 0.708971 0.207312
H25   H     H_    0.572574 0.875878 0.631703 0.212404
C62   C     C_3   0.393422 0.370897 0.363230 -0.807727
H26   H     H_    0.419098 0.233509 0.374729 0.215060
H27   H     H_    0.364766 0.378690 0.288377 0.205793
H28   H     H_    0.429038 0.487486 0.376147 0.206895
N1    N     N_3   0.031063 0.971682 0.699999 -0.675736
H29   H     H_    0.051174 0.838577 0.719739 0.211110
H30   H     H_    0.050609 0.020954 0.647728 0.226367
N2    N     N_3   0.967858 0.427959 0.305088 -0.680979
H31   H     H_    0.951683 0.300286 0.271684 0.217036
H32   H     H_    0.954130 0.536010 0.255428 0.227890
C63   C     C_3   0.738979 0.178231 0.326925 -0.794759
H33   H     H_    0.743572 0.115605 0.260798 0.202743
H34   H     H_    0.688206 0.217745 0.319737 0.220411
H35   H     H_    0.766308 0.312800 0.338768 0.216724
C64   C     C_3   0.253843 0.650933 0.682797 -0.803701
H36   H     H_    0.249013 0.575503 0.745766 0.204522
H37   H     H_    0.304203 0.698700 0.693571 0.220626
H38   H     H_    0.224388 0.781612 0.674290 0.213211
C65   C     C_3   0.328297 0.244683 0.087657 -0.701844
H39   H     H_    0.374058 0.316233 0.089089 0.224712
H40   H     H_    0.302461 0.329605 0.127849 0.161874
H41   H     H_    0.340960 0.111797 0.128162 0.187565
C66   C     C_3   0.671304 0.747326 0.915081 -0.701396
H42   H     H_    0.626358 0.822710 0.914556 0.226432
H43   H     H_    0.697202 0.829628 0.873872 0.162705
H44   H     H_    0.657032 0.615181 0.874901 0.184046
C67   C     C_3   0.305356 0.325399 0.909661 -0.732269
H45   H     H_    0.278073 0.276281 0.838394 0.171595
H46   H     H_    0.294820 0.476633 0.914138 0.211950
H47   H     H_    0.357508 0.308356 0.917772 0.225561
C68   C     C_3   0.695285 0.824152 0.093422 -0.732520
H48   H     H_    0.723370 0.775659 0.164602 0.174337
H49   H     H_    0.705012 0.975876 0.088302 0.211130
H50   H     H_    0.643354 0.805387 0.086392 0.223017

loop_
_geom_bond_atom_site_label_1
_geom_bond_atom_site_label_2
_ccdc_geom_bond_type
C23   C53   A    
C46   C48   A    
C43   C45   A    
C39   C63   S    
N1    H30   S    
C62   H26   S    
O1    C3    A    
O2    C4    A    
C20   C66   S    
C2    O7    A    
O20   V4    S    
O5    C3    A    
C67   H46   S    
C17   H7    S    
C18   H8    S    
C40   C64   S    
C7    C9    A    
O11   C59   A    
C68   H49   S    
C17   C19   S    
C37   C39   A    
C38   C40   A    
N1    H29   S    
C58   O17   A    
C21   C60   S    
C40   C42   A    
C53   H13   S    
C24   C56   A    
N2    H31   S    
C63   H35   S    
O13   V3    S    
C33   C41   A    
C41   H9    S    
C29   C31   A    
C35   C43   A    
C64   H38   S    
C30   C32   A    
C61   H23   S    
C15   C17   S    
C46   C62   S    
O19   V4    S    
C19   C65   S    
C6    C8    A    
O12   C60   A    
C65   H41   S    
O15   V3    S    
O5    V1    S    
C25   C33   A    
O6    V2    S    
C23   C55   A    
C61   H24   S    
O11   V4    S    
C25   H15   S    
C54   H14   S    
C21   C29   A    
O20   V3    S    
C32   C34   A    
C25   C27   A    
C11   C13   A    
O17   V3    S    
C67   H47   S    
C26   C28   A    
C3    C8    S    
C39   C41   A    
C29   H17   S    
C62   H27   S    
C68   H50   S    
C51   C53   A    
C57   O18   A    
C38   C50   A    
C28   N2    S    
C34   C42   A    
C31   C35   A    
C45   C47   A    
O16   C60   A    
C17   H5    S    
C48   C52   A    
C31   C33   A    
C44   C46   A    
O4    V2    S    
C24   C54   A    
C20   C68   S    
C14   C57   S    
C66   H44   S    
C52   H22   S    
C51   H21   S    
O6    C4    A    
C26   C34   A    
C36   C44   A    
C21   C27   A    
O19   V3    S    
O1    V2    S    
C22   C28   A    
O14   C58   A    
O2    V1    S    
C63   H33   S    
C27   N1    S    
C22   C30   A    
C26   H16   S    
C52   C54   A    
C1    C24   S    
C8    C10   A    
C12   C14   A    
C2    C23   S    
C35   C37   A    
C50   C56   A    
C66   H42   S    
C5    C15   A    
C61   H25   S    
C10   H2    S    
O4    C2    A    
C6    C16   A    
C22   C59   S    
O3    V1    S    
C66   H43   S    
C65   H39   S    
C9    C11   A    
O14   V4    S    
C44   H20   S    
C43   H19   S    
C18   H6    S    
O18   V4    S    
C42   H10   S    
C56   H12   S    
O3    C1    A    
C13   C58   S    
C11   H3    S    
C67   H45   S    
C12   H4    S    
O16   V4    S    
C37   C49   A    
C9    H1    S    
O7    V1    S    
C1    O8    A    
C13   C15   A    
O8    V2    S    
C68   H48   S    
C19   C67   S    
C14   C16   A    
C64   H36   S    
C6    C20   S    
C4    C7    S    
C5    C7    A    
C18   C20   S    
C36   C38   A    
C49   C55   A    
C62   H28   S    
C47   C51   A    
N2    H32   S    
C63   H34   S    
C30   H18   S    
O12   V3    S    
O13   C57   A    
C10   C12   A    
O9    V2    S    
C64   H37   S    
C48   C50   A    
O10   V1    S    
C5    C19   S    
C47   C49   A    
C55   H11   S    
C45   C61   S    
O15   C59   A    
C32   C36   A    
C16   C18   S    
C65   H40   S    
