data_mof_unit_45884.cif
_audit_creation_date              2012-10-26T18:26:34-0400
_audit_creation_method            fapswitch 2.2
_symmetry_space_group_name_H-M    P1
_symmetry_Int_Tables_number       1
_space_group_crystal_system       triclinic
_cell_length_a                    15.813744
_cell_length_b                    8.725115
_cell_length_c                    7.542368
_cell_angle_alpha                 102.895793
_cell_angle_beta                  94.908329
_cell_angle_gamma                 93.429141
_cell_volume                      1007.3614616

loop_
_atom_site_label
_atom_site_type_symbol
_atom_type_description
_atom_site_fract_x
_atom_site_fract_y
_atom_site_fract_z
_atom_type_partial_charge
C1    C     C_R   0.495616 0.200564 0.454578 0.547797
C2    C     C_3   0.980293 0.636639 0.604232 -0.101511
C3    C     C_1   0.250377 0.499812 0.503223 0.003794
C4    C     C_1   0.749623 0.500188 0.496777 0.003793
C5    C     C_3   0.034765 0.515703 0.672683 -0.101603
C6    C     C_3   0.965235 0.484297 0.327317 -0.101603
C7    C     C_3   0.082833 0.499994 0.502058 0.049854
C8    C     C_3   0.917167 0.500006 0.497942 0.049854
C9    C     C_1   0.174680 0.499942 0.503457 -0.045034
C10   C     C_1   0.825320 0.500058 0.496542 -0.045035
C11   C     C_2   0.404217 0.958782 0.307680 0.245949
C12   C     C_R   0.504383 0.799435 0.545422 0.547797
C13   C     C_2   0.595782 0.041218 0.692322 0.245945
C14   C     C_2   0.429530 0.320358 0.927967 0.455118
C15   C     C_2   0.570469 0.679644 0.072033 0.455121
C16   C     C_R   0.340116 0.499552 0.500994 0.555629
C17   C     C_R   0.659884 0.500448 0.499005 0.555629
C18   C     C_2   0.479314 0.034539 0.438290 0.012703
C19   C     C_2   0.520685 0.965461 0.561711 0.012703
C20   C     C_3   0.970071 0.379073 0.566381 -0.096619
C21   C     C_3   0.029929 0.620927 0.433619 -0.096618
C22   C     C_3   0.019707 0.363361 0.395768 -0.101511
Cu1   Cu    Cu3+1 0.509330 0.517380 0.684380 1.050340
Cu2   Cu    Cu3+1 0.490670 0.482620 0.315620 1.050344
H1    H     H_    0.037341 0.251202 0.310344 0.111152
H2    H     H_    0.622990 0.670481 0.169037 0.092824
H3    H     H_    0.962659 0.748798 0.689656 0.111152
H4    H     H_    0.944046 0.279813 0.620770 0.118849
H5    H     H_    0.055954 0.720187 0.379230 0.118849
H6    H     H_    0.935330 0.471441 0.185574 0.113421
H7    H     H_    0.064670 0.528559 0.814426 0.113421
H8    H     H_    0.391593 0.995099 0.180080 0.168853
H9    H     H_    0.608406 0.004901 0.819922 0.168849
H10   H     H_    0.377011 0.329523 0.830958 0.092830
N1    N     N_2   0.476600 0.456420 0.038510 -0.169121
N2    N     N_2   0.523400 0.543580 0.961490 -0.169124
O1    O     O_R   0.506070 0.286130 0.619780 -0.490136
O2    O     O_2   0.646861 0.136396 0.654057 -0.504475
O3    O     O_2   0.445408 0.189690 0.947276 -0.517810
O4    O     O_2   0.554585 0.810311 0.052731 -0.517809
O5    O     O_R   0.493930 0.713870 0.380220 -0.490133
O6    O     O_R   0.490300 0.256770 0.308360 -0.474884
O7    O     O_R   0.509700 0.743230 0.691640 -0.474888
O8    O     O_R   0.386960 0.514660 0.655680 -0.537307
O9    O     O_R   0.613040 0.485340 0.344320 -0.537305
O10   O     O_R   0.371190 0.485310 0.344260 -0.487784
O11   O     O_R   0.628810 0.514690 0.655740 -0.487785
O12   O     O_2   0.353137 0.863606 0.345946 -0.504476

loop_
_geom_bond_atom_site_label_1
_geom_bond_atom_site_label_2
_ccdc_geom_bond_type
C14   H10   S    
Cu1   Cu2   S    
C11   C18   S    
C13   H9    S    
C2    H3    S    
C3    C9    T    
C1    C18   S    
C7    C22   S    
Cu2   O6    S    
C16   O8    A    
N1    N2    D    
C1    O1    A    
Cu2   O10   S    
C2    C21   S    
C11   O12   D    
C5    C20   S    
C7    C21   S    
Cu2   O5    S    
C13   O2    D    
C8    C20   S    
Cu2   O9    S    
C12   C19   S    
C6    H6    S    
C20   C22   S    
C11   H8    S    
C18   C19   D    
C12   O7    A    
C15   O4    D    
Cu2   N1    S    
Cu1   O11   S    
C4    C17   S    
C4    C10   T    
C2    C5    S    
C7    C9    S    
C15   N2    S    
C1    O6    A    
Cu1   O7    S    
C12   O5    A    
C8    C10   S    
Cu1   N2    S    
C16   O10   A    
C14   N1    S    
C5    C7    S    
C13   C19   S    
C15   H2    S    
C6    C8    S    
C20   H4    S    
C5    H7    S    
C14   O3    D    
Cu1   O1    S    
C6    C21   S    
C21   H5    S    
C2    C8    S    
C3    C16   S    
C17   O11   A    
C17   O9    A    
Cu1   O8    S    
C22   H1    S    
C6    C22   S    
