data_mof_unit_11514.cif
_audit_creation_date              2012-12-11T18:07:11-0500
_audit_creation_method            fapswitch 2.2
_symmetry_space_group_name_H-M    P1
_symmetry_Int_Tables_number       1
_space_group_crystal_system       triclinic
_cell_length_a                    8.202327
_cell_length_b                    13.051505
_cell_length_c                    27.022794
_cell_angle_alpha                 96.822405
_cell_angle_beta                  93.34162
_cell_angle_gamma                 80.999683
_cell_volume                      2834.68698402

loop_
_atom_site_label
_atom_site_type_symbol
_atom_type_description
_atom_site_fract_x
_atom_site_fract_y
_atom_site_fract_z
_atom_type_partial_charge
Ba1   Ba    Ba6+2 0.859560 0.448380 0.523550 1.708199
Ba2   Ba    Ba6+2 0.330270 0.551530 0.476440 1.752331
C1    C     C_3   0.690815 0.085505 0.677261 -0.358621
C2    C     C_3   0.687099 0.174755 0.645642 0.329425
C3    C     C_3   0.497551 0.713343 0.626289 0.331474
C4    C     C_3   0.502421 0.740412 0.682605 -0.329879
C5    C     C_3   0.996627 0.817935 0.335265 0.759738
C6    C     C_3   0.982684 0.883947 0.291623 -0.298497
C7    C     C_3   0.494484 0.836952 0.353991 0.356301
C8    C     C_3   0.527362 0.905696 0.315186 -0.411268
C9    C     C_R   0.990916 0.406972 0.175582 0.586974
C10   C     C_R   0.930404 0.593441 0.181267 0.625465
C11   C     C_2   0.755419 0.569351 0.271435 -0.064216
C12   C     C_3   0.152061 0.236346 0.660638 0.351701
C13   C     C_3   0.739688 0.610770 0.325726 -0.049742
C14   C     C_1   0.984356 0.480530 0.342830 0.052353
C15   C     C_2   0.011394 0.457147 0.294183 -0.057758
C16   C     C_2   0.894608 0.506846 0.255520 0.250168
C17   C     C_R   0.017430 0.496271 0.102100 -0.080967
C18   C     C_R   0.031798 0.403245 0.124879 -0.031878
C19   C     C_R   0.084913 0.308405 0.096275 -0.058352
C20   C     C_R   0.965965 0.591745 0.130697 -0.038356
C21   C     C_2   0.865857 0.555043 0.360368 -0.114585
C22   C     C_2   0.357596 0.487711 0.643354 -0.270621
C23   C     C_3   0.137916 0.213185 0.713849 -0.252666
C24   C     C_R   0.158353 0.396483 0.972223 0.019587
C25   C     C_R   0.064105 0.586030 0.976338 0.020151
C26   C     C_R   0.130155 0.490387 0.948945 0.050026
C27   C     C_R   0.232220 0.304483 0.943964 -0.101456
C28   C     C_R   0.273127 0.304303 0.894647 -0.058619
C29   C     C_R   0.241607 0.395591 0.870855 -0.023558
C30   C     C_R   0.169129 0.488715 0.897771 -0.079963
C31   C     C_R   0.136805 0.580245 0.873630 -0.037199
C32   C     C_R   0.176400 0.577318 0.822976 0.598566
C33   C     C_R   0.282375 0.395087 0.820690 0.573197
C34   C     C_3   0.233395 0.227663 0.415115 0.301115
C35   C     C_2   0.437509 0.434236 0.727989 -0.089262
C36   C     C_3   0.458773 0.408598 0.672720 -0.035311
C37   C     C_1   0.209760 0.529768 0.658752 0.018866
C38   C     C_2   0.166118 0.529763 0.705804 -0.096435
C39   C     C_2   0.288555 0.482510 0.744216 0.195877
C40   C     C_R   0.113752 0.397660 0.022774 0.020370
C41   C     C_R   0.054981 0.494108 0.050780 0.051519
C42   C     C_R   0.033689 0.588614 0.028076 0.019685
C43   C     C_R   0.125241 0.305495 0.046572 -0.099747
C44   C     C_R   0.951808 0.684504 0.108395 -0.057360
C45   C     C_3   0.304915 0.115740 0.396564 -0.353431
C46   C     C_R   0.030030 0.676083 0.950686 -0.099813
C47   C     C_R   0.065536 0.673060 0.900659 -0.059095
C48   C     C_R   0.984345 0.683148 0.058379 -0.099178
C49   C     C_R   0.753413 0.819546 0.476775 -0.279674
C50   C     C_R   0.439770 0.185444 0.520088 -0.292512
C51   C     C_R   0.411812 0.010608 0.534796 -0.077260
C52   C     C_R   0.350446 0.117109 0.538496 0.021067
C53   C     C_R   0.580910 0.149496 0.492742 0.022896
C54   C     C_R   0.642203 0.038468 0.485690 -0.091632
C55   C     C_R   0.556944 0.969275 0.509001 -0.065290
C56   C     C_3   0.986074 0.769328 0.578211 0.365715
C57   C     C_R   0.616282 0.859636 0.504627 0.023012
C58   C     C_R   0.841812 0.884393 0.455926 -0.073139
C59   C     C_R   0.784813 0.991590 0.457819 -0.065129
C60   C     C_3   0.961546 0.887338 0.589911 0.208387
C61   C     C_3   0.734727 0.284449 0.372672 0.617049
C62   C     C_3   0.721767 0.253718 0.316371 -0.322448
H1    H     H_    0.755613 0.145594 0.611236 0.076416
H2    H     H_    0.413758 0.115310 0.374114 0.129520
H3    H     H_    0.341830 0.069623 0.428271 0.092179
H4    H     H_    0.212606 0.077414 0.372530 0.144087
H5    H     H_    0.871325 0.743858 0.561580 -0.108204
H6    H     H_    0.084973 0.746384 0.551253 0.060580
H7    H     H_    0.844812 0.913685 0.609477 0.036289
H8    H     H_    0.955060 0.924977 0.555072 0.024978
H9    H     H_    0.865456 0.273976 0.385750 0.006801
H10   H     H_    0.626707 0.023605 0.656543 0.100522
H11   H     H_    0.769723 0.170286 0.306248 0.106551
H12   H     H_    0.793905 0.300769 0.296857 0.077479
H13   H     H_    0.590644 0.267664 0.302656 0.143241
H14   H     H_    0.555213 0.200204 0.634800 -0.058715
H15   H     H_    0.626383 0.114318 0.712399 0.135683
H16   H     H_    0.370923 0.698914 0.613909 0.030065
H17   H     H_    0.587615 0.641420 0.617429 0.042465
H18   H     H_    0.412446 0.811458 0.693105 0.179207
H19   H     H_    0.470313 0.674785 0.700867 0.063093
H20   H     H_    0.628351 0.754762 0.696005 0.124888
H21   H     H_    0.820418 0.052021 0.686423 0.163358
H22   H     H_    0.255658 0.168458 0.727030 0.143012
H23   H     H_    0.870712 0.813840 0.346947 -0.133703
H24   H     H_    0.939542 0.840366 0.256981 0.159585
H25   H     H_    0.890460 0.954785 0.297952 0.083709
H26   H     H_    0.104304 0.906340 0.285223 0.123012
H27   H     H_    0.612696 0.812644 0.374657 -0.096930
H28   H     H_    0.410106 0.883860 0.381609 0.086097
H29   H     H_    0.607135 0.858888 0.286258 0.129412
H30   H     H_    0.591027 0.970145 0.333153 0.128080
H31   H     H_    0.048818 0.298483 0.652348 0.089519
H32   H     H_    0.409086 0.939336 0.297194 0.127773
H33   H     H_    0.126835 0.410365 0.282432 0.113385
H34   H     H_    0.095837 0.235265 0.112311 0.120469
H35   H     H_    0.532921 0.401692 0.753687 0.119299
H36   H     H_    0.330035 0.231374 0.875054 0.123875
H37   H     H_    0.263706 0.230997 0.959160 0.070069
H38   H     H_    0.162255 0.228847 0.027513 0.068619
H39   H     H_    0.667055 0.605218 0.244718 0.094420
H40   H     H_    0.914525 0.759486 0.129656 0.118394
H41   H     H_    0.972574 0.750553 0.967941 0.069115
H42   H     H_    0.271531 0.263755 0.657431 -0.073072
H43   H     H_    0.036856 0.744604 0.883159 0.123999
H44   H     H_    0.042358 0.563973 0.716632 0.128479
H45   H     H_    0.972864 0.758449 0.044923 0.068707
H46   H     H_    0.865177 0.584447 0.399624 0.074413
H47   H     H_    0.399436 0.499947 0.607412 0.055644
H48   H     H_    0.342312 0.960498 0.551147 0.152474
H49   H     H_    0.799118 0.736756 0.474195 0.054270
H50   H     H_    0.392534 0.268078 0.524526 0.047323
H51   H     H_    0.108443 0.287577 0.738232 0.095497
H52   H     H_    0.037190 0.166430 0.716069 0.154633
H53   H     H_    0.334180 0.269022 0.431766 0.024790
H54   H     H_    0.142176 0.228369 0.443883 0.079926
N1    N     N_R   0.939443 0.501648 0.203351 -0.420837
N2    N     N_R   0.247925 0.485120 0.796647 -0.422662
O1    O     O_2   0.907040 0.557650 0.617910 -0.457012
O2    O     O_3   0.646010 0.223660 0.396830 -0.620684
O3    O     O_3   0.143757 0.144804 0.628513 -0.547799
O4    O     O_2   0.282660 0.442310 0.382060 -0.385443
O5    O     O_3   0.050670 0.442340 0.442260 -0.499079
O6    O     O_3   0.504750 0.639360 0.411530 -0.420560
O7    O     O_3   0.156751 0.274905 0.374449 -0.652747
O8    O     O_3   0.618400 0.630290 0.524520 -0.471406
O9    O     O_3   0.090070 0.694820 0.435810 -0.469108
O10   O     O_2   0.177151 0.876130 0.467808 -0.454098
O11   O     O_3   0.096418 0.860460 0.374055 -0.588660
O12   O     O_3   0.139040 0.557570 0.557730 -0.508831
O13   O     O_3   0.571310 0.369620 0.475470 -0.424587
O14   O     O_2   0.348200 0.764910 0.523260 -0.463027
O15   O     O_3   0.538759 0.796896 0.603795 -0.624778
O16   O     O_2   0.418385 0.552506 0.321722 -0.384401
O17   O     O_3   0.417202 0.754166 0.330038 -0.531187
O18   O     O_2   0.999267 0.325889 0.194640 -0.602213
O19   O     O_2   0.348279 0.313645 0.798395 -0.625541
O20   O     O_2   0.892000 0.677575 0.205838 -0.599605
O21   O     O_2   0.149828 0.657491 0.802713 -0.589526
O22   O     O_3   0.684960 0.360550 0.588460 -0.485533
O23   O     O_2   0.787546 0.453509 0.676184 -0.499006
O24   O     O_3   0.027071 0.725071 0.622677 -0.595815
O25   O     O_3   0.763492 0.254470 0.673052 -0.603703
O26   O     O_2   0.841490 0.235060 0.476710 -0.472284
O27   O     O_3   0.099640 0.305100 0.564190 -0.512918
O28   O     O_2   0.005539 0.120310 0.540522 -0.440183
P1    P     P_3+3 0.072810 0.589830 0.610360 0.996694
P2    P     P_3+3 0.661990 0.251250 0.462170 1.031124
P3    P     P_3+3 0.150387 0.170831 0.566774 1.013932
P4    P     P_3+3 0.116900 0.410080 0.389630 1.020317
P5    P     P_3+3 0.048243 0.827973 0.432309 1.015891
P6    P     P_3+3 0.674996 0.374103 0.653205 0.945450
P7    P     P_3+3 0.535160 0.764102 0.539037 0.959383
P8    P     P_3+3 0.521615 0.635525 0.347053 1.109128
Cl1   Cl    Cl    0.129643 0.925330 0.628847 -0.672584
Cl2   Cl    Cl    0.644879 0.414655 0.383500 -0.705068
Cl3   Cl    Cl    0.094119 0.691930 0.312932 -0.659472
C63   C     C_2   0.881366 0.045100 0.428109 0.889693
O29   O     O_2   0.015300 0.066090 0.444530 -0.604843
O30   O     O_R   0.837649 0.051529 0.378153 -0.800886
H55   H     H_    0.924957 0.079608 0.360934 0.283406

loop_
_geom_bond_atom_site_label_1
_geom_bond_atom_site_label_2
_ccdc_geom_bond_type
C25   C46   A    
C56   C60   S    
C53   C54   A    
C32   O21   D    
C4    H18   S    
C10   C20   A    
C1    H21   S    
C62   H13   S    
C45   H4    S    
C17   C18   A    
O28   P3    D    
Ba1   O12   S    
C1    H15   S    
C7    H27   S    
C33   N2    Am   
C5    C6    S    
C47   H43   S    
C51   C52   A    
C26   C30   A    
C24   C40   A    
Ba2   O14   S    
C11   C16   D    
O2    P2    S    
C9    O18   D    
Ba1   O5    S    
C23   H51   S    
C28   C29   A    
O16   P8    D    
C55   C57   A    
C5    Cl3   S    
C8    H30   S    
C31   C47   A    
C28   H36   S    
C22   C37   D    
O15   P7    S    
C54   C55   A    
C34   C45   S    
Ba1   Ba2   S    
C21   H46   S    
C1    H10   S    
C58   P5    S    
Ba1   O22   S    
O8    P7    S    
C33   O19   D    
O26   P2    D    
C7    O17   S    
C25   C42   A    
C5    H23   S    
C29   C30   A    
C17   C41   A    
C14   C15   D    
Ba2   O12   S    
C10   O20   D    
Ba1   P1    S    
C12   O3    S    
C11   H39   S    
C34   H54   S    
C7    C8    S    
C45   H2    S    
C5    O11   S    
C50   C53   A    
C38   H44   S    
C13   C21   S    
O4    P4    D    
C9    N1    Am   
C39   N2    S    
C32   N2    Am   
O12   P1    S    
Ba1   O26   S    
C22   H47   S    
Ba1   O13   S    
C7    H28   S    
C45   H3    S    
C50   C52   A    
C31   C32   A    
C19   C43   A    
Ba2   P4    S    
O3    P3    S    
C9    C18   A    
Ba2   O13   S    
C4    H20   S    
C27   H37   S    
O11   P5    S    
C17   C20   A    
C59   C63   S    
C37   C38   D    
C51   C55   A    
C56   H6    S    
O23   P6    D    
C61   H9    S    
C8    H29   S    
C44   H40   S    
C48   H45   S    
O17   P8    S    
C58   C59   A    
C6    H24   S    
C40   C43   A    
C63   O30   S    
C35   C36   S    
O27   P3    S    
C41   C42   A    
C2    H14   S    
C27   C28   A    
O5    P4    S    
O7    P4    S    
C10   N1    Am   
C3    H17   S    
C22   C36   S    
C46   H41   S    
C8    H32   S    
C15   C16   S    
C62   H12   S    
C60   Cl1   S    
C60   H8    S    
Ba1   P2    S    
C14   P4    S    
C49   H49   S    
O22   P6    S    
C3    H16   S    
C34   H53   S    
C13   P8    S    
O25   P6    S    
Ba2   O6    S    
Ba1   O8    S    
C46   C47   A    
C20   C44   A    
C14   C21   D    
Ba2   O4    S    
C11   C13   S    
C29   C33   A    
C23   H52   S    
C34   O7    S    
C49   C57   A    
C40   C41   A    
C36   P6    S    
C1    C2    S    
C12   H31   S    
C35   H35   S    
C61   O2    S    
C51   H48   S    
C53   P2    S    
O30   H55   S    
C42   C48   A    
C3    O15   S    
O14   P7    D    
C44   C48   A    
C38   C39   S    
C57   P7    S    
C4    H19   S    
O24   P1    S    
O13   P2    S    
C56   H5    S    
C52   P3    S    
C6    H25   S    
C50   H50   S    
C37   P1    S    
C24   C26   A    
C63   O29   D    
C30   C31   A    
O9    P5    S    
C19   H34   S    
C3    C4    S    
C2    O25   S    
C2    H1    S    
C23   H22   S    
C62   H11   S    
O1    P1    D    
C60   H7    S    
O10   P5    D    
C12   C23   S    
C35   C39   D    
Ba1   O1    S    
Ba1   O27   S    
C43   H38   S    
C61   C62   S    
Ba2   O5    S    
C56   O24   S    
C12   H42   S    
C6    H26   S    
C18   C19   A    
C24   C27   A    
Ba2   O9    S    
C54   C59   A    
C49   C58   A    
C61   Cl2   S    
C15   H33   S    
C16   N1    S    
O6    P8    S    
C25   C26   A    
Ba2   O8    S    
