data_mof_unit_63619.cif
_audit_creation_date              2013-03-05T16:36:56-0500
_audit_creation_method            fapswitch 2.2
_symmetry_space_group_name_H-M    P1
_symmetry_Int_Tables_number       1
_space_group_crystal_system       triclinic
_cell_length_a                    36.328103
_cell_length_b                    25.69788
_cell_length_c                    25.702063
_cell_angle_alpha                 90.005292
_cell_angle_beta                  90.002931
_cell_angle_gamma                 90.001321
_cell_volume                      23994.2952344

loop_
_atom_site_label
_atom_site_type_symbol
_atom_site_description
_atom_site_fract_x
_atom_site_fract_y
_atom_site_fract_z
_atom_type_partial_charge
Zn1   Zn    Zn3+2 0.719300 0.249980 0.438970 1.026890
Zn2   Zn    Zn3+2 0.280700 0.249980 0.438970 1.025430
Zn3   Zn    Zn3+2 0.280700 0.249980 0.561030 1.027115
Zn4   Zn    Zn3+2 0.719300 0.249980 0.561030 1.024791
Zn5   Zn    Zn3+2 0.219300 0.749980 0.938970 1.027881
Zn6   Zn    Zn3+2 0.780700 0.749980 0.938970 1.023877
Zn7   Zn    Zn3+2 0.780700 0.749980 0.061030 1.027296
Zn8   Zn    Zn3+2 0.219300 0.749980 0.061030 1.023537
Zn9   Zn    Zn3+2 0.780720 0.311020 0.500000 1.065140
Zn10  Zn    Zn3+2 0.219280 0.311020 0.500000 1.063628
Zn11  Zn    Zn3+2 0.280720 0.811020 0.000000 1.065227
Zn12  Zn    Zn3+2 0.719280 0.811020 0.000000 1.065027
Zn13  Zn    Zn3+2 0.780730 0.188950 0.500000 1.043149
Zn14  Zn    Zn3+2 0.219270 0.188950 0.500000 1.043279
Zn15  Zn    Zn3+2 0.280730 0.688950 0.000000 1.043537
Zn16  Zn    Zn3+2 0.719270 0.688950 0.000000 1.044028
O1    O     O_3   0.750020 0.249980 0.500000 -0.518829
O2    O     O_3   0.249980 0.249980 0.500000 -0.518794
O3    O     O_3   0.250020 0.749980 0.000000 -0.518762
O4    O     O_3   0.749980 0.749980 0.000000 -0.518831
O5    O     O_R   0.728520 0.310110 0.602800 -0.634716
O6    O     O_R   0.271480 0.310110 0.602800 -0.633472
O7    O     O_R   0.271480 0.310110 0.397200 -0.634294
O8    O     O_R   0.728520 0.310110 0.397200 -0.632874
O9    O     O_R   0.228520 0.810110 0.102800 -0.634024
O10   O     O_R   0.771480 0.810110 0.102800 -0.632169
O11   O     O_R   0.771480 0.810110 0.897200 -0.634611
O12   O     O_R   0.228520 0.810110 0.897200 -0.632549
O13   O     O_R   0.728520 0.189860 0.397190 -0.617634
O14   O     O_R   0.271480 0.189860 0.397190 -0.617263
O15   O     O_R   0.271480 0.189860 0.602810 -0.617295
O16   O     O_R   0.728520 0.189860 0.602810 -0.617760
O17   O     O_R   0.228520 0.689860 0.897190 -0.616543
O18   O     O_R   0.771480 0.689860 0.897190 -0.617905
O19   O     O_R   0.771480 0.689860 0.102810 -0.618156
O20   O     O_R   0.228520 0.689860 0.102810 -0.618172
O21   O     O_R   0.771490 0.352810 0.439870 -0.600714
O22   O     O_R   0.228510 0.352810 0.439870 -0.604261
O23   O     O_R   0.228510 0.352810 0.560130 -0.601274
O24   O     O_R   0.771490 0.352810 0.560130 -0.603243
O25   O     O_R   0.271490 0.852810 0.939870 -0.601260
O26   O     O_R   0.728510 0.852810 0.939870 -0.603732
O27   O     O_R   0.728510 0.852810 0.060130 -0.601603
O28   O     O_R   0.271490 0.852810 0.060130 -0.604847
O29   O     O_R   0.771530 0.147160 0.560090 -0.613535
O30   O     O_R   0.228470 0.147160 0.560090 -0.609919
O31   O     O_R   0.228470 0.147160 0.439910 -0.612601
O32   O     O_R   0.771530 0.147160 0.439910 -0.610751
O33   O     O_R   0.271530 0.647160 0.060090 -0.613724
O34   O     O_R   0.728470 0.647160 0.060090 -0.609972
O35   O     O_R   0.728470 0.647160 0.939910 -0.613062
O36   O     O_R   0.271530 0.647160 0.939910 -0.613243
O37   O     O_R   0.832000 0.292700 0.500000 -0.603655
O38   O     O_R   0.168000 0.292700 0.500000 -0.602980
O39   O     O_R   0.332000 0.792700 0.000000 -0.604039
O40   O     O_R   0.668000 0.792700 0.000000 -0.602839
O41   O     O_R   0.668030 0.249990 0.542720 -0.624162
O42   O     O_R   0.331970 0.249990 0.542720 -0.627397
O43   O     O_R   0.331970 0.249990 0.457280 -0.624565
O44   O     O_R   0.668030 0.249990 0.457280 -0.628135
O45   O     O_R   0.168030 0.749990 0.042720 -0.625818
O46   O     O_R   0.831970 0.749990 0.042720 -0.627745
O47   O     O_R   0.831970 0.749990 0.957280 -0.625222
O48   O     O_R   0.168030 0.749990 0.957280 -0.627007
O49   O     O_R   0.832010 0.207260 0.500000 -0.631283
O50   O     O_R   0.167990 0.207260 0.500000 -0.633360
O51   O     O_R   0.332010 0.707260 0.000000 -0.628968
O52   O     O_R   0.667990 0.707260 0.000000 -0.631813
C1    C     C_R   0.749996 0.349048 0.599017 0.819106
C2    C     C_R   0.249984 0.349025 0.599039 0.822432
C3    C     C_R   0.249985 0.349024 0.400970 0.818490
C4    C     C_R   0.750019 0.349026 0.400959 0.822825
C5    C     C_R   0.249998 0.849046 0.099019 0.819276
C6    C     C_R   0.749984 0.849025 0.099039 0.823411
C7    C     C_R   0.750003 0.849048 0.900982 0.818724
C8    C     C_R   0.249997 0.849040 0.900985 0.824060
C9    C     C_R   0.750019 0.150937 0.401003 0.819189
C10   C     C_R   0.249965 0.150951 0.400989 0.817209
C11   C     C_R   0.249962 0.150958 0.599008 0.818971
C12   C     C_R   0.750036 0.150950 0.599012 0.816113
C13   C     C_R   0.250019 0.650938 0.901002 0.818364
C14   C     C_R   0.749963 0.650951 0.900988 0.816230
C15   C     C_R   0.749980 0.650933 0.098995 0.819723
C16   C     C_R   0.250020 0.650941 0.098989 0.815754
C17   C     C_R   0.849490 0.249987 0.499996 0.825646
C18   C     C_R   0.150510 0.249984 0.500004 0.825036
C19   C     C_R   0.349490 0.749985 0.999995 0.828469
C20   C     C_R   0.650510 0.749985 0.000004 0.826107
C21   C     C_R   0.650422 0.249972 0.500003 0.834290
C22   C     C_R   0.349578 0.249972 0.499997 0.834507
C23   C     C_R   0.150422 0.749973 0.999995 0.833263
C24   C     C_R   0.849578 0.749973 0.000005 0.833736
C25   C     C_3   0.521111 0.228156 0.552481 -0.232590
C26   C     C_3   0.478252 0.221381 0.548442 -0.226684
C27   C     C_3   0.478889 0.225982 0.448497 -0.231755
C28   C     C_3   0.521748 0.219384 0.452814 -0.225981
C29   C     C_3   0.021754 0.719293 0.047114 -0.226085
C30   C     C_3   0.978895 0.725875 0.051447 -0.230771
C31   C     C_3   0.978246 0.721490 0.951492 -0.226701
C32   C     C_3   0.021106 0.728268 0.947467 -0.231877
H1    H     H_    0.534035 0.235027 0.416391 0.158782
H2    H     H_    0.473684 0.253173 0.415672 0.158413
H3    H     H_    0.465965 0.238532 0.584183 0.159240
H4    H     H_    0.526316 0.256695 0.584146 0.158599
H5    H     H_    0.026310 0.756869 0.915864 0.158485
H6    H     H_    0.965958 0.738721 0.915792 0.159430
H7    H     H_    0.973690 0.752993 0.084336 0.158077
H8    H     H_    0.034042 0.734865 0.083571 0.159161
C33   C     C_1   0.389035 0.250340 0.499959 -0.093522
C34   C     C_1   0.610965 0.250345 0.500039 -0.093647
C35   C     C_1   0.889035 0.750343 0.000048 -0.093863
C36   C     C_1   0.110965 0.750349 0.999954 -0.093488
C37   C     C_3   0.536803 0.251692 0.500407 0.091121
C38   C     C_3   0.463197 0.251672 0.499547 0.090927
C39   C     C_3   0.036803 0.751698 0.999592 0.090745
C40   C     C_3   0.963197 0.751676 0.000458 0.090790
C41   C     C_3   0.477875 0.309943 0.501740 -0.099785
C42   C     C_3   0.522125 0.309820 0.495792 -0.099986
C43   C     C_3   0.977874 0.809952 0.998399 -0.099888
C44   C     C_3   0.022126 0.809817 0.004338 -0.099992
C45   C     C_1   0.422211 0.250832 0.499807 -0.052446
C46   C     C_1   0.577789 0.250843 0.500179 -0.052644
C47   C     C_1   0.922211 0.750835 0.000200 -0.052248
C48   C     C_1   0.077789 0.750849 0.999815 -0.052352
C49   C     C_R   0.223848 0.503698 0.707933 0.230458
C50   C     C_R   0.775875 0.504041 0.707573 0.230396
C51   C     C_R   0.771367 0.508266 0.296674 0.230107
C52   C     C_R   0.224767 0.504638 0.293049 0.231225
C53   C     C_R   0.724731 0.004669 0.206954 0.230384
C54   C     C_R   0.274038 0.005916 0.205720 0.230950
C55   C     C_R   0.278147 0.001245 0.789655 0.231026
C56   C     C_R   0.723688 0.003560 0.791951 0.230520
C57   C     C_R   0.248895 0.461914 0.710720 -0.077358
C58   C     C_R   0.750795 0.462293 0.710342 -0.078137
C59   C     C_R   0.750913 0.462208 0.289574 -0.077655
C60   C     C_R   0.250122 0.463210 0.290665 -0.078152
C61   C     C_R   0.748942 0.961980 0.210653 -0.077461
C62   C     C_R   0.250693 0.962355 0.210282 -0.078278
C63   C     C_R   0.252001 0.960765 0.788222 -0.078251
C64   C     C_R   0.749164 0.962266 0.789628 -0.078211
C65   C     C_R   0.274948 0.459879 0.750610 -0.255092
C66   C     C_R   0.726933 0.457816 0.752692 -0.254590
C67   C     C_R   0.729245 0.455707 0.245173 -0.253803
C68   C     C_R   0.275175 0.459987 0.249600 -0.255789
C69   C     C_R   0.774205 0.959008 0.251489 -0.253643
C70   C     C_R   0.228645 0.956146 0.254344 -0.255111
C71   C     C_R   0.225678 0.959061 0.748678 -0.252062
C72   C     C_R   0.773439 0.958224 0.747704 -0.254774
H9    H     H_    0.294374 0.427873 0.751682 0.214729
H10   H     H_    0.708225 0.425002 0.754585 0.215076
H11   H     H_    0.713241 0.420376 0.240739 0.215568
H12   H     H_    0.294539 0.427908 0.248469 0.214421
H13   H     H_    0.793011 0.926300 0.253268 0.215230
H14   H     H_    0.211289 0.921979 0.257574 0.215278
H15   H     H_    0.205834 0.927556 0.748122 0.215157
H16   H     H_    0.792455 0.925750 0.746139 0.215098
C73   C     C_R   0.776270 0.998212 0.289291 0.292223
C74   C     C_R   0.229340 0.992573 0.294922 0.291104
C75   C     C_R   0.224779 0.996981 0.709515 0.293701
C76   C     C_R   0.772931 0.994609 0.707088 0.291775
C77   C     C_R   0.276991 0.499157 0.788338 0.292727
C78   C     C_R   0.727476 0.494209 0.793305 0.291498
C79   C     C_R   0.727122 0.494601 0.207064 0.290986
C80   C     C_R   0.275948 0.497761 0.210289 0.293953
C81   C     C_R   0.751738 0.040876 0.286375 -0.153313
C82   C     C_R   0.252274 0.036844 0.290408 -0.153463
C83   C     C_R   0.250756 0.038009 0.710756 -0.157719
C84   C     C_R   0.747836 0.036651 0.709400 -0.153445
C85   C     C_R   0.251641 0.540907 0.786343 -0.153179
C86   C     C_R   0.752172 0.536695 0.790556 -0.153466
C87   C     C_R   0.747959 0.540682 0.213430 -0.153314
C88   C     C_R   0.250455 0.539371 0.212117 -0.157579
C89   C     C_R   0.725998 0.044207 0.245184 0.186102
C90   C     C_R   0.274691 0.043521 0.245881 0.185984
C91   C     C_R   0.277508 0.040109 0.750727 0.187921
C92   C     C_R   0.723149 0.041125 0.751751 0.186296
C93   C     C_R   0.225094 0.543280 0.746120 0.185864
C94   C     C_R   0.776436 0.541613 0.747769 0.186473
C95   C     C_R   0.770042 0.547612 0.258254 0.186294
C96   C     C_R   0.224912 0.542913 0.253535 0.186883
C97   C     C_1   0.249461 0.421787 0.671482 0.099634
C98   C     C_1   0.750262 0.422108 0.671162 0.098464
C99   C     C_1   0.750436 0.421952 0.328681 0.099678
C100  C     C_1   0.250176 0.422536 0.329322 0.098091
C101  C     C_1   0.749488 0.921824 0.171446 0.100490
C102  C     C_1   0.250207 0.922139 0.171133 0.098545
C103  C     C_1   0.250984 0.921245 0.828032 0.100527
C104  C     C_1   0.749714 0.922092 0.828820 0.098456
C105  C     C_1   0.751082 0.079521 0.327243 0.154368
C106  C     C_1   0.251155 0.077270 0.329494 0.151289
C107  C     C_1   0.250298 0.077987 0.671212 0.154161
C108  C     C_1   0.748891 0.077192 0.670428 0.151377
C109  C     C_1   0.251036 0.579533 0.827231 0.153770
C110  C     C_1   0.751108 0.577212 0.829551 0.151444
C111  C     C_1   0.748798 0.579435 0.172672 0.153926
C112  C     C_1   0.250337 0.578673 0.171897 0.154900
C113  C     C_1   0.750508 0.111997 0.361079 -0.032228
C114  C     C_1   0.250466 0.111014 0.362063 -0.033497
C115  C     C_1   0.250099 0.111363 0.638266 -0.030665
C116  C     C_1   0.749541 0.110993 0.637919 -0.034164
C117  C     C_1   0.250494 0.611997 0.861080 -0.032925
C118  C     C_1   0.750455 0.611001 0.862075 -0.033960
C119  C     C_1   0.749462 0.611978 0.138904 -0.032068
C120  C     C_1   0.250166 0.611636 0.138537 -0.031929
C121  C     C_1   0.249831 0.388442 0.638509 -0.064642
C122  C     C_1   0.750011 0.388616 0.638335 -0.066477
C123  C     C_1   0.750123 0.388509 0.361555 -0.064311
C124  C     C_1   0.250159 0.388772 0.361855 -0.066846
C125  C     C_1   0.749844 0.888456 0.138494 -0.063615
C126  C     C_1   0.249990 0.888629 0.138323 -0.067317
C127  C     C_1   0.250348 0.888235 0.861318 -0.063227
C128  C     C_1   0.749979 0.888609 0.861654 -0.066921
C129  C     C_R   0.019393 0.297815 0.502569 0.212628
C130  C     C_R   0.980603 0.297864 0.501189 0.212618
C131  C     C_R   0.519400 0.797844 0.998296 0.212841
C132  C     C_R   0.480611 0.797785 0.996914 0.212894
C133  C     C_R   0.038588 0.250120 0.501465 -0.077316
C134  C     C_R   0.961412 0.250222 0.498588 -0.077305
C135  C     C_R   0.538587 0.750232 0.001400 -0.076889
C136  C     C_R   0.461412 0.750107 0.998522 -0.076882
C137  C     C_R   0.019344 0.202597 0.498945 -0.079580
C138  C     C_R   0.980660 0.202651 0.497420 -0.080089
C139  C     C_R   0.519336 0.702678 0.003068 -0.079746
C140  C     C_R   0.480651 0.702611 0.001544 -0.080370
C141  C     C_1   0.078233 0.250094 0.500890 0.073525
C142  C     C_1   0.921767 0.250143 0.499147 0.073811
C143  C     C_1   0.578233 0.750144 0.000845 0.073933
C144  C     C_1   0.421767 0.750090 0.999101 0.074847
C145  C     C_1   0.888722 0.250024 0.499604 -0.058547
C146  C     C_1   0.111277 0.250009 0.500413 -0.059254
C147  C     C_1   0.388722 0.750010 0.999582 -0.056778
C148  C     C_1   0.611277 0.750021 0.000393 -0.058274
C149  C     C_1   0.466002 0.166321 0.549103 0.249751
N1    N     N_1   0.456425 0.123370 0.549817 -0.130665
C150  C     C_1   0.540709 0.180696 0.570194 0.245991
N2    N     N_1   0.556042 0.143759 0.584126 -0.118580
C151  C     C_1   0.533996 0.164345 0.454444 0.247658
N3    N     N_1   0.543573 0.121401 0.455518 -0.133584
C152  C     C_1   0.459291 0.177823 0.432773 0.245061
N4    N     N_1   0.443958 0.140333 0.420389 -0.122240
C153  C     C_1   0.959302 0.677679 0.067055 0.243121
N5    N     N_1   0.943973 0.640160 0.079349 -0.129203
C154  C     C_1   0.034007 0.664259 0.045366 0.249671
N6    N     N_1   0.043588 0.621320 0.044199 -0.133374
C155  C     C_1   0.040699 0.680841 0.929652 0.244613
N7    N     N_1   0.056029 0.643929 0.915640 -0.124396
C156  C     C_1   0.965993 0.666434 0.950699 0.251226
N8    N     N_1   0.956412 0.623486 0.949882 -0.130931
C157  C     C_1   0.540232 0.343402 0.535414 0.179748
N9    N     N_1   0.554372 0.369481 0.566230 -0.143888
C158  C     C_1   0.465631 0.334377 0.551298 0.174218
N10   N     N_1   0.456060 0.353357 0.589843 -0.142314
C159  C     C_1   0.459768 0.341841 0.460757 0.179505
N11   N     N_1   0.445628 0.366608 0.428884 -0.144311
C160  C     C_1   0.534369 0.332163 0.445262 0.174552
N12   N     N_1   0.543940 0.349517 0.405962 -0.141958
C161  C     C_1   0.034379 0.832058 0.054915 0.174665
N13   N     N_1   0.043957 0.849333 0.094251 -0.141426
C162  C     C_1   0.959774 0.841759 0.039461 0.179215
N14   N     N_1   0.945639 0.866457 0.071394 -0.144704
C163  C     C_1   0.965622 0.834493 0.948901 0.174477
N15   N     N_1   0.956044 0.853556 0.910403 -0.141767
C164  C     C_1   0.040227 0.843478 0.964786 0.179382
N16   N     N_1   0.054361 0.869619 0.934025 -0.144286
N17   N     N_R   0.700204 0.086622 0.243186 0.245015
O53   O     O_R   0.711540 0.134474 0.247359 -0.330415
O54   O     O_R   0.665225 0.077501 0.237211 -0.275654
N18   N     N_R   0.297060 0.089383 0.240449 0.244913
O55   O     O_R   0.318848 0.103922 0.277915 -0.330484
O56   O     O_R   0.295687 0.116823 0.197945 -0.276243
N19   N     N_R   0.304802 0.080643 0.750920 0.245458
O57   O     O_R   0.295040 0.129259 0.747784 -0.332460
O58   O     O_R   0.339562 0.069041 0.754758 -0.274099
N20   N     N_R   0.698498 0.084800 0.755031 0.245189
O59   O     O_R   0.677871 0.097394 0.715602 -0.331415
O60   O     O_R   0.696622 0.112195 0.797530 -0.274354
N21   N     N_R   0.198501 0.584732 0.745092 0.244963
O61   O     O_R   0.209027 0.632987 0.748864 -0.329515
O62   O     O_R   0.163602 0.574328 0.740410 -0.275233
N22   N     N_R   0.800662 0.585729 0.744061 0.245125
O63   O     O_R   0.821529 0.598691 0.783119 -0.332757
O64   O     O_R   0.801910 0.613154 0.701540 -0.273828
N23   N     N_R   0.792214 0.593640 0.263904 0.245524
O65   O     O_R   0.777742 0.639548 0.257754 -0.331663
O66   O     O_R   0.827025 0.589776 0.275194 -0.272826
N24   N     N_R   0.199930 0.586221 0.256505 0.245704
O67   O     O_R   0.179321 0.598369 0.216920 -0.336887
O68   O     O_R   0.197450 0.613378 0.299094 -0.272792
N25   N     N_R   0.198020 0.506971 0.665638 0.246874
O69   O     O_R   0.194358 0.550134 0.639678 -0.259339
O70   O     O_R   0.178320 0.466759 0.652542 -0.310069
N26   N     N_R   0.801525 0.507492 0.665080 0.246566
O71   O     O_R   0.836299 0.515660 0.674068 -0.261148
O72   O     O_R   0.790342 0.501996 0.617297 -0.311900
N27   N     N_R   0.792469 0.515937 0.343406 0.246062
O73   O     O_R   0.789608 0.559168 0.369460 -0.262569
O74   O     O_R   0.814344 0.479629 0.360413 -0.307376
N28   N     N_R   0.198048 0.506932 0.334284 0.245941
O75   O     O_R   0.163442 0.514607 0.323704 -0.263740
O76   O     O_R   0.208094 0.500855 0.382497 -0.314329
N29   N     N_R   0.699762 0.008871 0.163722 0.246626
O77   O     O_R   0.697377 0.052141 0.137645 -0.259988
O78   O     O_R   0.679575 0.969391 0.149898 -0.309999
N30   N     N_R   0.297903 0.011233 0.161382 0.246602
O79   O     O_R   0.332608 0.022011 0.167782 -0.260883
O80   O     O_R   0.285177 0.004846 0.114489 -0.317645
N31   N     N_R   0.304402 0.004104 0.831451 0.246842
O81   O     O_R   0.309248 0.047523 0.856590 -0.258491
O82   O     O_R   0.323301 0.963259 0.844930 -0.309857
N32   N     N_R   0.697632 0.006546 0.833983 0.246512
O83   O     O_R   0.662870 0.014090 0.824375 -0.260774
O84   O     O_R   0.708435 0.001247 0.881962 -0.313747
N33   N     N_R   0.803202 0.993763 0.330263 0.233206
O85   O     O_R   0.815030 0.948151 0.344584 -0.314800
O86   O     O_R   0.818915 0.034944 0.349629 -0.345883
N34   N     N_R   0.206478 0.984028 0.339979 0.232305
O87   O     O_R   0.176442 0.956702 0.336002 -0.322672
O88   O     O_R   0.217306 0.998543 0.386008 -0.335229
N35   N     N_R   0.197362 0.993040 0.669130 0.232728
O89   O     O_R   0.166166 0.969935 0.678432 -0.324464
O90   O     O_R   0.204715 0.007248 0.621663 -0.335405
N36   N     N_R   0.798171 0.988310 0.664252 0.231993
O91   O     O_R   0.829175 0.963855 0.671047 -0.324410
O92   O     O_R   0.788826 0.001859 0.617291 -0.337487
N37   N     N_R   0.304743 0.495708 0.828300 0.232421
O93   O     O_R   0.317653 0.450547 0.842178 -0.318108
O94   O     O_R   0.320058 0.537456 0.847080 -0.346885
N38   N     N_R   0.702678 0.487462 0.836584 0.232170
O95   O     O_R   0.671844 0.462429 0.830339 -0.323655
O96   O     O_R   0.712308 0.501205 0.883375 -0.336291
N39   N     N_R   0.703924 0.486380 0.162289 0.232999
O97   O     O_R   0.696757 0.439338 0.146482 -0.314486
O98   O     O_R   0.686736 0.525081 0.140477 -0.342201
N40   N     N_R   0.302709 0.493037 0.169121 0.232945
O99   O     O_R   0.315152 0.447411 0.155925 -0.317986
O100  O     O_R   0.317722 0.534114 0.148484 -0.350295
N41   N     N_R   0.960775 0.346220 0.504267 0.244753
O101  O     O_R   0.968760 0.380012 0.540248 -0.259619
O102  O     O_R   0.934781 0.356760 0.471067 -0.307764
N42   N     N_R   0.039217 0.346269 0.503249 0.245188
O103  O     O_R   0.065212 0.354213 0.537164 -0.307048
O104  O     O_R   0.031229 0.382742 0.469998 -0.258618
N43   N     N_R   0.460791 0.846230 0.995717 0.245008
O105  O     O_R   0.468781 0.883061 0.028578 -0.258303
O106  O     O_R   0.434796 0.853809 0.961718 -0.306336
N44   N     N_R   0.539232 0.846162 0.994711 0.244748
O107  O     O_R   0.565223 0.857058 0.027803 -0.305540
O108  O     O_R   0.531254 0.879566 0.958372 -0.258920
C165  C     C_1   0.039357 0.153719 0.497655 0.240295
N45   N     N_1   0.055328 0.114765 0.496628 -0.117923
C166  C     C_1   0.960650 0.153815 0.494917 0.241920
N46   N     N_1   0.944682 0.114895 0.492922 -0.114961
C167  C     C_1   0.539341 0.653869 0.006082 0.241610
N47   N     N_1   0.555306 0.614971 0.008485 -0.115746
C168  C     C_1   0.460634 0.653752 0.003351 0.243859
N48   N     N_1   0.444659 0.614813 0.004791 -0.112576

loop_
_geom_bond_atom_site_label_1
_geom_bond_atom_site_label_2
_geom_bond_distance
_ccdc_geom_bond_type
N36   O92   1.301276 A    
C139  C167  1.451696 S    
C28   C151  1.483342 S    
C139  C140  1.405887 A    
N41   O101  1.301256 A    
N29   O77   1.301268 A    
C54   C90   1.414127 A    
C106  C114  1.205459 T    
O26   C7    1.272036 A    
C86   C94   1.415073 A    
C36   C48   1.205284 T    
O30   C11   1.272623 A    
C111  C119  1.205539 T    
Zn10  O38   1.921461 S    
N19   O57   1.301208 A    
C109  C117  1.205455 T    
N20   O59   1.301254 A    
C72   C76   1.401615 A    
Zn12  O26   1.911686 S    
C32   C155  1.483798 S    
C37   C46   1.489130 S    
C52   C96   1.413890 A    
C112  C120  1.205345 T    
C71   H15   1.084127 S    
C27   H2    1.111692 S    
C16   C120  1.433051 S    
C67   H11   1.084112 S    
C155  N7    1.157408 T    
C68   C80   1.401472 A    
C53   C89   1.414119 A    
C32   C39   1.575543 S    
O11   C7    1.272581 A    
C67   C79   1.401595 A    
O34   C15   1.272703 A    
C133  C137  1.408655 A    
N32   O84   1.301230 A    
C7    C128  1.433685 S    
C82   C90   1.415078 A    
C158  N10   1.157664 T    
C17   C145  1.425275 S    
N42   O103  1.301241 A    
C87   C111  1.445797 S    
Zn1   O44   1.921099 S    
C31   C40   1.576210 S    
C14   C118  1.433326 S    
Zn2   O43   1.921053 S    
C85   C109  1.445656 S    
Zn5   O48   1.921099 S    
N34   O87   1.301599 A    
Zn6   O47   1.921053 S    
C131  C132  1.409589 A    
Zn7   O46   1.921099 S    
O16   C12   1.272918 A    
C69   C73   1.401575 A    
C168  N48   1.157330 T    
C70   H14   1.084110 S    
C77   N37   1.441907 S    
Zn16  O4    1.924645 S    
Zn11  O3    1.924642 S    
Zn12  O4    1.924684 S    
Zn1   O13   1.911006 S    
C1    C122  1.433531 S    
C27   C152  1.483801 S    
Zn3   O15   1.911154 S    
Zn4   O16   1.911147 S    
C20   C148  1.425278 S    
N18   O56   1.301257 A    
C101  C125  1.205215 T    
C88   C112  1.445299 S    
N28   O75   1.301261 A    
C54   C62   1.409290 A    
C51   N27   1.438424 S    
C105  C113  1.205459 T    
N42   O104  1.301257 A    
C24   C35   1.433444 S    
C83   C107  1.445306 S    
C141  C146  1.200509 T    
C84   C108  1.445805 S    
Zn10  O22   1.911686 S    
N26   O72   1.301229 A    
C95   N23   1.438333 S    
O25   C8    1.271929 A    
Zn13  O29   1.910662 S    
C104  C128  1.205312 T    
C33   C45   1.205286 T    
Zn10  O2    1.924684 S    
C75   C83   1.415336 A    
C50   C94   1.414139 A    
O29   C12   1.272787 A    
Zn15  O33   1.910662 S    
C42   C160  1.488090 S    
C53   C61   1.409279 A    
C50   C58   1.409294 A    
C137  C165  1.451697 S    
C10   C114  1.433320 S    
O48   C23   1.270641 A    
C82   C106  1.445665 S    
C134  C142  1.440312 S    
C144  C147  1.200506 T    
C49   N25   1.438427 S    
C44   C161  1.488089 S    
C23   C36   1.433442 S    
N24   O68   1.301224 A    
N35   O90   1.301207 A    
C165  N45   1.157326 T    
C40   C47   1.489132 S    
C99   C123  1.205299 T    
C166  N46   1.157327 T    
Zn16  O35   1.910512 S    
C59   C99   1.442562 S    
C29   C30   1.570110 S    
N27   O74   1.301229 A    
C157  N9    1.157637 T    
Zn7   O10   1.911069 S    
O33   C16   1.272665 A    
C56   C92   1.414206 A    
C159  N11   1.157629 T    
O40   C20   1.268293 A    
C153  N5    1.157410 T    
N37   O94   1.301282 A    
C41   C159  1.488043 S    
Zn6   O11   1.911210 S    
Zn5   O17   1.911006 S    
C149  N1    1.157436 T    
C77   C85   1.414883 A    
C108  C116  1.205544 T    
C151  N3    1.157434 T    
C87   C95   1.415093 A    
O28   C5    1.272048 A    
C58   C98   1.442439 S    
C85   C93   1.415089 A    
Zn8   O3    1.925131 S    
C6    C125  1.433520 S    
N22   O63   1.301242 A    
C130  C134  1.410433 A    
C73   C81   1.414894 A    
O38   C18   1.268316 A    
N40   O99   1.301584 A    
C21   C34   1.433445 S    
O5    C1    1.272553 A    
C98   C122  1.205227 T    
O32   C9    1.272793 A    
C137  C138  1.405880 A    
N44   O108  1.301258 A    
C44   C164  1.488037 S    
Zn15  O51   1.921401 S    
N25   O69   1.301269 A    
Zn11  O28   1.911532 S    
N17   O54   1.301251 A    
C50   N26   1.438425 S    
C57   C97   1.442428 S    
N43   O106  1.301239 A    
C80   C88   1.415363 A    
C29   C39   1.576201 S    
C31   C156  1.483343 S    
C75   N35   1.442036 S    
O8    C4    1.272553 A    
C83   C91   1.415169 A    
C84   C92   1.415096 A    
C31   H6    1.112343 S    
C55   N31   1.438414 S    
C54   N30   1.438432 S    
C132  C136  1.410423 A    
N38   O95   1.301599 A    
O50   C18   1.268355 A    
O37   C17   1.268290 A    
C70   C74   1.401585 A    
Zn1   O1    1.925040 S    
Zn13  O1    1.924687 S    
Zn2   O14   1.910974 S    
C51   C95   1.414199 A    
C68   H12   1.084119 S    
C41   C42   1.614800 S    
C62   C70   1.396313 A    
C73   N33   1.441922 S    
N20   O60   1.301254 A    
O39   C19   1.268317 A    
O36   C13   1.272820 A    
C38   C41   1.590531 S    
C55   C63   1.409126 A    
C78   N38   1.441923 S    
O13   C9    1.272840 A    
Zn1   O8    1.911216 S    
Zn2   O7    1.911210 S    
Zn3   O6    1.911069 S    
O18   C14   1.272898 A    
O31   C10   1.272818 A    
O6    C2    1.272513 A    
C160  N12   1.157664 T    
C133  C141  1.440315 S    
C43   C162  1.488042 S    
C132  N43   1.438514 S    
C152  N4    1.157408 T    
C136  C140  1.408653 A    
C89   N17   1.438330 S    
C167  N47   1.157326 T    
C164  N16   1.157640 T    
Zn14  O30   1.910643 S    
C129  C130  1.409587 A    
C2    C121  1.433524 S    
Zn15  O3    1.924687 S    
C53   N29   1.438429 S    
O41   C21   1.270636 A    
C61   C69   1.396308 A    
C62   C102  1.442445 S    
Zn16  O34   1.910643 S    
C52   C60   1.409112 A    
C138  C166  1.451699 S    
N23   O66   1.301258 A    
C27   C38   1.575540 S    
C154  N6    1.157434 T    
C110  C118  1.205467 T    
C129  N42   1.438515 S    
C136  C144  1.440316 S    
N34   O88   1.301272 A    
Zn8   O20   1.911147 S    
C131  N44   1.438510 S    
C38   C45   1.489130 S    
C81   C105  1.445666 S    
C150  N2    1.157407 T    
C79   C87   1.414911 A    
C88   C96   1.415160 A    
N36   O91   1.301587 A    
C28   H1    1.112348 S    
Zn8   O9    1.911037 S    
C79   N39   1.441897 S    
N28   O76   1.301214 A    
O15   C11   1.272769 A    
N41   O102  1.301239 A    
C61   C101  1.442423 S    
N29   O78   1.301226 A    
C26   C38   1.576215 S    
C11   C115  1.433058 S    
C35   C47   1.205290 T    
N31   O81   1.301258 A    
C18   C146  1.425282 S    
O7    C3    1.272470 A    
C15   C119  1.433456 S    
N27   O73   1.301268 A    
C86   C110  1.445667 S    
O19   C15   1.272915 A    
Zn13  O49   1.921401 S    
Zn9   O24   1.911532 S    
C30   H7    1.111693 S    
Zn6   O18   1.910974 S    
Zn10  O23   1.911496 S    
C64   C104  1.442585 S    
N39   O97   1.301589 A    
C131  C135  1.410429 A    
C58   C66   1.396294 A    
C78   C86   1.414898 A    
C60   C100  1.442162 S    
C25   C37   1.575545 S    
Zn15  O36   1.910476 S    
O49   C17   1.268379 A    
O42   C22   1.270810 A    
Zn4   O1    1.925131 S    
C3    C124  1.433261 S    
C26   H3    1.112344 S    
C102  C126  1.205229 T    
C28   C37   1.576209 S    
Zn9   O37   1.921485 S    
O12   C8    1.272393 A    
Zn11  O39   1.921485 S    
C74   C82   1.414897 A    
C90   N18   1.438333 S    
N32   O83   1.301274 A    
C39   C48   1.489126 S    
N22   O64   1.301255 A    
C42   C157  1.488039 S    
C92   N20   1.438330 S    
C66   C78   1.401573 A    
C13   C117  1.433315 S    
C43   C44   1.614804 S    
C26   C149  1.483341 S    
Zn5   O3    1.925040 S    
C56   C64   1.409333 A    
Zn6   O4    1.925133 S    
C57   C65   1.396303 A    
C100  C124  1.205065 T    
C66   H10   1.084114 S    
C60   C68   1.396165 A    
C34   C46   1.205288 T    
N33   O85   1.301590 A    
C163  N15   1.157667 T    
C56   N32   1.438422 S    
C55   C91   1.413921 A    
C96   N24   1.438102 S    
N37   O93   1.301596 A    
C76   C84   1.414905 A    
N33   O86   1.301285 A    
C135  C139  1.408646 A    
N35   O89   1.301590 A    
Zn3   O42   1.921099 S    
N18   O55   1.301245 A    
C76   N36   1.441907 S    
Zn7   O4    1.925038 S    
O21   C4    1.271975 A    
C72   H16   1.084104 S    
C135  C143  1.440319 S    
C9    C113  1.433318 S    
C74   N34   1.441929 S    
N43   O105  1.301258 A    
C65   C77   1.401564 A    
C25   C26   1.570124 S    
Zn2   O2    1.925133 S    
Zn14  O2    1.924645 S    
C27   C28   1.570115 S    
C71   C75   1.401444 A    
C64   C72   1.396320 A    
C41   C158  1.488091 S    
C65   H9    1.084117 S    
C80   N40   1.442048 S    
O44   C21   1.270810 A    
C25   C150  1.483804 S    
C63   C71   1.396169 A    
C32   H5    1.111691 S    
N26   O71   1.301268 A    
C107  C115  1.205350 T    
C161  N13   1.157668 T    
Zn12  O27   1.911496 S    
N24   O67   1.301209 A    
N40   O100  1.301221 A    
C81   C89   1.415086 A    
C12   C116  1.433471 S    
Zn3   O2    1.925038 S    
C30   C153  1.483792 S    
N25   O70   1.301239 A    
C29   H8    1.112345 S    
O46   C24   1.270641 A    
O47   C24   1.270805 A    
Zn16  O52   1.921422 S    
N17   O53   1.301241 A    
O9    C5    1.272537 A    
C93   N21   1.438340 S    
Zn8   O45   1.921053 S    
C69   H13   1.084108 S    
O27   C6    1.272028 A    
C143  C148  1.200512 T    
C63   C103  1.442167 S    
C25   H4    1.111691 S    
C134  C138  1.408646 A    
C4    C123  1.433666 S    
O24   C1    1.272026 A    
C140  C168  1.451700 S    
C5    C126  1.433542 S    
N38   O96   1.301269 A    
C129  C133  1.410424 A    
N30   O80   1.301235 A    
N31   O82   1.301216 A    
O43   C22   1.270636 A    
Zn4   O41   1.921053 S    
C97   C121  1.205214 T    
C29   C154  1.483348 S    
Zn5   O12   1.911216 S    
C30   C40   1.575538 S    
C31   C32   1.570124 S    
C130  N41   1.438511 S    
Zn9   O21   1.911667 S    
Zn14  O50   1.921422 S    
N39   O98   1.301276 A    
O35   C14   1.272777 A    
Zn12  O40   1.921461 S    
C8    C127  1.433271 S    
Zn9   O1    1.924642 S    
N30   O79   1.301262 A    
N21   O62   1.301257 A    
C49   C93   1.414131 A    
O52   C20   1.268381 A    
C162  N14   1.157630 T    
C91   N19   1.438101 S    
N23   O65   1.301242 A    
C49   C57   1.409284 A    
N19   O58   1.301230 A    
O22   C3    1.271926 A    
Zn7   O19   1.911154 S    
C103  C127  1.205071 T    
Zn13  O32   1.910476 S    
C156  N8    1.157438 T    
C52   N28   1.438403 S    
Zn14  O31   1.910512 S    
C142  C145  1.200509 T    
O51   C19   1.268348 A    
C22   C33   1.433440 S    
C40   C43   1.590528 S    
Zn4   O5    1.911037 S    
N44   O107  1.301240 A    
C43   C163  1.488090 S    
O20   C16   1.272800 A    
C19   C147  1.425275 S    
C59   C67   1.396308 A    
O10   C6    1.272518 A    
O23   C2    1.272030 A    
Zn11  O25   1.911667 S    
C51   C59   1.409334 A    
C37   C42   1.590529 S    
O14   C10   1.272847 A    
C94   N22   1.438334 S    
C39   C44   1.590529 S    
N21   O61   1.301247 A    
O17   C13   1.272812 A    
O45   C23   1.270805 A    
