data_mof_unit_19341.cif
_audit_creation_date              2012-12-10T18:05:10-0500
_audit_creation_method            fapswitch 2.2
_symmetry_space_group_name_H-M    P1
_symmetry_Int_Tables_number       1
_space_group_crystal_system       triclinic
_cell_length_a                    9.717544
_cell_length_b                    10.89055
_cell_length_c                    16.858536
_cell_angle_alpha                 86.501899
_cell_angle_beta                  92.862879
_cell_angle_gamma                 91.583245
_cell_volume                      1778.04119419

loop_
_atom_site_label
_atom_site_type_symbol
_atom_type_description
_atom_site_fract_x
_atom_site_fract_y
_atom_site_fract_z
_atom_type_partial_charge
C1    C     C_R   0.498642 0.262808 0.501293 0.826029
C2    C     C_R   0.501396 0.737232 0.498854 0.822585
C3    C     C_R   0.414198 0.926535 0.549997 0.168671
C4    C     C_R   0.586032 0.073637 0.450385 0.170696
C5    C     C_R   0.502934 0.871507 0.499706 -0.177862
C6    C     C_R   0.497276 0.128594 0.500630 -0.178048
C7    C     C_R   0.075963 0.457519 0.565735 0.009276
C8    C     C_R   0.924194 0.543228 0.434443 0.008971
C9    C     C_R   0.928465 0.450384 0.563967 0.256302
C10   C     C_R   0.071671 0.549802 0.436087 0.255641
C11   C     C_R   0.516255 0.499611 0.650293 0.819277
C12   C     C_R   0.483634 0.500546 0.349606 0.823359
C13   C     C_R   0.524804 0.506888 0.735794 -0.037894
C14   C     C_R   0.475317 0.504268 0.263416 -0.042602
C15   C     C_R   0.495305 0.402896 0.784941 -0.308686
C16   C     C_R   0.527500 0.607204 0.220780 -0.274763
C17   C     C_R   0.511536 0.406936 0.867648 -0.080980
C18   C     C_R   0.519975 0.614038 0.137889 -0.050197
C19   C     C_R   0.551856 0.520222 0.900579 0.296542
C20   C     C_R   0.454499 0.516434 0.097164 0.285475
C21   C     C_R   0.582151 0.624459 0.850394 0.229658
C22   C     C_R   0.392924 0.416743 0.140805 0.276672
C23   C     C_R   0.570509 0.616432 0.768048 -0.280961
C24   C     C_R   0.406238 0.410155 0.223903 -0.302325
C25   C     C_R   0.412644 0.055071 0.551085 -0.102454
C26   C     C_R   0.588040 0.945124 0.449512 -0.100966
Cu1   Cu    Cu3+1 0.640660 0.500020 0.500000 1.014107
Cu2   Cu    Cu3+1 0.359340 0.499980 0.500000 1.015147
H1    H     H_    0.571868 0.683294 0.252489 0.187511
H2    H     H_    0.465894 0.317425 0.758286 0.206922
H3    H     H_    0.594276 0.696424 0.729175 0.147326
H4    H     H_    0.361553 0.332458 0.257727 0.150426
N1    N     N_2   0.561513 0.530631 0.983677 -0.151829
N2    N     N_2   0.446983 0.515371 0.013224 -0.237926
N3    N     N_R   0.852070 0.500030 0.499980 -0.227520
N4    N     N_R   0.147930 0.499970 0.500020 -0.227764
O1    O     O_R   0.618740 0.319660 0.500000 -0.546336
O2    O     O_R   0.381260 0.680340 0.500000 -0.545783
O3    O     O_R   0.381170 0.319630 0.500010 -0.561592
O4    O     O_R   0.618830 0.680370 0.499990 -0.563475
O5    O     O_R   0.631780 0.498870 0.613920 -0.560502
O6    O     O_R   0.368220 0.501130 0.386080 -0.561780
O7    O     O_R   0.394210 0.498840 0.613930 -0.552387
O8    O     O_R   0.605790 0.501160 0.386070 -0.553827
C27   C     C_2   0.575173 0.726903 0.096946 0.865313
O9    O     O_2   0.681790 0.724287 0.061660 -0.552270
O10   O     O_R   0.509650 0.838205 0.103397 -0.753677
H5    H     H_    0.559030 0.910174 0.075161 0.338814
C28   C     C_2   0.490738 0.291018 0.917386 0.899106
O11   O     O_2   0.549164 0.276759 0.983114 -0.560661
O12   O     O_R   0.407005 0.195988 0.887851 -0.773149
H6    H     H_    0.401688 0.121395 0.926723 0.334666
N5    N     N_2   0.621509 0.738414 0.882715 -0.385005
H7    H     H_    0.697686 0.785616 0.852030 0.256823
C29   C     C_3   0.506521 0.815955 0.894168 -0.574606
H8    H     H_    0.544574 0.900596 0.922530 0.228901
H9    H     H_    0.431834 0.767125 0.933566 0.241233
H10   H     H_    0.453548 0.843000 0.835983 0.217706
N6    N     N_2   0.322264 0.320269 0.100962 -0.389531
H11   H     H_    0.323657 0.236271 0.132778 0.265790
C30   C     C_3   0.185265 0.350492 0.069615 -0.625852
H12   H     H_    0.140218 0.272353 0.036876 0.239027
H13   H     H_    0.188521 0.432954 0.027574 0.243763
H14   H     H_    0.118044 0.368007 0.118979 0.221672
C31   C     C_2   0.325301 0.109532 0.607745 0.872476
O13   O     O_2   0.214456 0.151941 0.584328 -0.556983
O14   O     O_R   0.365292 0.102479 0.688648 -0.780629
H15   H     H_    0.290510 0.128005 0.723481 0.362894
C32   C     C_2   0.677409 0.891005 0.393785 0.872838
O15   O     O_2   0.786806 0.847154 0.418554 -0.557061
O16   O     O_R   0.641830 0.901108 0.312345 -0.772859
H16   H     H_    0.718547 0.876787 0.278476 0.351639
N7    N     N_2   0.329980 0.851080 0.601440 -0.418427
H17   H     H_    0.343526 0.868005 0.660855 0.268948
C33   C     C_3   0.186187 0.839277 0.575043 -0.540627
H18   H     H_    0.129880 0.923066 0.586484 0.222650
H19   H     H_    0.137668 0.759848 0.608299 0.245098
H20   H     H_    0.175558 0.823396 0.510527 0.231555
N8    N     N_2   0.670169 0.149217 0.398943 -0.414983
H21   H     H_    0.656296 0.132869 0.339467 0.280541
C34   C     C_3   0.814000 0.161411 0.425182 -0.541279
H22   H     H_    0.870978 0.078579 0.412493 0.222602
H23   H     H_    0.824860 0.175369 0.489947 0.229434
H24   H     H_    0.861517 0.242217 0.392777 0.244439
C35   C     C_2   0.144374 0.445153 0.645121 0.924107
O17   O     O_2   0.163121 0.536784 0.683190 -0.615745
O18   O     O_R   0.176001 0.329676 0.680054 -0.749968
H25   H     H_    0.212950 0.333919 0.737137 0.325988
C36   C     C_2   0.856260 0.559360 0.355132 0.924252
O19   O     O_2   0.833021 0.469067 0.316318 -0.607535
O20   O     O_R   0.836149 0.676854 0.320001 -0.758683
H26   H     H_    0.808320 0.675492 0.261333 0.314856
N9    N     N_2   0.860689 0.375088 0.623262 -0.384786
H27   H     H_    0.881548 0.282932 0.621977 0.251616
C37   C     C_3   0.861970 0.416709 0.703558 -0.585715
H28   H     H_    0.865121 0.518871 0.703301 0.236499
H29   H     H_    0.949669 0.378424 0.740687 0.220050
H30   H     H_    0.767907 0.380882 0.732372 0.225552
N10   N     N_2   0.139681 0.624774 0.376678 -0.382356
H31   H     H_    0.118822 0.716980 0.377594 0.255856
C38   C     C_3   0.139358 0.582410 0.296556 -0.579898
H32   H     H_    0.136497 0.480228 0.297179 0.230949
H33   H     H_    0.052219 0.619932 0.258777 0.221512
H34   H     H_    0.233297 0.618729 0.267846 0.230985

loop_
_geom_bond_atom_site_label_1
_geom_bond_atom_site_label_2
_ccdc_geom_bond_type
C29   H8    S    
N9    H27   S    
N7    H17   S    
C37   H28   S    
O18   H25   S    
C28   O12   S    
C34   H22   S    
C37   H30   S    
C27   O9    D    
C38   H32   S    
C19   C21   A    
C6    C25   A    
C13   C23   A    
C7    C9    A    
C7    N4    A    
C14   C24   A    
C32   O16   S    
C2    O2    A    
C12   O6    A    
Cu1   O8    S    
O10   H5    S    
C31   O14   S    
C11   O7    A    
C36   O20   S    
C18   C20   A    
C30   H12   S    
C1    O1    A    
C20   N2    S    
C27   O10   S    
N6    H11   S    
C38   H33   S    
N7    C33   S    
C32   O15   D    
C34   H23   S    
N5    C29   S    
N6    C30   S    
C35   O18   S    
O12   H6    S    
C3    C25   A    
C25   C31   S    
N8    H21   S    
C4    N8    S    
C4    C6    A    
C19   N1    S    
C17   C28   S    
C22   N6    S    
N8    C34   S    
Cu2   O3    S    
Cu1   N3    S    
C16   H1    S    
C35   O17   D    
O14   H15   S    
C8    N3    A    
C23   H3    S    
C30   H14   S    
C33   H18   S    
C24   H4    S    
Cu1   O5    S    
N10   H31   S    
Cu2   O2    S    
Cu1   O4    S    
C30   H13   S    
N1    N2    D    
C29   H9    S    
C33   H19   S    
C8    C10   A    
N10   C38   S    
C20   C22   A    
C31   O13   D    
C38   H34   S    
C13   C15   A    
C14   C16   A    
C2    C5    S    
C18   C27   S    
C9    N9    S    
O20   H26   S    
C34   H24   S    
C15   H2    S    
C15   C17   A    
C16   C18   A    
C12   C14   S    
C3    C5    A    
C4    C26   A    
C37   H29   S    
N5    H7    S    
Cu2   O7    S    
C21   C23   A    
O16   H16   S    
C12   O8    A    
C21   N5    S    
C11   C13   S    
C7    C35   S    
Cu1   O1    S    
Cu2   O6    S    
C17   C19   A    
C11   O5    A    
C22   C24   A    
C10   N10   S    
C3    N7    S    
C33   H20   S    
C1    O3    A    
C5    C26   A    
C2    O4    A    
Cu2   N4    S    
N9    C37   S    
C28   O11   D    
C29   H10   S    
C1    C6    S    
C9    N3    A    
C26   C32   S    
C10   N4    A    
C8    C36   S    
C36   O19   D    
Cu1   Cu2   S    
