data_mof_unit_22011.cif
_audit_creation_date              2012-12-10T16:51:00-0500
_audit_creation_method            fapswitch 2.2
_symmetry_space_group_name_H-M    P1
_symmetry_Int_Tables_number       1
_space_group_crystal_system       triclinic
_cell_length_a                    7.869344
_cell_length_b                    8.541526
_cell_length_c                    10.425248
_cell_angle_alpha                 89.76773
_cell_angle_beta                  87.007045
_cell_angle_gamma                 93.103945
_cell_volume                      698.746510076

loop_
_atom_site_label
_atom_site_type_symbol
_atom_type_description
_atom_site_fract_x
_atom_site_fract_y
_atom_site_fract_z
_atom_type_partial_charge
C1    C     C_R   0.544562 0.793967 0.490716 0.970762
C2    C     C_R   0.890281 0.226837 0.070522 -0.125298
C3    C     C_R   0.018048 0.346831 0.084095 -0.131700
C4    C     C_R   0.902445 0.236657 0.934165 -0.195245
C5    C     C_R   0.174055 0.319368 0.139891 -0.136297
C6    C     C_R   0.753183 0.266178 0.869103 -0.023636
C7    C     C_R   0.322724 0.386775 0.075705 -0.007584
C8    C     C_R   0.627145 0.352819 0.933249 0.007969
C9    C     C_R   0.326807 0.396557 0.940978 0.112539
C10   C     C_R   0.619184 0.347981 0.068350 0.064384
C11   C     C_R   0.477417 0.404676 0.134786 -0.218447
C12   C     C_R   0.454652 0.205945 0.498923 0.946888
C13   C     C_R   0.486714 0.410928 0.872007 -0.177566
C14   C     C_2   0.187849 0.184716 0.231064 0.902439
C15   C     C_2   0.699748 0.151871 0.771103 0.901239
C16   C     C_2   0.566695 0.957409 0.475698 -0.364052
C17   C     C_2   0.430175 0.042370 0.492733 -0.254157
C18   C     C_R   0.497836 0.472473 0.739139 0.868182
C19   C     C_R   0.491824 0.469296 0.263483 0.886581
C20   C     C_R   0.173640 0.365079 0.880069 -0.170129
C21   C     C_R   0.734799 0.259970 0.132414 -0.174385
C22   C     C_R   0.018530 0.364536 0.950333 -0.137563
H1    H     H_    0.962980 0.135110 0.892712 0.177894
H2    H     H_    0.987705 0.607037 0.602766 0.198579
H3    H     H_    0.388472 0.093826 0.132330 0.319187
H4    H     H_    0.524051 0.980399 0.731568 0.333059
H5    H     H_    0.975995 0.451902 0.132903 0.177077
H6    H     H_    0.171559 0.326109 0.781434 0.200923
H7    H     H_    0.709537 0.222839 0.231472 0.187398
H8    H     H_    0.968101 0.475968 0.923157 0.173160
H9    H     H_    0.924524 0.113472 0.105718 0.178567
H10   H     H_    0.695586 0.007828 0.457264 0.227931
H11   H     H_    0.300894 0.992121 0.509470 0.210422
H12   H     H_    0.012459 0.401165 0.393285 0.227063
N1    N     N_2   0.950330 0.457950 0.466250 -0.152812
N2    N     N_2   0.049670 0.542050 0.533750 -0.174283
O1    O     O_R   0.389250 0.738570 0.508280 -0.598884
O2    O     O_R   0.320327 0.082233 0.217122 -0.792832
O3    O     O_2   0.802256 0.110786 0.687417 -0.626948
O4    O     O_R   0.536068 0.079384 0.783847 -0.833189
O5    O     O_R   0.610750 0.261430 0.491720 -0.606421
O6    O     O_R   0.678390 0.711630 0.486650 -0.603839
O7    O     O_R   0.321610 0.288370 0.513350 -0.615479
O8    O     O_R   0.355430 0.513480 0.694040 -0.627764
O9    O     O_R   0.644570 0.486520 0.305960 -0.625156
O10   O     O_R   0.644570 0.486540 0.672410 -0.622927
O11   O     O_R   0.355430 0.513460 0.327590 -0.616139
O12   O     O_2   0.075868 0.155259 0.314319 -0.614563
Zn1   Zn    Zn3+2 0.306940 0.517990 0.514440 0.975103
Zn2   Zn    Zn3+2 0.693060 0.482010 0.485560 0.979949

loop_
_geom_bond_atom_site_label_1
_geom_bond_atom_site_label_2
_ccdc_geom_bond_type
O8    Zn1   S    
C12   C17   S    
C2    C4    A    
C19   O9    A    
C8    C13   A    
C18   O8    A    
H3    O2    S    
C14   O2    S    
C4    C22   A    
O10   Zn2   S    
C9    C20   A    
N1    N2    D    
C1    O1    A    
C15   O3    D    
N1    Zn2   S    
C3    H5    S    
C2    C3    A    
O11   Zn1   S    
C1    C16   S    
C22   H8    S    
C7    C11   A    
C11   C19   S    
C5    C14   S    
H2    N2    S    
C2    C21   A    
C17   H11   S    
C13   C18   S    
O6    Zn2   S    
C14   O12   D    
C18   O10   A    
C4    C6    A    
C20   C22   A    
C12   O7    A    
C5    C7    A    
C2    H9    S    
C10   C21   A    
O5    Zn2   S    
C19   O11   A    
C15   O4    S    
C16   H10   S    
C10   C11   A    
C1    O6    A    
H4    O4    S    
O1    Zn1   S    
C12   O5    A    
C8    C10   A    
H12   N1    S    
C7    C9    A    
C4    H1    S    
C9    C13   A    
O7    Zn1   S    
C3    C22   A    
C6    C8    A    
O9    Zn2   S    
C20   H6    S    
C6    C15   S    
C21   H7    S    
N2    Zn1   S    
C16   C17   D    
C3    C5    A    
