data_mof_unit_19502.cif
_audit_creation_date              2012-12-10T17:18:58-0500
_audit_creation_method            fapswitch 2.2
_symmetry_space_group_name_H-M    P1
_symmetry_Int_Tables_number       1
_space_group_crystal_system       triclinic
_cell_length_a                    10.17465
_cell_length_b                    10.827617
_cell_length_c                    13.481516
_cell_angle_alpha                 91.951048
_cell_angle_beta                  100.902769
_cell_angle_gamma                 95.895624
_cell_volume                      1448.52252921

loop_
_atom_site_label
_atom_site_type_symbol
_atom_type_description
_atom_site_fract_x
_atom_site_fract_y
_atom_site_fract_z
_atom_type_partial_charge
C1    C     C_R   0.051999 0.732153 0.490872 0.927739
C2    C     C_R   0.945521 0.267373 0.503729 0.947318
C3    C     C_R   0.527885 0.719859 0.078253 -0.229886
C4    C     C_R   0.577784 0.528090 0.862170 -0.232353
C5    C     C_R   0.394984 0.747316 0.046546 0.423763
C6    C     C_R   0.710494 0.500784 0.893102 0.401938
C7    C     C_2   0.077591 0.863192 0.476827 -0.364840
C8    C     C_2   0.910411 0.134497 0.497032 -0.374613
C9    C     C_2   0.974489 0.931225 0.470515 -0.157138
C10   C     C_2   0.997394 0.063376 0.468019 -0.140691
C11   C     C_2   0.431194 0.511281 0.508871 -0.111319
C12   C     C_2   0.568867 0.488172 0.491697 -0.101452
C13   C     C_R   0.094702 0.514239 0.686571 0.879744
C14   C     C_R   0.907536 0.493675 0.313425 0.877940
C15   C     C_R   0.153131 0.547056 0.792903 -0.173517
C16   C     C_R   0.865995 0.511522 0.204837 -0.155991
C17   C     C_R   0.176787 0.697976 0.933306 -0.149975
C18   C     C_R   0.890145 0.466513 0.032667 -0.130428
C19   C     C_R   0.098918 0.635829 0.846418 -0.251849
C20   C     C_R   0.936659 0.462337 0.136019 -0.280448
C21   C     C_R   0.281867 0.513553 0.831334 0.401204
C22   C     C_R   0.755706 0.578280 0.169713 0.389681
C23   C     C_R   0.368587 0.591325 0.906996 -0.011502
C24   C     C_R   0.704312 0.579095 0.064690 -0.011757
C25   C     C_R   0.313033 0.679075 0.963037 0.038038
C26   C     C_R   0.769681 0.516822 0.996248 0.041328
C27   C     C_R   0.507963 0.579921 0.931393 0.025950
C28   C     C_R   0.581207 0.627398 0.026272 0.019959
H1    H     H_    0.024918 0.415483 0.162061 0.187271
H2    H     H_    0.999001 0.661567 0.818500 0.197741
H3    H     H_    0.132125 0.765537 0.973702 0.206066
H4    H     H_    0.944128 0.422641 0.981693 0.207878
H5    H     H_    0.590509 0.776259 0.140428 0.184637
H6    H     H_    0.531006 0.511678 0.783168 0.185990
H7    H     H_    0.577566 0.414163 0.437783 0.173041
H8    H     H_    0.422539 0.584941 0.563122 0.159444
N1    N     N_2   0.322180 0.446120 0.460900 -0.183163
N2    N     N_2   0.677820 0.553880 0.539100 -0.195698
O1    O     O_R   0.935190 0.693030 0.507870 -0.617462
O2    O     O_R   0.064810 0.306970 0.492130 -0.609909
O3    O     O_R   0.142080 0.658430 0.482770 -0.605162
O4    O     O_R   0.857920 0.341570 0.517230 -0.605827
O5    O     O_R   0.969700 0.527180 0.651960 -0.586284
O6    O     O_R   0.030300 0.472820 0.348040 -0.610053
O7    O     O_R   0.176600 0.492580 0.626860 -0.592552
O8    O     O_R   0.823400 0.507420 0.373140 -0.572859
Zn1   Zn    Zn3+2 0.861850 0.523100 0.516760 0.954408
Zn2   Zn    Zn3+2 0.138150 0.476900 0.483240 0.953706
O9    O     O_3   0.342803 0.837870 0.097386 -0.774535
H9    H     H_    0.412936 0.875719 0.154659 0.335552
O10   O     O_3   0.779590 0.450092 0.825534 -0.777618
H10   H     H_    0.723407 0.445140 0.756558 0.340060
O11   O     O_3   0.689820 0.631217 0.237738 -0.766092
H11   H     H_    0.758780 0.686583 0.285678 0.329855
O12   O     O_3   0.322728 0.403948 0.798142 -0.765841
H12   H     H_    0.242403 0.347191 0.765265 0.337571
H13   H     H_    0.091414 0.102528 0.448436 0.190894
H14   H     H_    0.873178 0.890644 0.474000 0.189683
H15   H     H_    0.816714 0.094932 0.516714 0.154954
H16   H     H_    0.178660 0.904192 0.473395 0.157067
H17   H     H_    0.665591 0.623086 0.589905 0.155353
H18   H     H_    0.334419 0.377068 0.409972 0.165040

loop_
_geom_bond_atom_site_label_1
_geom_bond_atom_site_label_2
_ccdc_geom_bond_type
C1    O3    A    
C15   C19   A    
O12   H12   S    
C14   C16   S    
C23   C27   A    
C6    O10   S    
C24   C28   A    
C9    C10   S    
C1    O1    A    
C18   C26   A    
C13   C15   S    
C16   C20   A    
C11   C12   S    
N2    H17   S    
C17   C25   A    
C7    C9    D    
C4    C27   A    
C13   O5    A    
C23   C25   A    
N1    H18   S    
C21   O12   S    
C14   O8    A    
O11   H11   S    
C12   H7    S    
C13   O7    A    
C19   H2    S    
C5    O9    S    
N2    Zn1   S    
C6    C26   A    
C20   H1    S    
C2    O4    A    
C5    C25   A    
C8    C10   D    
C11   H8    S    
C17   C19   A    
O3    Zn2   S    
C24   C26   A    
C9    H14   S    
C22   O11   S    
C18   C20   A    
O4    Zn1   S    
C21   C23   A    
C4    H6    S    
C12   N2    D    
C17   H3    S    
C22   C24   A    
C4    C6    A    
C18   H4    S    
C3    H5    S    
O10   H10   S    
C2    O2    A    
C7    H16   S    
C15   C21   A    
C10   H13   S    
C14   O6    A    
O9    H9    S    
O7    Zn2   S    
C8    H15   S    
C27   C28   A    
C11   N1    D    
O2    Zn2   S    
O8    Zn1   S    
C3    C28   A    
C16   C22   A    
C3    C5    A    
C1    C7    S    
O1    Zn1   S    
O5    Zn1   S    
C2    C8    S    
O6    Zn2   S    
N1    Zn2   S    
