data_mof_unit_29771.cif
_audit_creation_date              2012-12-10T18:57:10-0500
_audit_creation_method            fapswitch 2.2
_symmetry_space_group_name_H-M    P1
_symmetry_Int_Tables_number       1
_space_group_crystal_system       triclinic
_cell_length_a                    10.704459
_cell_length_b                    9.837431
_cell_length_c                    10.733609
_cell_angle_alpha                 89.941919
_cell_angle_beta                  90.256559
_cell_angle_gamma                 90.016348
_cell_volume                      1130.28404973

loop_
_atom_site_label
_atom_site_type_symbol
_atom_type_description
_atom_site_fract_x
_atom_site_fract_y
_atom_site_fract_z
_atom_type_partial_charge
C1    C     C_R   0.259920 0.499936 0.500328 0.857805
C2    C     C_R   0.489946 0.617122 0.937430 -0.094882
C3    C     C_R   0.509607 0.499285 0.129340 -0.096050
C4    C     C_R   0.507979 0.498781 0.870662 -0.089465
C5    C     C_R   0.532245 0.377237 0.064954 -0.195422
C6    C     C_R   0.531979 0.377108 0.935522 -0.194987
C7    C     C_3   0.455171 0.765250 0.927477 0.333507
C8    C     C_3   0.458185 0.765840 0.071643 0.316087
C9    C     C_R   0.063831 0.381447 0.467250 -0.192374
C10   C     C_R   0.935853 0.381476 0.467173 -0.197849
C11   C     C_R   0.872540 0.499928 0.500753 -0.009030
C12   C     C_R   0.740096 0.499966 0.500222 0.853703
C13   C     C_R   0.127502 0.499851 0.500972 -0.013326
C14   C     C_R   0.936197 0.618224 0.534916 -0.204022
C15   C     C_R   0.064229 0.618151 0.535129 -0.209753
C16   C     C_3   0.245779 0.695098 0.882359 -0.272182
C17   C     C_3   0.672363 0.814440 0.116924 -0.273983
C18   C     C_R   0.572809 0.071883 0.582261 -0.071517
C19   C     C_R   0.427168 0.072018 0.417763 -0.059301
C20   C     C_R   0.572822 0.927955 0.582249 -0.057418
C21   C     C_R   0.427120 0.928099 0.417816 -0.006234
C22   C     C_R   0.501874 0.500015 0.260401 0.873946
C23   C     C_R   0.501729 0.499840 0.739558 0.877451
C24   C     C_R   0.494041 0.618018 0.062072 -0.087684
H1    H     H_    0.530616 0.826323 0.883867 0.104202
H2    H     H_    0.368793 0.873585 0.352208 0.126593
H3    H     H_    0.548177 0.282264 0.113689 0.179396
H4    H     H_    0.548458 0.282224 0.887141 0.168816
H5    H     H_    0.237574 0.651432 0.977468 0.135299
H6    H     H_    0.266419 0.614409 0.813256 0.172446
H7    H     H_    0.153390 0.738526 0.857359 0.179437
H8    H     H_    0.699684 0.785395 0.020839 0.131342
H9    H     H_    0.689171 0.729160 0.182763 0.187597
H10   H     H_    0.733863 0.899546 0.145995 0.180657
H11   H     H_    0.364821 0.779263 0.114772 0.099993
H12   H     H_    0.112592 0.289756 0.439869 0.153415
H13   H     H_    0.886805 0.289786 0.439798 0.156987
H14   H     H_    0.887373 0.709894 0.562242 0.152120
H15   H     H_    0.113359 0.709738 0.562680 0.164184
H16   H     H_    0.631023 0.126379 0.648005 0.123850
H17   H     H_    0.368914 0.126612 0.352049 0.126427
H18   H     H_    0.631058 0.873321 0.647956 0.113152
N1    N     N_R   0.500000 0.857200 0.500000 -0.081203
N2    N     N_R   0.500000 0.142810 0.500000 -0.085044
O1    O     O_R   0.316770 0.614620 0.499990 -0.625244
O2    O     O_3   0.546905 0.858903 0.123018 -0.608550
O3    O     O_R   0.683230 0.614620 0.500010 -0.631734
O4    O     O_R   0.316800 0.385290 0.500000 -0.623622
O5    O     O_R   0.683200 0.385290 0.500000 -0.627261
O6    O     O_R   0.500000 0.614690 0.316780 -0.609821
O7    O     O_R   0.500000 0.614690 0.683220 -0.610624
O8    O     O_R   0.500020 0.385360 0.316780 -0.627200
O9    O     O_R   0.499980 0.385360 0.683220 -0.625719
O10   O     O_3   0.335957 0.799998 0.876270 -0.597332
Zn1   Zn    Zn3+2 0.500000 0.653120 0.500000 0.962824
Zn2   Zn    Zn3+2 0.500000 0.346880 0.500000 0.947595

loop_
_geom_bond_atom_site_label_1
_geom_bond_atom_site_label_2
_ccdc_geom_bond_type
C9    H12   S    
C2    C4    A    
C21   H2    S    
C1    O4    A    
C18   N2    A    
C14   H14   S    
O5    Zn2   S    
C9    C10   A    
N2    Zn2   S    
C20   H18   S    
O6    Zn1   S    
C7    H1    S    
C22   O6    A    
C15   H15   S    
C12   O3    A    
C12   O5    A    
O3    Zn1   S    
C7    C8    S    
C21   N1    A    
C17   O2    S    
C16   H7    S    
C1    O1    A    
C3    C24   A    
C17   H9    S    
C10   H13   S    
N1    Zn1   S    
C8    C24   S    
C23   O9    A    
O7    Zn1   S    
C13   C15   A    
C2    C24   A    
C5    C6    A    
C17   H8    S    
C11   C14   A    
C16   O10   S    
C4    C6    A    
C1    C13   S    
C10   C11   A    
C16   H6    S    
C19   H17   S    
C6    H4    S    
C20   N1    A    
C19   N2    A    
O1    Zn1   S    
C18   C20   A    
C22   O8    A    
C17   H10   S    
O9    Zn2   S    
O4    Zn2   S    
C4    C23   S    
C18   H16   S    
C14   C15   A    
C3    C22   S    
C9    C13   A    
C7    O10   S    
C19   C21   A    
C16   H5    S    
C5    H3    S    
O8    Zn2   S    
C23   O7    A    
C8    O2    S    
C2    C7    S    
C11   C12   S    
C3    C5    A    
C8    H11   S    
