data_mof_unit_63120.cif
_audit_creation_date              2012-12-10T19:55:51-0500
_audit_creation_method            fapswitch 2.2
_symmetry_space_group_name_H-M    P1
_symmetry_Int_Tables_number       1
_space_group_crystal_system       triclinic
_cell_length_a                    14.952776
_cell_length_b                    14.220038
_cell_length_c                    19.19767
_cell_angle_alpha                 90.262982
_cell_angle_beta                  90.653022
_cell_angle_gamma                 90.059527
_cell_volume                      4081.67165012

loop_
_atom_site_label
_atom_site_type_symbol
_atom_type_description
_atom_site_fract_x
_atom_site_fract_y
_atom_site_fract_z
_atom_type_partial_charge
C1    C     C_R   0.328028 0.500062 0.500043 0.997516
C2    C     C_R   0.671897 0.500145 0.500069 1.001153
C3    C     C_R   0.232125 0.500845 0.500626 -0.173308
C4    C     C_R   0.767670 0.501099 0.500013 -0.170022
C5    C     C_R   0.047835 0.505678 0.500347 -0.097928
C6    C     C_R   0.951876 0.506037 0.501078 -0.098459
C7    C     C_R   0.456045 0.104867 0.447151 -0.289791
C8    C     C_R   0.568732 0.895260 0.532599 -0.295027
C9    C     C_R   0.544081 0.105431 0.552444 -0.289831
C10   C     C_R   0.431549 0.894520 0.466532 -0.292944
C11   C     C_R   0.455450 0.204074 0.448611 0.263821
C12   C     C_R   0.567033 0.796090 0.533293 0.238778
C13   C     C_R   0.544762 0.204623 0.551174 0.263186
C14   C     C_R   0.433302 0.795298 0.466123 0.244543
C15   C     C_R   0.500013 0.053316 0.499757 0.125082
C16   C     C_R   0.500046 0.946719 0.499646 0.136105
C17   C     C_R   0.501105 0.499737 0.365559 1.042551
C18   C     C_R   0.500978 0.500128 0.634435 1.047271
C19   C     C_R   0.476810 0.574809 0.250885 0.503634
C20   C     C_R   0.472858 0.425291 0.748122 0.489690
C21   C     C_R   0.556069 0.572109 0.744186 0.496187
C22   C     C_R   0.552991 0.423972 0.257089 0.487810
C23   C     C_R   0.487505 0.575472 0.179220 0.551994
C24   C     C_R   0.483765 0.423116 0.819972 0.549642
C25   C     C_R   0.567259 0.569900 0.815930 0.554423
C26   C     C_R   0.563819 0.424672 0.185452 0.553408
C27   C     C_R   0.530982 0.500289 0.146058 -0.414175
C28   C     C_R   0.530904 0.495610 0.854341 -0.413231
C29   C     C_R   0.509277 0.499011 0.290167 -0.527932
C30   C     C_R   0.508705 0.499968 0.709943 -0.522888
C31   C     C_R   0.538269 0.496275 0.930083 0.436055
C32   C     C_R   0.538376 0.498837 0.070481 0.437053
C33   C     C_R   0.095180 0.557047 0.550743 0.629776
C34   C     C_R   0.904990 0.553601 0.448761 0.630543
C35   C     C_R   0.907710 0.456662 0.553161 0.629951
C36   C     C_R   0.091513 0.452313 0.449911 0.628040
C37   C     C_R   0.188022 0.555095 0.551050 -0.084614
C38   C     C_R   0.812156 0.551587 0.448070 -0.083962
C39   C     C_R   0.814902 0.453864 0.552859 -0.076049
C40   C     C_R   0.184304 0.449551 0.449809 -0.077393
H1    H     H_    0.422560 0.069325 0.404293 0.157111
H2    H     H_    0.624563 0.930860 0.557491 0.153402
H3    H     H_    0.577669 0.070349 0.595188 0.157167
H4    H     H_    0.375921 0.929563 0.441267 0.152792
N1    N     N_R   0.536596 0.416006 0.035331 -0.066475
N2    N     N_R   0.541654 0.579017 0.965272 -0.063980
N3    N     N_R   0.536588 0.414735 0.966240 -0.065015
N4    N     N_R   0.541767 0.580290 0.034338 -0.063462
N5    N     N_R   0.500000 0.252470 0.500000 -0.084003
N6    N     N_R   0.500000 0.747530 0.500000 -0.086876
O1    O     O_R   0.369060 0.579480 0.500010 -0.611303
O2    O     O_R   0.630940 0.420520 0.499990 -0.600521
O3    O     O_R   0.630940 0.579480 0.499990 -0.610383
O4    O     O_R   0.369060 0.420520 0.500010 -0.601607
O5    O     O_R   0.499990 0.579500 0.398140 -0.571358
O6    O     O_R   0.500010 0.420500 0.601860 -0.573513
O7    O     O_R   0.500010 0.579500 0.601860 -0.570599
O8    O     O_R   0.499990 0.420500 0.398140 -0.568758
Zn1   Zn    Zn3+2 0.500000 0.606140 0.500000 1.037864
Zn2   Zn    Zn3+2 0.500000 0.393860 0.500000 1.051681
F1    F     F_    0.432865 0.647258 0.281515 -0.596103
F2    F     F_    0.425511 0.355521 0.716137 -0.581111
F3    F     F_    0.594248 0.643184 0.708152 -0.602372
F4    F     F_    0.587771 0.351232 0.294140 -0.581199
F5    F     F_    0.452593 0.648191 0.142253 -0.558116
F6    F     F_    0.445612 0.351745 0.855872 -0.556991
F7    F     F_    0.615265 0.639485 0.847518 -0.558670
F8    F     F_    0.608082 0.352304 0.154929 -0.555817
F9    F     F_    0.051143 0.608731 0.599201 -0.620435
F10   F     F_    0.949475 0.601489 0.398744 -0.621725
F11   F     F_    0.954831 0.410745 0.603505 -0.618552
F12   F     F_    0.043920 0.402675 0.401443 -0.619086
N7    N     N_3   0.237735 0.606420 0.603060 -0.404890
H5    H     H_    0.220584 0.677469 0.599046 0.236422
H6    H     H_    0.218130 0.582758 0.652065 0.250435
N8    N     N_3   0.762809 0.598931 0.394195 -0.409064
H7    H     H_    0.782635 0.571604 0.346138 0.249018
H8    H     H_    0.780060 0.670188 0.395807 0.237686
N9    N     N_3   0.768429 0.405357 0.606853 -0.416158
H9    H     H_    0.790503 0.335635 0.607319 0.232748
H10   H     H_    0.786441 0.436053 0.654585 0.244466
N10   N     N_3   0.230102 0.396952 0.397301 -0.414039
H11   H     H_    0.211582 0.423913 0.348662 0.243255
H12   H     H_    0.207874 0.327316 0.399483 0.232999
N11   N     N_3   0.407706 0.254375 0.395852 -0.375379
H13   H     H_    0.341472 0.230890 0.395803 0.168215
H14   H     H_    0.434985 0.236385 0.347695 0.225953
N12   N     N_3   0.636308 0.746067 0.569012 -0.346822
H15   H     H_    0.697098 0.763154 0.545816 0.180747
H16   H     H_    0.638998 0.770550 0.620405 0.248681
N13   N     N_3   0.593125 0.255476 0.603714 -0.377836
H17   H     H_    0.659485 0.232559 0.602972 0.169574
H18   H     H_    0.566721 0.237533 0.652072 0.225550
N14   N     N_3   0.364858 0.744325 0.429669 -0.357363
H19   H     H_    0.303333 0.762690 0.451187 0.179176
H20   H     H_    0.364412 0.766343 0.377793 0.243980

loop_
_geom_bond_atom_site_label_1
_geom_bond_atom_site_label_2
_ccdc_geom_bond_type
C22   C29   A    
O5    Zn1   S    
C17   C29   S    
C32   N1    A    
C2    C4    S    
C25   F7    S    
C8    H2    S    
O3    Zn1   S    
O4    Zn2   S    
N11   H13   S    
C25   C28   A    
C7    C11   A    
C26   C27   A    
N5    Zn2   S    
N6    Zn1   S    
N8    H8    S    
C5    C6    S    
C19   F1    S    
O7    Zn1   S    
O8    Zn2   S    
C15   C16   S    
C5    C36   A    
C6    C35   A    
N7    H5    S    
C9    C13   A    
C21   C25   A    
O2    Zn2   S    
C20   C24   A    
C31   N2    A    
C5    C33   A    
C18   C30   S    
C23   C27   A    
C17   O5    A    
C33   F9    S    
C17   O8    A    
C7    C15   A    
C35   F11   S    
C8    C16   A    
C31   N3    A    
C38   N8    S    
C32   N4    A    
N1    N3    A    
N2    N4    A    
C9    H3    S    
C12   N12   S    
N11   H14   S    
C10   H4    S    
C40   N10   S    
C36   C40   A    
N8    H7    S    
C10   C14   A    
N13   H17   S    
N9    H10   S    
C20   C30   A    
C33   C37   A    
C6    C34   A    
C1    C3    S    
C39   N9    S    
C19   C23   A    
C1    O4    A    
C11   N5    A    
N13   H18   S    
C18   O7    A    
C4    C39   A    
C8    C12   A    
N12   H15   S    
N14   H20   S    
C1    O1    A    
C2    O2    A    
C13   N5    A    
N12   H16   S    
C3    C40   A    
N10   H12   S    
O1    Zn1   S    
N7    H6    S    
C19   C29   A    
C34   F10   S    
C27   C32   S    
C34   C38   A    
C28   C31   S    
C24   C28   A    
C4    C38   A    
C2    O3    A    
C12   N6    A    
C18   O6    A    
C21   C30   A    
C37   N7    S    
C26   F8    S    
C23   F5    S    
C9    C15   A    
C10   C16   A    
C14   N6    A    
C11   N11   S    
C35   C39   A    
C7    H1    S    
C20   F2    S    
N14   H19   S    
C21   F3    S    
C22   F4    S    
N9    H9    S    
O6    Zn2   S    
C24   F6    S    
C3    C37   A    
N10   H11   S    
C22   C26   A    
C14   N14   S    
C13   N13   S    
C36   F12   S    
