data_mof_unit_60778.cif
_audit_creation_date              2012-12-10T17:00:00-0500
_audit_creation_method            fapswitch 2.2
_symmetry_space_group_name_H-M    P1
_symmetry_Int_Tables_number       1
_space_group_crystal_system       triclinic
_cell_length_a                    15.128977
_cell_length_b                    15.178477
_cell_length_c                    10.069507
_cell_angle_alpha                 89.952161
_cell_angle_beta                  91.020491
_cell_angle_gamma                 89.986018
_cell_volume                      2311.94188269

loop_
_atom_site_label
_atom_site_type_symbol
_atom_type_description
_atom_site_fract_x
_atom_site_fract_y
_atom_site_fract_z
_atom_type_partial_charge
C1    C     C_R   0.379473 0.883370 0.498765 0.911574
C2    C     C_R   0.383161 0.120328 0.498822 0.897021
C3    C     C_R   0.883055 0.379761 0.498879 0.909860
C4    C     C_R   0.883146 0.620313 0.498816 0.921631
C5    C     C_R   0.613293 0.123385 0.500757 0.881940
C6    C     C_R   0.613296 0.876618 0.500814 0.888347
C7    C     C_R   0.123283 0.613487 0.500968 0.879248
C8    C     C_R   0.113398 0.376694 0.500815 0.871518
C9    C     C_2   0.702110 0.769601 0.394172 -0.245522
C10   C     C_2   0.701965 0.230711 0.394223 -0.246401
C11   C     C_2   0.202646 0.270126 0.394186 -0.261719
C12   C     C_2   0.228506 0.704291 0.394522 -0.220408
C13   C     C_2   0.659231 0.794400 0.502527 0.230148
C14   C     C_2   0.659041 0.205701 0.502450 0.222334
C15   C     C_2   0.159531 0.294621 0.502476 0.233155
C16   C     C_2   0.205166 0.660243 0.503054 0.224484
C17   C     C_2   0.261844 0.196592 0.400536 0.614154
C18   C     C_2   0.302182 0.763356 0.400663 0.600535
C19   C     C_2   0.761421 0.696127 0.400727 0.619511
C20   C     C_2   0.761201 0.304216 0.400979 0.613455
C21   C     C_2   0.326321 0.194646 0.493550 0.114205
C22   C     C_2   0.304788 0.826877 0.493072 0.107720
C23   C     C_2   0.826054 0.694461 0.493535 0.093971
C24   C     C_2   0.825891 0.305687 0.493708 0.097313
C25   C     C_2   0.570707 0.004873 0.929489 0.366052
C26   C     C_2   0.070824 0.501845 0.929672 0.362130
C27   C     C_2   0.567490 0.022897 0.076162 0.633622
C28   C     C_2   0.068338 0.520254 0.076271 0.625549
H1    H     H_    0.699761 0.807446 0.302511 0.192525
H2    H     H_    0.699806 0.192996 0.302592 0.227492
H3    H     H_    0.200444 0.308174 0.302709 0.196031
H4    H     H_    0.189549 0.702701 0.302844 0.215578
H5    H     H_    0.455820 0.958257 0.104307 0.186261
H6    H     H_    0.954204 0.460075 0.104256 0.186749
N1    N     N_2   0.501330 0.000000 0.852150 -0.025678
N2    N     N_2   0.001330 0.500000 0.852150 -0.027808
N3    N     N_2   0.501360 0.000000 0.147810 -0.214252
N4    N     N_2   0.001360 0.500000 0.147810 -0.215519
O1    O     O_R   0.409520 0.909540 0.613040 -0.557407
O2    O     O_R   0.409520 0.090460 0.613040 -0.530026
O3    O     O_R   0.909520 0.409540 0.613040 -0.555988
O4    O     O_R   0.909520 0.590460 0.613040 -0.531820
O5    O     O_R   0.409560 0.909540 0.386900 -0.585468
O6    O     O_R   0.409560 0.090460 0.386900 -0.586562
O7    O     O_R   0.909560 0.409540 0.386900 -0.589165
O8    O     O_R   0.909560 0.590460 0.386900 -0.571266
O9    O     O_R   0.590440 0.090460 0.613100 -0.544871
O10   O     O_R   0.590440 0.909540 0.613100 -0.549022
O11   O     O_R   0.090440 0.590460 0.613100 -0.549945
O12   O     O_R   0.090440 0.409540 0.613100 -0.546067
O13   O     O_R   0.590480 0.090460 0.386960 -0.590071
O14   O     O_R   0.590480 0.909540 0.386960 -0.623120
O15   O     O_R   0.090480 0.590460 0.386960 -0.592990
O16   O     O_R   0.090480 0.409540 0.386960 -0.639219
Zn1   Zn    Zn3+2 0.499970 0.000000 0.650990 1.198954
Zn2   Zn    Zn3+2 0.999970 0.500000 0.650990 1.196538
Zn3   Zn    Zn3+2 0.500030 0.000000 0.349010 1.116991
Zn4   Zn    Zn3+2 0.000030 0.500000 0.349010 1.113595
Cl1   Cl    Cl    0.649008 0.726057 0.644823 -0.384135
Cl2   Cl    Cl    0.648588 0.273874 0.644713 -0.375472
Cl3   Cl    Cl    0.149129 0.226017 0.644447 -0.377793
Cl4   Cl    Cl    0.275228 0.649373 0.645616 -0.369162
F1    F     F_    0.248780 0.129438 0.312680 -0.583303
F2    F     F_    0.369022 0.750774 0.313784 -0.585333
F3    F     F_    0.748436 0.628829 0.313096 -0.555937
F4    F     F_    0.748160 0.371699 0.313511 -0.562389
Cl5   Cl    Cl    0.354912 0.284939 0.597537 -0.411976
Cl6   Cl    Cl    0.214795 0.854574 0.595669 -0.432788
Cl7   Cl    Cl    0.854537 0.784933 0.597219 -0.430430
Cl8   Cl    Cl    0.854479 0.214988 0.597110 -0.436795
Cl9   Cl    Cl    0.675678 0.992068 0.860255 -0.356796
Cl10  Cl    Cl    0.175199 0.483805 0.861206 -0.337137
Cl11  Cl    Cl    0.403028 0.047181 0.904033 -0.387044
Cl12  Cl    Cl    0.905176 0.551350 0.904202 -0.386131
F5    F     F_    0.639909 0.058757 0.136428 -0.593458
F6    F     F_    0.142080 0.553294 0.136714 -0.583796

loop_
_geom_bond_atom_site_label_1
_geom_bond_atom_site_label_2
_ccdc_geom_bond_type
O10   Zn1   S    
C26   Cl10  S    
C23   Cl7   S    
C24   Cl8   S    
C4    O8    A    
C5    O9    A    
C6    O10   A    
C20   F4    S    
C9    C13   D    
O4    Zn2   S    
N4    Zn4   S    
C11   C15   D    
C9    C19   S    
C3    O3    A    
C12   C16   D    
C2    O6    A    
C25   Cl9   S    
C10   C20   S    
O12   Zn2   S    
C9    H1    S    
C11   H3    S    
C1    C22   S    
H6    N4    S    
O8    Zn4   S    
C3    C24   S    
C16   Cl4   S    
C27   F5    S    
C1    O5    A    
O1    Zn1   S    
O7    Zn4   S    
N1    Zn1   S    
C20   C24   D    
C7    O11   A    
C10   C14   D    
C8    O16   A    
C4    C23   S    
O5    Zn3   S    
C3    O7    A    
H5    N3    S    
N1    Cl11  S    
C19   C23   D    
O3    Zn2   S    
N2    Zn2   S    
C10   H2    S    
C28   N4    D    
O6    Zn3   S    
O2    Zn1   S    
C2    C21   S    
C15   Cl3   S    
C22   Cl6   S    
C5    C14   S    
N2    Cl12  S    
C25   N1    D    
O13   Zn3   S    
C26   N2    D    
C7    C16   S    
C8    C15   S    
C7    O15   A    
C28   F6    S    
C8    O12   A    
O9    Zn1   S    
O16   Zn4   S    
C11   C17   S    
C18   C22   D    
O15   Zn4   S    
C21   Cl5   S    
C25   C27   S    
O11   Zn2   S    
C14   Cl2   S    
C26   C28   S    
C17   F1    S    
C6    C13   S    
C18   F2    S    
C4    O4    A    
C27   N3    D    
C19   F3    S    
N3    Zn3   S    
O14   Zn3   S    
C1    O1    A    
C2    O2    A    
C12   C18   S    
C5    O13   A    
C6    O14   A    
C13   Cl1   S    
C12   H4    S    
C17   C21   D    
