data_mof_unit_62736.cif
_audit_creation_date              2012-12-10T19:37:13-0500
_audit_creation_method            fapswitch 2.2
_symmetry_space_group_name_H-M    P1
_symmetry_Int_Tables_number       1
_space_group_crystal_system       triclinic
_cell_length_a                    14.353914
_cell_length_b                    15.82439
_cell_length_c                    17.125629
_cell_angle_alpha                 96.283504
_cell_angle_beta                  90.278392
_cell_angle_gamma                 92.161126
_cell_volume                      3863.67134539

loop_
_atom_site_label
_atom_site_type_symbol
_atom_type_description
_atom_site_fract_x
_atom_site_fract_y
_atom_site_fract_z
_atom_type_partial_charge
C1    C     C_R   0.499362 0.489666 0.348545 0.800507
C2    C     C_R   0.500632 0.510345 0.651456 0.801698
C3    C     C_R   0.494779 0.400237 0.135324 -0.183335
C4    C     C_R   0.505408 0.599910 0.864651 -0.181428
C5    C     C_R   0.495049 0.404837 0.217007 -0.207426
C6    C     C_R   0.505158 0.595256 0.782961 -0.205744
C7    C     C_R   0.463669 0.749957 0.454320 -0.011791
C8    C     C_R   0.554042 0.248645 0.530946 0.008101
C9    C     C_R   0.465838 0.838747 0.454644 0.267021
C10   C     C_R   0.558522 0.159636 0.523524 0.274344
C11   C     C_R   0.514620 0.891128 0.515874 0.171451
C12   C     C_R   0.489979 0.108964 0.477187 0.150054
C13   C     C_R   0.562013 0.849446 0.573103 0.248955
C14   C     C_R   0.423337 0.151901 0.435935 0.265151
C15   C     C_R   0.559147 0.760085 0.567808 0.024241
C16   C     C_R   0.425486 0.241273 0.443528 0.018615
C17   C     C_R   0.330919 0.500202 0.499954 0.819952
C18   C     C_R   0.669081 0.499794 0.500044 0.819303
C19   C     C_1   0.228661 0.500561 0.499968 -0.184082
C20   C     C_1   0.771337 0.499417 0.500027 -0.186638
C21   C     C_1   0.143294 0.500476 0.499977 0.009993
C22   C     C_1   0.856703 0.499485 0.500016 0.008397
C23   C     C_1   0.042687 0.500142 0.499990 0.020794
C24   C     C_1   0.957310 0.499808 0.500002 0.020320
C25   C     C_R   0.498888 0.484279 0.262522 -0.037415
C26   C     C_R   0.501083 0.515787 0.737483 -0.040226
C27   C     C_R   0.502279 0.558918 0.225188 -0.226424
C28   C     C_R   0.497424 0.441186 0.774861 -0.222805
C29   C     C_R   0.502018 0.554320 0.143684 -0.146811
C30   C     C_R   0.497669 0.445835 0.856364 -0.146472
C31   C     C_R   0.498321 0.474462 0.097918 0.381091
C32   C     C_R   0.501620 0.525714 0.902097 0.379463
Cu1   Cu    Cu3+1 0.495850 0.415220 0.496180 0.945478
Cu2   Cu    Cu3+1 0.504150 0.584780 0.503820 0.946458
H1    H     H_    0.494331 0.379051 0.741209 0.171531
H2    H     H_    0.505168 0.621039 0.258871 0.164937
H3    H     H_    0.494741 0.386924 0.883144 0.160405
H4    H     H_    0.504727 0.613248 0.116930 0.158804
H5    H     H_    0.491860 0.338544 0.100886 0.149636
H6    H     H_    0.508516 0.661619 0.899058 0.150400
H7    H     H_    0.492295 0.346269 0.244391 0.169234
H8    H     H_    0.508123 0.653804 0.755544 0.169906
H9    H     H_    0.605673 0.286967 0.566616 0.171459
H10   H     H_    0.424637 0.710767 0.408783 0.170098
H11   H     H_    0.595813 0.728811 0.611214 0.167070
H12   H     H_    0.375647 0.273732 0.411064 0.169378
N1    N     N_2   0.498019 0.465713 0.014639 -0.259920
N2    N     N_2   0.501927 0.534495 0.985381 -0.260259
N3    N     N_R   0.510380 0.712130 0.509560 -0.231988
N4    N     N_R   0.489620 0.287870 0.490440 -0.237419
N5    N     N_2   0.514265 0.982887 0.525392 -0.200766
N6    N     N_2   0.488465 0.017452 0.467105 -0.215504
O1    O     O_R   0.496120 0.420530 0.382500 -0.579414
O2    O     O_R   0.503880 0.579470 0.617500 -0.584359
O3    O     O_R   0.503120 0.563720 0.388950 -0.587526
O4    O     O_R   0.496880 0.436280 0.611050 -0.578125
O5    O     O_R   0.372550 0.428390 0.496770 -0.559484
O6    O     O_R   0.627450 0.571610 0.503230 -0.554430
O7    O     O_R   0.379550 0.571580 0.503220 -0.552310
O8    O     O_R   0.620450 0.428420 0.496780 -0.562515
O9    O     O_3   0.632851 0.125951 0.558999 -0.711803
H13   H     H_    0.651750 0.074951 0.524937 0.347865
O10   O     O_3   0.417534 0.871451 0.396167 -0.704879
H14   H     H_    0.465053 0.899120 0.364555 0.335749
O11   O     O_3   0.611944 0.892866 0.635123 -0.710788
H15   H     H_    0.611385 0.954812 0.631626 0.368144
O12   O     O_3   0.355221 0.109770 0.387551 -0.708925
H16   H     H_    0.359606 0.047588 0.387833 0.375008

loop_
_geom_bond_atom_site_label_1
_geom_bond_atom_site_label_2
_ccdc_geom_bond_type
C29   H4    S    
C16   N4    A    
C1    C25   S    
C23   C24   T    
C6    C26   A    
Cu1   O5    S    
C27   H2    S    
C27   C29   A    
C9    C11   A    
C12   N6    S    
C26   C28   A    
N1    N2    D    
C8    H9    S    
C14   O12   S    
Cu1   O4    S    
C28   C30   A    
Cu1   Cu2   S    
C1    O3    A    
C3    H5    S    
Cu2   O3    S    
C2    C26   S    
C31   N1    S    
C7    H10   S    
C3    C31   A    
C30   C32   A    
C32   N2    S    
C17   O5    A    
C4    C32   A    
C10   C12   A    
C17   O7    A    
C29   C31   A    
C5    C25   A    
C22   C24   S    
C18   O8    A    
O12   H16   S    
C19   C21   T    
C20   C22   T    
Cu2   O2    S    
Cu1   O8    S    
C18   C20   S    
C15   N3    A    
C13   C15   A    
Cu1   O1    S    
O9    H13   S    
C13   O11   S    
Cu2   O6    S    
C14   C16   A    
C10   O9    S    
C11   N5    S    
O11   H15   S    
C15   H11   S    
C5    H7    S    
O10   H14   S    
C8    N4    A    
C11   C13   A    
N5    N6    D    
C7    N3    A    
C30   H3    S    
C8    C10   A    
C4    C6    A    
C2    O2    A    
C16   H12   S    
C7    C9    A    
C1    O1    A    
Cu2   N3    S    
C2    O4    A    
C17   C19   S    
Cu1   N4    S    
C9    O10   S    
Cu2   O7    S    
C6    H8    S    
C21   C23   S    
C18   O6    A    
C4    H6    S    
C28   H1    S    
C12   C14   A    
C3    C5    A    
C25   C27   A    
