data_mof_unit_15499.cif
_audit_creation_date              2012-10-26T20:19:31-0400
_audit_creation_method            fapswitch 2.2
_symmetry_space_group_name_H-M    P1
_symmetry_Int_Tables_number       1
_space_group_crystal_system       triclinic
_cell_length_a                    10.744419
_cell_length_b                    10.781806
_cell_length_c                    9.615615
_cell_angle_alpha                 90.316445
_cell_angle_beta                  90.151926
_cell_angle_gamma                 92.573468
_cell_volume                      1112.76854776

loop_
_atom_site_label
_atom_site_type_symbol
_atom_type_description
_atom_site_fract_x
_atom_site_fract_y
_atom_site_fract_z
_atom_type_partial_charge
C1    C     C_R   0.495370 0.262675 0.499707 0.554095
C2    C     C_R   0.395853 0.061810 0.579526 0.032729
C3    C     C_R   0.486066 0.128556 0.499100 0.016071
C4    C     C_R   0.260065 0.499622 0.499673 0.539567
C5    C     C_R   0.570521 0.066822 0.416764 -0.137179
C6    C     C_R   0.570897 0.938923 0.417621 -0.151263
C7    C     C_R   0.487343 0.870690 0.501473 0.005584
C8    C     C_R   0.665883 0.664830 0.145098 -0.091817
C9    C     C_R   0.747492 0.744771 0.073602 -0.179034
C10   C     C_R   0.747344 0.744775 0.930276 -0.173609
C11   C     C_R   0.665544 0.664859 0.857576 -0.082343
C12   C     C_3   0.877829 0.498083 0.500112 0.060043
C13   C     C_R   0.581254 0.581154 0.925996 0.152824
C14   C     C_R   0.581270 0.581171 0.075435 0.144822
C15   C     C_R   0.423212 0.421695 0.072225 0.082013
C16   C     C_R   0.495788 0.737096 0.500453 0.519283
C17   C     C_R   0.423217 0.422443 0.924562 -0.009838
C18   C     C_R   0.739859 0.499177 0.500021 0.559075
C19   C     C_3   0.069206 0.378605 0.571251 -0.213736
C20   C     C_3   0.923907 0.376250 0.567705 0.177960
C21   C     C_3   0.076817 0.613680 0.578140 -0.244987
C22   C     C_3   0.070666 0.500998 0.347883 -0.253030
C23   C     C_3   0.933321 0.615232 0.575898 -0.242623
C24   C     C_3   0.122016 0.498172 0.499200 0.019028
C25   C     C_1   0.340663 0.333376 0.141243 0.229658
C26   C     C_3   0.914155 0.385676 0.817706 -0.095925
C27   C     C_3   0.928104 0.503087 0.348196 -0.284665
C28   C     C_R   0.301927 0.122001 0.653516 -0.105980
C29   C     C_R   0.213446 0.054032 0.730860 -0.119544
C30   C     C_R   0.215779 0.925303 0.734924 -0.124033
C31   C     C_R   0.306120 0.863834 0.660960 -0.110955
C32   C     C_R   0.397278 0.930718 0.582033 0.030504
Cu1   Cu    Cu3+1 0.499990 0.499990 0.640660 0.929188
Cu2   Cu    Cu3+1 0.500010 0.500010 0.359340 0.935265
H1    H     H_    0.108674 0.372458 0.677398 0.115662
H2    H     H_    0.639007 0.892975 0.355030 0.110510
H3    H     H_    0.101722 0.295814 0.514471 0.092002
H4    H     H_    0.673748 0.672644 0.254756 0.176070
H5    H     H_    0.811306 0.807294 0.130192 0.111805
H6    H     H_    0.811037 0.807298 0.874664 0.116076
H7    H     H_    0.672706 0.672738 0.747996 0.178178
H8    H     H_    0.360661 0.358983 0.867571 0.108585
H9    H     H_    0.896353 0.300562 0.492934 0.122999
H10   H     H_    0.110375 0.614146 0.687674 0.116778
H11   H     H_    0.896352 0.623355 0.682906 0.122240
H12   H     H_    0.899209 0.589063 0.295803 0.128936
H13   H     H_    0.109417 0.584618 0.292726 0.139971
H14   H     H_    0.099185 0.417905 0.289096 0.152667
H15   H     H_    0.889026 0.422858 0.286181 0.123786
H16   H     H_    0.968298 0.474726 0.808328 0.098017
H17   H     H_    0.974657 0.314464 0.861051 0.110299
H18   H     H_    0.838749 0.400210 0.893899 0.149595
H19   H     H_    0.115870 0.699631 0.528077 0.117600
H20   H     H_    0.904672 0.699884 0.520594 0.096275
H21   H     H_    0.638590 0.118181 0.353987 0.125560
H22   H     H_    0.293917 0.221418 0.650232 0.118935
H23   H     H_    0.142037 0.101442 0.786679 0.113059
H24   H     H_    0.146246 0.872612 0.794095 0.106284
H25   H     H_    0.301717 0.763814 0.664748 0.141302
N1    N     N_R   0.501200 0.501210 0.147910 -0.257126
N2    N     N_R   0.501250 0.501290 0.852040 -0.250834
N3    N     N_1   0.274365 0.261546 0.195847 -0.336838
O1    O     O_R   0.499990 0.319640 0.618810 -0.491399
O2    O     O_R   0.500000 0.319660 0.381240 -0.485978
O3    O     O_R   0.317680 0.499970 0.618790 -0.528506
O4    O     O_R   0.317700 0.499990 0.381210 -0.492546
O5    O     O_R   0.500000 0.680340 0.618760 -0.532679
O6    O     O_R   0.500010 0.680360 0.381190 -0.518047
O7    O     O_R   0.682300 0.500010 0.618790 -0.474766
O8    O     O_R   0.682320 0.500030 0.381210 -0.544632
O9    O     O_3   0.859509 0.341037 0.692258 -0.546990

loop_
_geom_bond_atom_site_label_1
_geom_bond_atom_site_label_2
_ccdc_geom_bond_type
C18   O8    A    
C22   H14   S    
C20   O9    S    
C11   H7    S    
C6    C7    A    
C23   H11   S    
C26   H18   S    
C21   H19   S    
C21   H10   S    
C14   N1    A    
C9    C10   A    
Cu2   O8    S    
C22   C27   S    
C19   C20   S    
Cu2   N1    S    
Cu1   O7    S    
Cu1   O1    S    
Cu2   O4    S    
C18   O7    A    
Cu2   O2    S    
C2    C3    A    
C28   H22   S    
C3    C5    A    
Cu1   O3    S    
C16   O5    A    
C19   H1    S    
C26   H17   S    
C4    O4    A    
C26   O9    S    
C11   C13   A    
C12   C23   S    
C12   C20   S    
C29   C30   A    
C8    H4    S    
C16   O6    A    
C5    C6    A    
C30   H24   S    
C27   H12   S    
C2    C32   A    
C28   C29   A    
C29   H23   S    
C19   C24   S    
C22   C24   S    
C25   N3    T    
C26   H16   S    
C21   C23   S    
C30   C31   A    
C4    C24   S    
C22   H13   S    
C15   C25   S    
C19   H3    S    
C10   C11   A    
C12   C27   S    
Cu2   O6    S    
C1    O2    A    
C1    O1    A    
C9    H5    S    
C20   H9    S    
Cu1   Cu2   S    
Cu1   O5    S    
C23   H20   S    
Cu1   N2    S    
C15   N1    A    
C21   C24   S    
C12   C18   S    
C13   N2    A    
C15   C17   A    
C4    O3    A    
C7    C16   S    
C10   H6    S    
C2    C28   A    
C7    C32   A    
C8    C14   A    
C13   C14   A    
C17   N2    A    
C17   H8    S    
C5    H21   S    
C31   C32   A    
C27   H15   S    
C6    H2    S    
C8    C9    A    
C1    C3    S    
C31   H25   S    
