data_mof_unit_53742.cif
_audit_creation_date              2013-03-05T16:06:41-0500
_audit_creation_method            fapswitch 2.2
_symmetry_space_group_name_H-M    P1
_symmetry_Int_Tables_number       1
_space_group_crystal_system       triclinic
_cell_length_a                    10.832513
_cell_length_b                    9.504878
_cell_length_c                    15.166835
_cell_angle_alpha                 90.253584
_cell_angle_beta                  90.184124
_cell_angle_gamma                 90.004986
_cell_volume                      1561.57996922

loop_
_atom_site_label
_atom_site_type_symbol
_atom_site_description
_atom_site_fract_x
_atom_site_fract_y
_atom_site_fract_z
_atom_type_partial_charge
O1    O     O_R   0.319640 0.618740 0.499990 -0.583102
O2    O     O_R   0.680360 0.381260 0.500010 -0.578821
O3    O     O_R   0.680360 0.618740 0.500010 -0.589789
O4    O     O_R   0.319640 0.381260 0.499990 -0.605481
N1    N     N_R   0.500000 0.852070 0.500000 -0.173542
N2    N     N_R   0.500000 0.147930 0.500000 -0.184642
C1    C     C_R   0.262019 0.499991 0.499928 0.822412
C2    C     C_R   0.737978 0.500011 0.500075 0.837293
O5    O     O_R   0.499990 0.618780 0.371460 -0.546670
O6    O     O_R   0.500010 0.381220 0.628540 -0.557937
O7    O     O_R   0.500010 0.618780 0.628540 -0.558774
O8    O     O_R   0.499990 0.381220 0.371460 -0.545786
C3    C     C_R   0.504261 0.499522 0.329463 0.840617
C4    C     C_R   0.499696 0.500322 0.669872 0.925138
Cu1   Cu    Cu3+1 0.500000 0.640660 0.500000 1.037790
Cu2   Cu    Cu3+1 0.500000 0.359340 0.500000 1.032097
H1    H     H_    0.357741 0.129995 0.404167 0.153397
H2    H     H_    0.641927 0.869983 0.596114 0.137849
H3    H     H_    0.642142 0.131329 0.595947 0.177381
H4    H     H_    0.358196 0.868627 0.403777 0.132334
C5    C     C_R   0.421035 0.074072 0.446734 0.060850
C6    C     C_R   0.578844 0.925910 0.553366 0.020454
C7    C     C_R   0.578923 0.074837 0.553305 0.012486
C8    C     C_R   0.421200 0.925150 0.446596 0.059814
C9    C     C_R   0.063830 0.372148 0.500818 -0.158638
C10   C     C_R   0.936155 0.627871 0.499851 -0.146828
C11   C     C_R   0.936124 0.372160 0.500940 -0.117710
C12   C     C_R   0.063862 0.627861 0.499796 -0.124497
C13   C     C_R   0.524992 0.624878 0.092940 -0.189101
C14   C     C_R   0.572647 0.405999 0.904812 -0.182761
C15   C     C_R   0.424635 0.596951 0.904651 -0.184459
C16   C     C_R   0.479353 0.376125 0.091976 -0.179705
H5    H     H_    0.544308 0.720781 0.057093 0.193324
H6    H     H_    0.631907 0.334671 0.941054 0.193546
H7    H     H_    0.365575 0.668792 0.940776 0.193289
H8    H     H_    0.460644 0.279856 0.055695 0.192256
C17   C     C_R   0.534045 0.624443 0.184713 0.296636
C18   C     C_R   0.576456 0.406824 0.812979 0.305685
C19   C     C_R   0.421905 0.595884 0.812667 0.295194
C20   C     C_R   0.485509 0.372588 0.183581 0.304869
C21   C     C_R   0.510024 0.498305 0.231862 -0.282953
C22   C     C_R   0.499321 0.501080 0.766195 -0.276498
H9    H     H_    0.111862 0.272192 0.501198 0.158495
H10   H     H_    0.888118 0.727826 0.499450 0.164543
H11   H     H_    0.888060 0.272214 0.501469 0.164876
H12   H     H_    0.111925 0.727809 0.499379 0.161645
C23   C     C_R   0.498557 0.501376 0.046755 0.004214
C24   C     C_R   0.498169 0.501291 0.950490 0.007278
C25   C     C_R   0.871794 0.500018 0.500307 -0.014339
C26   C     C_R   0.128195 0.499996 0.500165 -0.013270
N3    N     N_R   0.574162 0.751147 0.227891 0.144649
O9    O     O_R   0.673414 0.749731 0.276478 -0.329267
O10   O     O_R   0.527245 0.871504 0.204783 -0.285566
N4    N     N_R   0.662818 0.316046 0.768765 0.128823
O11   O     O_R   0.733860 0.365702 0.707263 -0.379099
O12   O     O_R   0.684701 0.190747 0.799322 -0.338401
N5    N     N_R   0.336638 0.687258 0.767965 0.141225
O13   O     O_R   0.266486 0.638277 0.705148 -0.356727
O14   O     O_R   0.314648 0.812488 0.799179 -0.321975
N6    N     N_R   0.469295 0.239270 0.225591 0.138566
O15   O     O_R   0.368027 0.168541 0.212309 -0.343879
O16   O     O_R   0.564894 0.175218 0.258599 -0.288807

loop_
_geom_bond_atom_site_label_1
_geom_bond_atom_site_label_2
_geom_bond_distance
_ccdc_geom_bond_type
O4    Cu2   1.964847 S    
H3    C7    1.081479 S    
H1    C5    1.081523 S    
C20   N6    1.431909 S    
C9    C11   1.383380 A    
O2    Cu2   1.964810 S    
C10   C12   1.383391 A    
C23   C24   1.460023 S    
C18   N4    1.438200 S    
C4    C22   1.460926 S    
C11   H11   1.083325 S    
C3    C21   1.481801 S    
O5    Cu1   1.959690 S    
C10   H10   1.083302 S    
N3    O9    1.301604 A    
O6    Cu2   1.959690 S    
O8    C3    1.295670 A    
C12   H12   1.083317 S    
N5    O13   1.301271 A    
N1    C8    1.366677 A    
O7    Cu1   1.961521 S    
C13   C23   1.393565 A    
O4    C1    1.289686 A    
O1    Cu1   1.964811 S    
N2    C7    1.366685 A    
C16   H8    1.084403 S    
C14   C24   1.396209 A    
C9    H9    1.083289 S    
C16   C23   1.392504 A    
C15   C19   1.395307 A    
C18   C22   1.416411 A    
C19   C22   1.417868 A    
N4    O12   1.301374 A    
C15   C24   1.395251 A    
C16   C20   1.391305 A    
C17   C21   1.423105 A    
C17   N3    1.434969 S    
O7    C4    1.291109 A    
C15   H7    1.083877 S    
N1    Cu1   2.009426 S    
N5    O14   1.301325 A    
C14   H6    1.083961 S    
N2    Cu2   2.009427 S    
Cu1   Cu2   2.673912 S    
C19   N5    1.438201 S    
C13   H5    1.084145 S    
O3    Cu1   1.964846 S    
C11   C25   1.401005 A    
C14   C18   1.393612 A    
N6    O16   1.301213 A    
O3    C2    1.289659 A    
O6    C4    1.291607 A    
C5    C8    1.415479 A    
C13   C17   1.395071 A    
O5    C3    1.298683 A    
N4    O11   1.301357 A    
C20   C21   1.423215 A    
O2    C2    1.289739 A    
O1    C1    1.289739 A    
H2    C6    1.081737 S    
N2    C5    1.366606 A    
C12   C26   1.401039 A    
C2    C25   1.449547 S    
H4    C8    1.081754 S    
C6    C7    1.415536 A    
C9    C26   1.401038 A    
N1    C6    1.366595 A    
O8    Cu2   1.961521 S    
C1    C26   1.449661 S    
N6    O15   1.301212 A    
N3    O10   1.300894 A    
C10   C25   1.401025 A    
