data_mof_unit_63642.cif
_audit_creation_date              2012-12-11T16:00:49-0500
_audit_creation_method            fapswitch 2.2
_symmetry_space_group_name_H-M    P1
_symmetry_Int_Tables_number       1
_space_group_crystal_system       triclinic
_cell_length_a                    7.005267
_cell_length_b                    17.248995
_cell_length_c                    18.594496
_cell_angle_alpha                 107.179316
_cell_angle_beta                  90.826165
_cell_angle_gamma                 90.942072
_cell_volume                      2145.87394031

loop_
_atom_site_label
_atom_site_type_symbol
_atom_type_description
_atom_site_fract_x
_atom_site_fract_y
_atom_site_fract_z
_atom_type_partial_charge
O1    O     O_R   0.505810 0.442350 0.559500 -0.518134
O2    O     O_R   0.167990 0.405060 0.411070 -0.540512
O3    O     O_R   0.005550 0.557650 0.440500 -0.524517
C1    C     C_R   0.336578 0.381520 0.383050 0.685326
O4    O     O_R   0.175580 0.432840 0.557140 -0.527959
O5    O     O_R   0.013190 0.585620 0.587600 -0.525620
C2    C     C_R   0.344679 0.416001 0.580501 0.742792
O6    O     O_R   0.498170 0.414380 0.412400 -0.539840
O7    O     O_3   0.341790 0.550090 0.509830 -0.348842
V1    V     V_3+5 0.063870 0.490710 0.498180 1.446047
O8    O     O_R   0.683930 0.594940 0.588930 -0.509014
C3    C     C_R   0.855331 0.616907 0.617437 0.805801
O9    O     O_R   0.676340 0.567160 0.442860 -0.528692
C4    C     C_R   0.844977 0.584099 0.419594 0.702638
V2    V     V_3+5 0.564820 0.509290 0.501820 1.483622
O10   O     O_3   0.836770 0.449910 0.490170 -0.374580
C5    C     C_1   0.855738 0.636184 0.367551 -0.201129
C6    C     C_1   0.867095 0.678749 0.323948 0.011223
C7    C     C_1   0.881857 0.728889 0.271982 0.014057
C8    C     C_1   0.894580 0.771097 0.228104 0.016688
C9    C     C_1   0.909362 0.821234 0.176135 0.022707
C10   C     C_1   0.920766 0.863792 0.132525 -0.169993
C11   C     C_3   0.774458 0.809700 0.741085 0.043563
C12   C     C_3   0.940828 0.772881 0.689680 0.058683
C13   C     C_3   0.874517 0.686801 0.688086 -0.268706
C14   C     C_3   0.707233 0.722465 0.739375 0.451629
C15   C     C_3   0.837287 0.727885 0.808617 0.317125
C16   C     C_3   0.005173 0.691451 0.757409 -0.228243
C17   C     C_3   0.067700 0.778706 0.759147 0.468294
C18   C     C_3   0.902534 0.814303 0.810697 -0.268119
H1    H     H_    0.097050 0.642390 0.764543 0.220334
C19   C     C_3   0.506307 0.244526 0.305566 -0.107665
C20   C     C_3   0.355795 0.179406 0.262997 -0.236513
H2    H     H_    0.329966 0.120206 0.273816 0.120514
H3    H     H_    0.604206 0.239125 0.351246 0.110190
C21   C     C_3   0.421790 0.190269 0.187314 -0.070016
C22   C     C_3   0.567688 0.255086 0.229528 0.096679
C23   C     C_3   0.420963 0.322339 0.236896 -0.150148
C24   C     C_3   0.273340 0.256918 0.194623 0.418568
C25   C     C_3   0.204896 0.246434 0.270364 -0.192271
C26   C     C_3   0.355185 0.310807 0.312202 -0.086640
H4    H     H_    0.447365 0.381446 0.225920 0.140533
H5    H     H_    0.060146 0.241739 0.291880 0.123747
C27   C     C_1   0.355372 0.363931 0.632571 -0.194943
C28   C     C_1   0.366980 0.321334 0.676146 0.020910
C29   C     C_1   0.382200 0.271109 0.728034 0.018847
C30   C     C_1   0.395331 0.228823 0.771836 0.018721
C31   C     C_1   0.410521 0.178618 0.823738 0.024927
C32   C     C_1   0.422061 0.136052 0.867337 -0.175413
O11   O     O_R   0.278780 0.085730 0.087540 -0.525553
O12   O     O_R   0.601620 0.067180 0.942850 -0.532759
O13   O     O_R   0.763750 0.914350 0.912410 -0.525457
C33   C     C_R   0.432593 0.084032 0.919440 0.742310
O14   O     O_R   0.608970 0.094960 0.088920 -0.541931
O15   O     O_R   0.771150 0.942330 0.059520 -0.525336
C34   C     C_R   0.440370 0.118850 0.116744 0.710476
O16   O     O_R   0.271380 0.057750 0.940430 -0.514151
O17   O     O_3   0.435070 0.949970 0.990140 -0.344233
V3    V     V_3+5 0.713090 0.009280 0.001830 1.507015
O18   O     O_R   0.100340 0.932730 0.057200 -0.530830
C35   C     C_R   0.931652 0.915859 0.080467 0.717160
O19   O     O_R   0.092990 0.904950 0.911140 -0.504545
C36   C     C_R   0.921691 0.883408 0.882243 0.820615
V4    V     V_3+5 0.212100 0.990570 0.998260 1.562970
O20   O     O_3   0.940260 0.050030 0.009860 -0.359904
C37   C     C_3   0.005814 0.795454 0.620448 -0.697195
H6    H     H_    0.053221 0.860102 0.636837 0.219140
H7    H     H_    0.126738 0.756937 0.594568 0.227036
H8    H     H_    0.885939 0.785646 0.578841 0.184265
Cl1   Cl    Cl    0.143619 0.269010 0.115684 -0.677437
C38   C     C_3   0.676070 0.883307 0.729161 -0.618703
H9    H     H_    0.784239 0.925186 0.716970 0.170012
H10   H     H_    0.604021 0.917956 0.781021 0.236681
H11   H     H_    0.573932 0.863710 0.680720 0.237331
Cl2   Cl    Cl    0.484837 0.668032 0.727495 -0.565900
Cl3   Cl    Cl    0.769515 0.698869 0.889183 -0.541041
Cl4   Cl    Cl    0.288986 0.830924 0.775161 -0.642757
C39   C     C_3   0.765701 0.262683 0.202270 -0.667469
H12   H     H_    0.842580 0.314569 0.242666 0.210688
H13   H     H_    0.840717 0.204970 0.195606 0.215187
H14   H     H_    0.754485 0.274150 0.146724 0.257659

loop_
_geom_bond_atom_site_label_1
_geom_bond_atom_site_label_2
_ccdc_geom_bond_type
C37   H7    S    
C25   C26   S    
O15   V3    S    
O11   V4    S    
C7    C8    T    
C1    O6    A    
C28   C29   S    
C13   C16   S    
C14   C15   S    
C17   C18   S    
C16   C17   S    
C22   C23   S    
C23   H4    S    
O5    C3    A    
C23   C24   S    
C39   H13   S    
C37   H8    S    
C1    C26   S    
V2    O10   S    
C20   C21   S    
C6    C7    S    
C11   C14   S    
C12   C17   S    
O19   V4    S    
O8    V2    S    
C25   H5    S    
C11   C12   S    
O1    V2    S    
O9    C4    A    
O7    V1    S    
C12   C37   S    
C37   H6    S    
C18   C36   S    
C15   C18   S    
C4    C5    S    
C5    C6    T    
O14   V3    S    
C16   H1    S    
O17   V4    S    
O14   C34   A    
C20   C25   S    
C19   H3    S    
C11   C38   S    
C12   C13   S    
C23   C26   S    
C24   C25   S    
C38   H10   S    
C33   O16   A    
C39   H12   S    
O17   V3    S    
C2    C27   S    
O11   C34   A    
O18   C35   A    
O12   C33   A    
O2    C1    A    
C11   C18   S    
O19   C36   A    
C21   C34   S    
O13   V3    S    
C30   C31   S    
C19   C26   S    
C20   H2    S    
C19   C22   S    
O3    C4    A    
C31   C32   T    
O6    V2    S    
O9    V2    S    
O12   V3    S    
C15   Cl3   S    
O2    V1    S    
C27   C28   T    
O16   V4    S    
O4    C2    A    
C29   C30   T    
C21   C22   S    
O1    C2    A    
C21   C24   S    
O13   C36   A    
O5    V1    S    
C38   H11   S    
O8    C3    A    
C22   C39   S    
C3    C13   S    
O18   V4    S    
C19   C20   S    
C13   C14   S    
C38   H9    S    
O3    V1    S    
V1    O10   S    
V3    O20   S    
C10   C35   S    
C39   H14   S    
C32   C33   S    
O15   C35   A    
V4    O20   S    
C24   Cl1   S    
O7    V2    S    
O4    V1    S    
C17   Cl4   S    
C8    C9    S    
C14   Cl2   S    
C15   C16   S    
C9    C10   T    
