data_mof_unit_8017.cif
_audit_creation_date              2012-12-10T20:28:41-0500
_audit_creation_method            fapswitch 2.2
_symmetry_space_group_name_H-M    P1
_symmetry_Int_Tables_number       1
_space_group_crystal_system       triclinic
_cell_length_a                    10.805565
_cell_length_b                    10.727964
_cell_length_c                    9.84068
_cell_angle_alpha                 88.519346
_cell_angle_beta                  87.476754
_cell_angle_gamma                 90.549661
_cell_volume                      1139.19616885

loop_
_atom_site_label
_atom_site_type_symbol
_atom_type_description
_atom_site_fract_x
_atom_site_fract_y
_atom_site_fract_z
_atom_type_partial_charge
C1    C     C_R   0.505209 0.259678 0.500830 0.884916
C2    C     C_R   0.055561 0.492857 0.632539 0.110660
C3    C     C_R   0.127505 0.520471 0.511850 -0.153294
C4    C     C_R   0.071246 0.544858 0.390044 -0.225522
C5    C     C_R   0.945457 0.536335 0.383190 0.292328
C6    C     C_R   0.874262 0.487589 0.496430 -0.170873
C7    C     C_R   0.545562 0.058960 0.617676 0.083397
C8    C     C_R   0.526739 0.128284 0.498753 -0.125583
C9    C     C_R   0.532731 0.067895 0.373064 -0.148038
C10   C     C_R   0.530733 0.938825 0.371064 -0.171747
C11   C     C_R   0.521715 0.871186 0.494681 -0.077543
C12   C     C_R   0.260150 0.508464 0.503617 0.917527
C13   C     C_R   0.538060 0.932114 0.615411 0.027941
C14   C     C_3   0.473754 0.919600 0.752529 0.053763
C15   C     C_3   0.485419 0.060522 0.757322 0.014315
C16   C     C_R   0.398536 0.458432 0.077610 0.213311
C17   C     C_R   0.590037 0.560170 0.065639 -0.044151
C18   C     C_R   0.591610 0.558297 0.921580 -0.067471
C19   C     C_R   0.397990 0.459287 0.934953 0.191699
C20   C     C_3   0.341063 0.332409 0.937382 -0.492361
C21   C     C_3   0.340622 0.332420 0.091503 -0.445126
C22   C     C_R   0.503146 0.739988 0.498220 0.929470
C23   C     C_R   0.740517 0.493950 0.497846 0.908669
C24   C     C_R   0.099607 0.503059 0.765289 -0.187235
C25   C     C_R   0.031571 0.453689 0.877865 -0.200522
C26   C     C_R   0.921244 0.390218 0.859819 0.358703
C27   C     C_R   0.872072 0.389024 0.730962 -0.171898
C28   C     C_R   0.932793 0.454149 0.619023 -0.001604
H1    H     H_    0.125482 0.574260 0.299272 0.197508
H2    H     H_    0.529537 0.867513 0.826917 0.176468
H3    H     H_    0.395117 0.108856 0.759284 0.163013
H4    H     H_    0.660598 0.610658 0.114750 0.199270
H5    H     H_    0.666796 0.603414 0.862405 0.164502
H6    H     H_    0.247363 0.330054 0.896513 0.210186
H7    H     H_    0.405470 0.265132 0.892936 0.252778
H8    H     H_    0.245930 0.335090 0.140220 0.208972
H9    H     H_    0.403019 0.261757 0.135369 0.235119
H10   H     H_    0.183101 0.553802 0.785561 0.208155
H11   H     H_    0.066750 0.461702 0.978666 0.186036
H12   H     H_    0.786199 0.338313 0.720195 0.202902
H13   H     H_    0.530010 0.119064 0.276984 0.196173
H14   H     H_    0.527279 0.893351 0.274257 0.187309
N1    N     N_R   0.499160 0.499140 0.142800 -0.111541
N2    N     N_R   0.499160 0.499180 0.857150 -0.103887
O1    O     O_R   0.500020 0.316790 0.614690 -0.612268
O2    O     O_R   0.500000 0.316760 0.385350 -0.618719
O3    O     O_R   0.316770 0.500020 0.614690 -0.627555
O4    O     O_R   0.316760 0.499980 0.385350 -0.628645
O5    O     O_R   0.500000 0.683240 0.614650 -0.605228
O6    O     O_R   0.499980 0.683210 0.385310 -0.631930
O7    O     O_R   0.683240 0.500020 0.614650 -0.642280
O8    O     O_R   0.683230 0.499980 0.385310 -0.565726
Zn1   Zn    Zn3+2 0.500010 0.500020 0.653130 0.979911
Zn2   Zn    Zn3+2 0.499990 0.499980 0.346870 0.999061
Br1   Br    Br    0.603884 0.109618 0.889314 -0.492587
Br2   Br    Br    0.835174 0.312090 0.013260 -0.416501
Br3   Br    Br    0.884512 0.601834 0.216537 -0.509037
Br4   Br    Br    0.301463 0.864469 0.748738 -0.505192

loop_
_geom_bond_atom_site_label_1
_geom_bond_atom_site_label_2
_ccdc_geom_bond_type
C24   H10   S    
C24   C25   A    
C17   N1    A    
C15   H3    S    
C16   C21   S    
C18   N2    A    
C10   H14   S    
C1    C8    S    
C9    C10   A    
N1    Zn2   S    
C23   O7    A    
C19   C20   S    
C5    Br3   S    
C27   H12   S    
C22   O6    A    
C20   H6    S    
O2    Zn2   S    
C7    C15   S    
C17   C18   A    
C23   O8    A    
O1    Zn1   S    
C7    C8    A    
C21   H8    S    
C13   C14   S    
C25   H11   S    
O4    Zn2   S    
C11   C13   A    
C16   N1    A    
C1    O1    A    
C26   C27   A    
O6    Zn2   S    
C14   H2    S    
C16   C19   A    
O5    Zn1   S    
O3    Zn1   S    
C12   O4    A    
O8    Zn2   S    
C2    C3    A    
C12   O3    A    
C2    C24   A    
C5    C6    A    
C14   Br4   S    
C18   H5    S    
C1    O2    A    
C10   C11   A    
C6    C23   S    
C3    C4    A    
C19   N2    A    
C7    C13   A    
C21   H9    S    
C20   C21   S    
C22   O5    A    
C27   C28   A    
C17   H4    S    
C14   C15   S    
C4    C5    A    
C2    C28   A    
C3    C12   S    
C11   C22   S    
C25   C26   A    
C20   H7    S    
C9    H13   S    
N2    Zn1   S    
C6    C28   A    
C4    H1    S    
C15   Br1   S    
C8    C9    A    
O7    Zn1   S    
C26   Br2   S    
