data_mof_unit_55185.cif
_audit_creation_date              2013-03-05T16:00:15-0500
_audit_creation_method            fapswitch 2.2
_symmetry_space_group_name_H-M    P1
_symmetry_Int_Tables_number       1
_space_group_crystal_system       triclinic
_cell_length_a                    11.683352
_cell_length_b                    14.852124
_cell_length_c                    14.787613
_cell_angle_alpha                 64.274533
_cell_angle_beta                  104.930284
_cell_angle_gamma                 102.537532
_cell_volume                      2217.22753513

loop_
_atom_site_label
_atom_site_type_symbol
_atom_site_description
_atom_site_fract_x
_atom_site_fract_y
_atom_site_fract_z
_atom_type_partial_charge
O1    O     O_R   0.459870 0.022090 0.338120 -0.582653
O2    O     O_R   0.540130 0.977910 0.661880 -0.582653
O3    O     O_R   0.511290 0.160150 0.379180 -0.539263
O4    O     O_R   0.488710 0.839850 0.620820 -0.539263
C1    C     C_R   0.481485 0.119673 0.312144 0.831457
C2    C     C_R   0.518515 0.880327 0.687856 0.831459
O5    O     O_R   0.311490 0.930960 0.479480 -0.568379
O6    O     O_R   0.688510 0.069040 0.520520 -0.568378
O7    O     O_R   0.362910 0.069020 0.520540 -0.518539
O8    O     O_R   0.637090 0.930980 0.479460 -0.518538
C3    C     C_R   0.284389 0.000031 0.499959 0.831650
C4    C     C_R   0.715611 0.999969 0.500041 0.831650
Cu1   Cu    Cu3+1 0.469550 0.918260 0.475690 1.055089
Cu2   Cu    Cu3+1 0.530450 0.081740 0.524310 1.055089
C5    C     C_1   0.162569 0.000043 0.499955 -0.079001
C6    C     C_1   0.837431 0.999957 0.500045 -0.078999
C7    C     C_1   0.059962 0.000025 0.499976 0.070732
C8    C     C_1   0.940038 0.999975 0.500025 0.070732
C9    C     C_R   0.476775 0.187838 0.203845 -0.099776
C10   C     C_R   0.523224 0.812162 0.796155 -0.099776
C11   C     C_R   0.466426 0.219607 0.026810 0.191131
C12   C     C_R   0.533572 0.780392 0.973190 0.191125
C13   C     C_R   0.471169 0.152428 0.129022 -0.173077
C14   C     C_R   0.528829 0.847572 0.870978 -0.173077
C15   C     C_R   0.483417 0.291143 0.176165 -0.160886
C16   C     C_R   0.516583 0.708857 0.823835 -0.160887
C17   C     C_R   0.494020 0.361012 0.077287 0.060511
C18   C     C_R   0.505980 0.638988 0.922713 0.060512
C19   C     C_R   0.472798 0.324197 0.999902 0.061166
C20   C     C_R   0.527201 0.675803 0.000097 0.061169
C21   C     C_R   0.513590 0.466449 0.052277 0.018194
C22   C     C_R   0.486410 0.533550 0.947722 0.018192
C23   C     C_R   0.440483 0.492114 0.872723 0.110643
C24   C     C_R   0.559517 0.507886 0.127277 0.110644
C25   C     C_R   0.446271 0.391130 0.898080 -0.186358
C26   C     C_R   0.553728 0.608870 0.101920 -0.186366
H1    H     H_    0.416251 0.363608 0.838123 0.197214
H2    H     H_    0.583748 0.636392 0.161876 0.197213
H3    H     H_    0.525661 0.683281 0.768539 0.207454
H4    H     H_    0.474340 0.316719 0.231461 0.207453
H5    H     H_    0.532198 0.927372 0.850621 0.197276
H6    H     H_    0.467799 0.072627 0.149379 0.197277
N1    N     N_R   0.576230 0.204580 0.560790 -0.267669
N2    N     N_R   0.423770 0.795420 0.439210 -0.267670
C27   C     C_R   0.695231 0.280745 0.675296 0.216090
C28   C     C_R   0.304771 0.719256 0.324701 0.216079
C29   C     C_R   0.670720 0.204041 0.639359 0.225660
C30   C     C_R   0.329280 0.795959 0.360640 0.225668
C31   C     C_R   0.507195 0.283046 0.514502 0.421219
C32   C     C_R   0.492806 0.716954 0.485498 0.421219
C33   C     C_R   0.542546 0.370384 0.537385 -0.133019
C34   C     C_R   0.457457 0.629617 0.462615 -0.133019
C35   C     C_R   0.629388 0.362891 0.625680 -0.033741
C36   C     C_R   0.370616 0.637110 0.374318 -0.033739
C37   C     C_R   0.489277 0.462302 0.480002 0.135066
C38   C     C_R   0.510727 0.537699 0.519997 0.135064
C39   C     C_R   0.579893 0.516483 0.618226 -0.143228
C40   C     C_R   0.420112 0.483519 0.381773 -0.143228
C41   C     C_R   0.643294 0.434144 0.667285 -0.074919
C42   C     C_R   0.356714 0.565859 0.332711 -0.074911
H7    H     H_    0.699893 0.424678 0.740651 0.200225
H8    H     H_    0.300120 0.575327 0.259344 0.200224
H9    H     H_    0.584876 0.561922 0.659585 0.189620
H10   H     H_    0.415131 0.438080 0.340413 0.189618
I1    I     I_    0.450540 0.156579 0.918837 -0.220707
I2    I     I_    0.549454 0.843419 0.081163 -0.220727
I3    I     I_    0.327412 0.561452 0.728276 -0.289117
I4    I     I_    0.672590 0.438549 0.271722 -0.289116
N3    N     N_R   0.614166 0.733988 0.533521 0.130388
O9    O     O_R   0.640026 0.737756 0.622770 -0.381935
O10   O     O_R   0.700353 0.734167 0.492524 -0.324654
N4    N     N_R   0.385834 0.266013 0.466479 0.130390
O11   O     O_R   0.299648 0.265836 0.507475 -0.324650
O12   O     O_R   0.359975 0.262245 0.377230 -0.381933
I5    I     I_    0.217189 0.914005 0.280238 -0.121484
I6    I     I_    0.782807 0.085993 0.719767 -0.121491
N5    N     N_R   0.787817 0.275148 0.762190 0.133384
O13   O     O_R   0.771073 0.212175 0.853364 -0.296041
O14   O     O_R   0.883805 0.339569 0.751242 -0.289713
N6    N     N_R   0.212184 0.724852 0.237808 0.133386
O15   O     O_R   0.228901 0.787865 0.146638 -0.296022
O16   O     O_R   0.116221 0.660399 0.248748 -0.289731

loop_
_geom_bond_atom_site_label_1
_geom_bond_atom_site_label_2
_geom_bond_distance
_ccdc_geom_bond_type
C37   C38   1.429447 A    
C17   C19   1.417061 A    
C35   C41   1.401392 A    
C36   C42   1.401393 A    
N5    O13   1.300979 A    
O5    C3    1.305546 A    
C13   H6    1.083054 S    
O1    C1    1.311351 A    
C25   H1    1.080883 S    
C32   N3    1.435317 S    
C29   I6    2.141820 S    
C15   H4    1.075174 S    
N6    O15   1.300994 A    
C16   H3    1.075173 S    
C39   C41   1.384446 A    
C40   C42   1.384445 A    
C38   C39   1.403781 A    
C42   H8    1.082739 S    
O4    Cu1   1.925646 S    
N3    O10   1.301336 A    
C12   I2    2.128251 S    
C3    C5    1.423287 S    
C10   C14   1.399284 A    
C31   C33   1.429720 A    
C31   N4    1.435317 S    
C32   C34   1.429719 A    
C24   C26   1.391914 A    
C27   C29   1.402755 A    
C27   C35   1.399340 A    
Cu1   Cu2   2.724024 S    
C14   H5    1.083053 S    
C30   I5    2.141824 S    
O2    C2    1.311349 A    
O2    Cu2   1.939876 S    
C34   C36   1.409564 A    
C39   H9    1.075089 S    
N5    O14   1.300990 A    
C40   H10   1.075089 S    
C28   C30   1.402761 A    
C41   H7    1.082738 S    
C17   C21   1.423615 A    
C4    C6    1.423287 S    
C18   C22   1.423615 A    
N6    O16   1.301001 A    
C24   I4    2.143658 S    
N1    C31   1.381415 A    
C11   C19   1.416096 A    
C33   C35   1.409563 A    
C9    C13   1.399282 A    
O7    Cu2   1.913814 S    
C21   C22   1.425238 A    
O6    C4    1.305548 A    
C28   C36   1.399345 A    
C7    C8    1.401136 S    
C21   C24   1.427998 A    
O7    C3    1.304932 A    
O3    Cu2   1.925644 S    
O8    C4    1.304931 A    
N4    O12   1.299055 A    
C11   C13   1.398143 A    
C12   C14   1.398142 A    
O4    C2    1.309162 A    
O1    Cu1   1.939875 S    
C23   I3    2.143659 S    
N2    C32   1.381416 A    
C5    C7    1.198819 T    
O6    Cu2   1.913804 S    
C12   C20   1.416096 A    
C11   I1    2.128250 S    
N4    O11   1.301334 A    
O3    C1    1.309166 A    
O8    Cu1   1.913816 S    
C1    C9    1.471050 S    
C15   C17   1.396578 A    
C2    C10   1.471050 S    
C19   C25   1.394750 A    
C16   C18   1.396578 A    
C20   C26   1.394750 A    
C22   C23   1.427998 A    
C18   C20   1.417060 A    
C28   N6    1.434652 S    
C10   C16   1.395391 A    
C26   H2    1.080884 S    
C23   C25   1.391913 A    
C33   C37   1.436033 A    
N3    O9    1.299055 A    
C9    C15   1.395391 A    
N2    C30   1.379685 A    
O5    Cu1   1.913805 S    
C6    C8    1.198819 T    
C37   C40   1.403781 A    
C27   N5    1.434645 S    
N1    C29   1.379684 A    
Cu1   N2    2.046389 S    
C34   C38   1.436036 A    
Cu2   N1    2.046389 S    
