data_mof_unit_63824.cif
_audit_creation_date              2012-12-10T21:09:18-0500
_audit_creation_method            fapswitch 2.2
_symmetry_space_group_name_H-M    P1
_symmetry_Int_Tables_number       1
_space_group_crystal_system       triclinic
_cell_length_a                    10.694787
_cell_length_b                    17.55442
_cell_length_c                    16.772704
_cell_angle_alpha                 90.045006
_cell_angle_beta                  103.129389
_cell_angle_gamma                 90.34567
_cell_volume                      3066.54315431

loop_
_atom_site_label
_atom_site_type_symbol
_atom_type_description
_atom_site_fract_x
_atom_site_fract_y
_atom_site_fract_z
_atom_type_partial_charge
C1    C     C_R   0.499542 0.353696 0.499953 1.039828
C2    C     C_R   0.583465 0.545655 0.263779 0.595976
C3    C     C_R   0.571063 0.553161 0.757984 0.604933
C4    C     C_R   0.416240 0.453945 0.240061 0.608379
C5    C     C_R   0.572930 0.554693 0.842530 0.212763
C6    C     C_R   0.414187 0.452746 0.155497 0.208594
C7    C     C_R   0.501167 0.500646 0.875804 -0.342827
C8    C     C_R   0.499484 0.499528 0.124345 -0.341085
C9    C     C_1   0.500667 0.500274 0.963611 0.296300
C10   C     C_1   0.500222 0.499967 0.036574 0.295142
C11   C     C_R   0.258140 0.496221 0.466657 0.985045
C12   C     C_R   0.499853 0.646353 0.500011 1.037222
C13   C     C_R   0.741741 0.496220 0.533255 0.989037
C14   C     C_2   0.121353 0.482645 0.448519 -0.350936
C15   C     C_2   0.878051 0.482290 0.550911 -0.362461
C16   C     C_2   0.067649 0.452115 0.505791 0.577182
C17   C     C_2   0.930504 0.452325 0.492862 0.570803
C18   C     C_R   0.390417 0.845507 0.520694 0.347602
C19   C     C_R   0.386714 0.153626 0.452982 0.334147
C20   C     C_R   0.392738 0.766024 0.520670 0.299736
C21   C     C_R   0.389023 0.233117 0.452954 0.324228
C22   C     C_R   0.496818 0.728391 0.499881 -0.387910
C23   C     C_R   0.492074 0.885888 0.500199 -0.312126
C24   C     C_R   0.496729 0.271734 0.499600 -0.378513
C25   C     C_R   0.598084 0.769492 0.479363 0.271874
C26   C     C_R   0.601238 0.231753 0.546441 0.256050
C27   C     C_R   0.595171 0.848468 0.479642 0.644002
C28   C     C_R   0.598382 0.152747 0.546085 0.659483
C29   C     C_R   0.491897 0.114271 0.499571 -0.309612
C30   C     C_1   0.491905 0.966279 0.500149 0.270092
C31   C     C_1   0.491878 0.033883 0.499973 0.271750
C32   C     C_R   0.429742 0.446277 0.822438 0.505535
C33   C     C_R   0.584720 0.546269 0.179876 0.507428
C34   C     C_R   0.430672 0.446810 0.738492 0.605228
Cl1   Cl    Cl    0.665918 0.624479 0.905173 -0.329647
Cl2   Cl    Cl    0.304272 0.392367 0.090222 -0.317215
Cl3   Cl    Cl    0.260401 0.894361 0.545924 -0.328321
Cl4   Cl    Cl    0.252327 0.103499 0.395253 -0.337354
Cl5   Cl    Cl    0.263430 0.713954 0.544052 -0.431985
Cl6   Cl    Cl    0.255276 0.284013 0.397063 -0.346658
Cl7   Cl    Cl    0.732080 0.723557 0.456427 -0.330842
Cl8   Cl    Cl    0.738225 0.279315 0.604011 -0.397590
F1    F     F_    0.859402 0.430382 0.418125 -0.603824
F2    F     F_    0.333959 0.408795 0.269533 -0.532092
F3    F     F_    0.137728 0.429416 0.580148 -0.567064
F4    F     F_    0.693062 0.888922 0.460448 -0.532059
F5    F     F_    0.699411 0.113311 0.590651 -0.532838
F6    F     F_    0.359584 0.392652 0.851406 -0.519950
F7    F     F_    0.668924 0.592371 0.153107 -0.526846
F8    F     F_    0.362512 0.393215 0.688445 -0.504695
F9    F     F_    0.666482 0.591081 0.316285 -0.525819
F10   F     F_    0.641544 0.604821 0.726712 -0.553314
H1    H     H_    0.936474 0.498097 0.610591 0.190282
H2    H     H_    0.063648 0.499110 0.389034 0.196239
N1    N     N_R   0.500030 0.500030 0.707240 -0.265740
N2    N     N_R   0.499970 0.499970 0.292760 -0.264368
O1    O     O_R   0.500000 0.389130 0.566570 -0.556157
O2    O     O_R   0.500000 0.610870 0.433430 -0.579592
O3    O     O_R   0.499990 0.389100 0.433480 -0.564653
O4    O     O_R   0.500010 0.610900 0.566520 -0.551341
O5    O     O_R   0.317810 0.500010 0.541690 -0.536734
O6    O     O_R   0.682190 0.499990 0.458310 -0.518658
O7    O     O_R   0.317800 0.499990 0.408610 -0.579350
O8    O     O_R   0.682200 0.500010 0.591390 -0.585626
Zn1   Zn    Zn3+2 0.500010 0.500020 0.588860 1.152151
Zn2   Zn    Zn3+2 0.499990 0.499980 0.411140 1.148772

loop_
_geom_bond_atom_site_label_1
_geom_bond_atom_site_label_2
_ccdc_geom_bond_type
C16   F3    S    
C3    F10   S    
C17   F1    S    
C28   F5    S    
C7    C9    S    
C19   C21   A    
C19   Cl4   S    
C23   C27   A    
C26   C28   A    
C25   C27   A    
C5    C7    A    
C9    C10   T    
C11   O7    A    
C12   O2    A    
O8    Zn1   S    
C1    O3    A    
C2    C33   A    
O7    Zn2   S    
C34   N1    A    
C29   C31   S    
C19   C29   A    
C2    N2    A    
C1    O1    A    
C4    N2    A    
C32   F6    S    
C21   Cl6   S    
N2    Zn2   S    
O1    Zn1   S    
C5    Cl1   S    
C27   F4    S    
C8    C10   S    
C28   C29   A    
C14   H2    S    
C18   Cl3   S    
C6    Cl2   S    
O4    Zn1   S    
C18   C20   A    
C8    C33   A    
C13   C15   S    
C11   O5    A    
C30   C31   T    
C11   C14   S    
C14   C16   D    
C34   F8    S    
C13   O8    A    
C2    F9    S    
O6    Zn2   S    
C33   F7    S    
C18   C23   A    
C15   H1    S    
C23   C30   S    
O5    Zn1   S    
C12   C22   S    
C26   Cl8   S    
C1    C24   S    
C4    C6    A    
C21   C24   A    
C25   Cl7   S    
C15   C17   D    
C20   Cl5   S    
C16   C17   S    
C6    C8    A    
C7    C32   A    
C4    F2    S    
N1    Zn1   S    
C32   C34   A    
C3    N1    A    
O2    Zn2   S    
C13   O6    A    
C24   C26   A    
C20   C22   A    
O3    Zn2   S    
C3    C5    A    
C22   C25   A    
C12   O4    A    
