data_mof_unit_36540.cif
_audit_creation_date              2013-03-05T15:46:42-0500
_audit_creation_method            fapswitch 2.2
_symmetry_space_group_name_H-M    P1
_symmetry_Int_Tables_number       1
_space_group_crystal_system       triclinic
_cell_length_a                    8.415659
_cell_length_b                    16.639199
_cell_length_c                    19.146649
_cell_angle_alpha                 107.786083
_cell_angle_beta                  86.258733
_cell_angle_gamma                 97.370714
_cell_volume                      2530.89501821

loop_
_atom_site_label
_atom_site_type_symbol
_atom_site_description
_atom_site_fract_x
_atom_site_fract_y
_atom_site_fract_z
_atom_type_partial_charge
P1    P     P_3+3 0.391560 0.302240 0.409860 0.553255
O1    O     O_2   0.558990 0.288510 0.428270 -0.349049
O2    O     O_3   0.341190 0.396600 0.446070 -0.399163
O3    O     O_3   0.809080 0.340350 0.563320 -0.404157
O4    O     O_2   0.647513 0.191333 0.491082 -0.298059
O5    O     O_3   0.394621 0.269732 0.313304 -0.535464
O6    O     O_3   0.746599 0.199403 0.618911 -0.476136
H1    H     H_    0.783876 0.319115 0.694304 0.115276
C1    C     C_3   0.825745 0.221878 0.741176 -0.787020
H2    H     H_    0.699020 0.213732 0.760741 0.276086
H3    H     H_    0.874252 0.159336 0.724675 0.280923
P2    P     P_3+3 0.873530 0.566630 0.670640 0.566784
P3    P     P_3+3 0.376716 0.394363 0.700595 0.528805
O7    O     O_2   0.692320 0.540420 0.676730 -0.312877
O8    O     O_3   0.406060 0.383660 0.606030 -0.366984
O9    O     O_2   0.512525 0.460233 0.740456 -0.305612
O10   O     O_3   0.903343 0.675854 0.716565 -0.606329
O11   O     O_3   0.426340 0.302273 0.716700 -0.484158
C2    C     C_3   0.289141 0.245198 0.720454 0.240279
H4    H     H_    0.176945 0.275530 0.732729 -0.055140
C3    C     C_3   0.309558 0.205996 0.781890 -0.106511
H5    H     H_    0.413782 0.168606 0.768922 0.142152
C4    C     C_3   0.285760 0.696324 0.722163 0.679593
H6    H     H_    0.199564 0.652246 0.682918 0.021651
C5    C     C_3   0.206393 0.775874 0.766670 -0.725176
H7    H     H_    0.146956 0.800471 0.728901 0.232076
H8    H     H_    0.111296 0.758336 0.803997 0.198371
Ba1   Ba    Ba6+2 0.640410 0.457420 0.526150 1.730496
C6    C     C_3   0.422943 0.338348 0.284647 0.254383
H9    H     H_    0.546660 0.366266 0.298165 -0.054125
H10   H     H_    0.342835 0.387403 0.310834 0.159153
C7    C     C_3   0.410126 0.310163 0.199015 -0.352166
H11   H     H_    0.531253 0.327550 0.177721 0.093080
C8    C     C_3   0.816662 0.725657 0.689740 0.195240
H12   H     H_    0.701987 0.691024 0.666649 0.154532
H13   H     H_    0.892651 0.746115 0.647334 0.130160
C9    C     C_3   0.783489 0.804313 0.753715 -0.121607
H14   H     H_    0.664822 0.791882 0.779632 0.188845
H15   H     H_    0.873471 0.817507 0.796856 0.168924
P4    P     P_3+3 0.418740 0.697770 0.590200 0.538630
O12   O     O_2   0.251320 0.711540 0.571760 -0.333730
O13   O     O_3   0.469110 0.603410 0.553990 -0.327091
O14   O     O_3   0.001220 0.659660 0.436740 -0.290475
O15   O     O_3   0.425667 0.721372 0.686370 -0.640231
P5    P     P_3+3 0.433361 0.600834 0.299078 0.513223
O16   O     O_3   0.861890 0.456640 0.409240 -0.293221
O17   O     O_3   0.404240 0.616350 0.394030 -0.362456
O18   O     O_2   0.269749 0.566207 0.262331 -0.375549
O19   O     O_3   0.469602 0.702734 0.288638 -0.559629
Ba2   Ba    Ba6+2 0.169770 0.542590 0.473910 1.736106
P6    P     P_3+3 0.795335 0.228607 0.539240 0.524418
C10   C     C_3   0.835336 0.257332 0.676547 0.466522
H16   H     H_    0.963958 0.267848 0.660142 -0.040543
H17   H     H_    0.897639 0.266526 0.786601 0.186014
O20   O     O_3   0.948410 0.543360 0.590820 -0.299328
C11   C     C_3   0.817167 0.258896 0.288592 0.608319
H18   H     H_    0.724564 0.294340 0.323803 -0.008479
C12   C     C_3   0.755015 0.219319 0.210534 -0.193467
H19   H     H_    0.630734 0.188947 0.214301 0.113401
H20   H     H_    0.752942 0.269882 0.184227 0.119398
P7    P     P_3+3 0.935035 0.421121 0.316069 0.550596
O21   O     O_2   0.117990 0.459640 0.323300 -0.320240
O22   O     O_3   0.960633 0.312019 0.287119 -0.512830
H21   H     H_    0.200676 0.161780 0.785968 0.133057
C13   C     C_3   0.481139 0.764869 0.357925 0.267866
H22   H     H_    0.359884 0.768802 0.383981 0.164197
H23   H     H_    0.560704 0.749278 0.394670 0.128593
C14   C     C_3   0.552989 0.850890 0.348699 -0.642930
H24   H     H_    0.685602 0.856150 0.350134 0.206735
H25   H     H_    0.523190 0.855320 0.294501 0.255674
P8    P     P_3+3 0.012942 0.770986 0.458770 0.548745
C15   C     C_3   0.060868 0.753686 0.316220 0.143603
O23   O     O_2   0.147127 0.808490 0.514478 -0.331203
O24   O     O_3   0.075756 0.813654 0.386406 -0.552985
H26   H     H_    0.115423 0.695803 0.314483 0.098154
H27   H     H_    0.116393 0.757832 0.202836 0.169515
C16   C     C_3   0.153327 0.792953 0.259671 -0.057943
H28   H     H_    0.281210 0.785929 0.259787 0.134769
C17   C     C_2   0.709236 0.754475 0.521954 -0.035078
C18   C     C_R   0.099787 0.244924 0.472072 -0.587943
C19   C     C_2   0.549790 0.868122 0.591683 -0.329333
C20   C     C_2   0.560522 0.782172 0.563782 0.077471
C21   C     C_2   0.824550 0.809843 0.503711 0.158081
C22   C     C_3   0.785168 0.898550 0.511964 -0.220461
C23   C     C_3   0.691524 0.930944 0.583426 0.281585
C24   C     C_2   0.921822 0.963520 0.502461 -0.028664
C25   C     C_2   0.889780 0.036685 0.492977 -0.083502
C26   C     C_R   0.161949 0.078579 0.443679 0.131111
C27   C     C_R   0.013872 0.101862 0.477488 0.051595
C28   C     C_R   0.278235 0.138391 0.425830 -0.126316
C29   C     C_R   0.249413 0.223173 0.441726 0.268258
C30   C     C_R   0.982435 0.186986 0.491703 0.127236
H29   H     H_    0.388935 0.118282 0.398327 0.226794
H30   H     H_    0.045256 0.951983 0.503949 0.189967
H31   H     H_    0.765594 0.048713 0.496584 0.190052
C31   C     C_R   0.113814 0.481895 0.702386 -0.403394
C32   C     C_R   0.964264 0.509543 0.724648 0.273279
C33   C     C_R   0.898564 0.504838 0.793008 -0.211984
C34   C     C_R   0.979438 0.468756 0.836643 0.091218
C35   C     C_R   0.122537 0.433249 0.808446 -0.222330
C36   C     C_R   0.187409 0.437805 0.740137 0.205950
C37   C     C_R   0.921757 0.405272 0.941265 -0.211576
C38   C     C_R   0.870214 0.410775 0.013961 0.381864
C39   C     C_R   0.825292 0.488639 0.062636 -0.190444
C40   C     C_R   0.828013 0.558243 0.033806 0.324898
C41   C     C_R   0.873454 0.549673 0.960219 -0.152160
C42   C     C_R   0.921911 0.473920 0.913337 0.039845
C43   C     C_R   0.642590 0.534161 0.176212 -0.150650
C44   C     C_R   0.597199 0.538183 0.249159 0.309016
C45   C     C_R   0.826966 0.465796 0.256737 0.126055
C46   C     C_R   0.875858 0.465087 0.184739 -0.166049
C47   C     C_R   0.781467 0.496944 0.142405 0.075963
C48   C     C_R   0.687629 0.501806 0.287085 -0.347982
H32   H     H_    0.985249 0.439364 0.161272 0.210605
H33   H     H_    0.957146 0.345852 0.905712 0.179702
H34   H     H_    0.788203 0.532002 0.813340 0.183326
H35   H     H_    0.877080 0.604409 0.940484 0.183452
H36   H     H_    0.567243 0.558567 0.145842 0.198200
H37   H     H_    0.186743 0.405494 0.840703 0.181785
H38   H     H_    0.645798 0.498978 0.340543 0.179078
H39   H     H_    0.177299 0.498095 0.656836 0.171601
C49   C     C_2   0.320635 0.845671 0.813438 1.223848
O25   O     O_2   0.397825 0.831959 0.859680 -0.559251
O26   O     O_R   0.332379 0.927189 0.806052 -0.746656
H40   H     H_    0.409437 0.969352 0.841753 0.364416
C50   C     C_2   0.366990 0.215612 0.159757 1.233251
O27   O     O_2   0.304613 0.166619 0.192539 -0.462226
O28   O     O_R   0.391597 0.183936 0.083832 -0.685086
H41   H     H_    0.433632 0.229900 0.060451 0.354658
N1    N     N_R   0.299923 0.358098 0.176241 0.254191
O29   O     O_R   0.147045 0.333049 0.175500 -0.324504
O30   O     O_R   0.354852 0.410728 0.139795 -0.370551
N2    N     N_R   0.789112 0.879826 0.729725 0.231334
O31   O     O_R   0.921233 0.907749 0.701222 -0.371421
O32   O     O_R   0.675185 0.928561 0.750364 -0.378141
N3    N     N_R   0.847715 0.191087 0.318319 0.243865
O33   O     O_R   0.727555 0.143757 0.337290 -0.333944
O34   O     O_R   0.990522 0.166298 0.311072 -0.300758
N4    N     N_R   0.853652 0.155105 0.165792 0.324162
O35   O     O_R   0.807757 0.074984 0.157299 -0.227879
O36   O     O_R   0.968693 0.176037 0.123581 -0.215269
C51   C     C_2   0.497627 0.925862 0.407263 1.082674
O37   O     O_2   0.542498 0.997220 0.403565 -0.581720
O38   O     O_R   0.396548 0.914937 0.465291 -0.803712
H42   H     H_    0.368539 0.970581 0.500667 0.308678
C52   C     C_2   0.888430 0.728041 0.295443 0.915319
O39   O     O_2   0.802724 0.685220 0.327281 -0.656303
O40   O     O_R   0.827781 0.750273 0.238563 -0.710790
H43   H     H_    0.715843 0.722427 0.224941 0.379186
C53   C     C_2   0.273006 0.175648 0.648724 0.888143
O41   O     O_2   0.152689 0.124259 0.637136 -0.688082
O42   O     O_R   0.398116 0.168594 0.596432 -0.690305
H44   H     H_    0.379788 0.115713 0.553203 0.315165
N5    N     N_R   0.134624 0.883153 0.275409 0.305088
O43   O     O_R   0.260248 0.939349 0.286750 -0.332909
O44   O     O_R   0.994477 0.907646 0.274034 -0.252403
C54   C     C_2   0.414067 0.909239 0.636273 1.221437
O45   O     O_2   0.287920 0.868307 0.644908 -0.584390
O46   O     O_R   0.430582 0.997742 0.667684 -0.781719
H45   H     H_    0.330442 0.018892 0.695967 0.342939
N6    N     N_R   0.726904 0.666571 0.499914 0.256317
O47   O     O_R   0.804193 0.635001 0.539380 -0.367570
O48   O     O_R   0.684037 0.619738 0.435455 -0.368767
C55   C     C_2   0.063390 0.329551 0.480016 1.216516
O49   O     O_2   0.002909 0.343430 0.430084 -0.553153
O50   O     O_R   0.100065 0.394309 0.543794 -0.734617
H46   H     H_    0.127378 0.368621 0.582303 0.225584
N7    N     N_R   0.856961 0.335221 0.036112 0.248357
O51   O     O_R   0.964184 0.282400 0.014133 -0.259920
O52   O     O_R   0.724561 0.311852 0.067134 -0.419381
N8    N     N_R   0.796998 0.640672 0.078958 0.230523
O53   O     O_R   0.654068 0.662812 0.079815 -0.351557
O54   O     O_R   0.917134 0.700058 0.093590 -0.323830
N9    N     N_R   0.334351 0.271517 0.852393 0.269450
O55   O     O_R   0.232105 0.272920 0.906549 -0.321520
O56   O     O_R   0.467059 0.322657 0.864054 -0.334727
N10   N     N_R   0.329773 0.652940 0.773076 0.218141
O57   O     O_R   0.476644 0.635165 0.773387 -0.338702
O58   O     O_R   0.225977 0.636212 0.821557 -0.407134

loop_
_geom_bond_atom_site_label_1
_geom_bond_atom_site_label_2
_geom_bond_distance
_ccdc_geom_bond_type
C12   N4    1.462916 S    
N8    O53   1.300096 A    
C54   O45   1.215964 D    
C8    C9    1.536544 S    
C2    H4    1.105590 S    
C13   H22   1.106892 S    
O28   H41   1.014665 S    
C7    N1    1.463378 S    
N6    O47   1.290078 A    
C28   C29   1.399071 A    
C16   H28   1.097564 S    
C43   C44   1.407468 A    
N8    O54   1.299453 A    
Ba1   O16   2.815822 S    
C15   C16   1.548041 S    
O19   C13   1.411158 S    
C31   H39   1.079165 S    
P2    Ba1   3.395123 S    
C55   O49   1.206217 D    
C2    C3    1.537039 S    
C22   C24   1.515996 S    
O6    C10   1.406264 S    
P1    O1    1.535715 D    
C6    C7    1.568456 S    
C52   O40   1.396601 S    
P6    C30   1.869486 S    
P5    C44   1.868001 S    
N7    O52   1.299646 A    
C41   C42   1.397751 A    
C12   H20   1.107092 S    
C2    C53   1.502311 S    
C11   H18   1.102776 S    
C8    H12   1.102829 S    
C7    C50   1.529233 S    
P7    O22   1.766127 S    
C45   C46   1.409616 A    
C18   C55   1.439972 S    
C3    H21   1.113463 S    
C37   H33   1.080520 S    
C24   H30   1.084013 S    
O3    Ba1   2.829155 S    
N9    O55   1.300014 A    
N7    O51   1.300676 A    
Ba1   Ba2   4.638905 S    
Ba1   O20   2.946643 S    
O46   H45   1.013619 S    
C14   H24   1.109684 S    
N10   O58   1.300688 A    
C25   H31   1.082990 S    
P2    O10   1.753449 S    
P1    Ba1   3.423343 S    
C50   O28   1.398066 S    
C4    H6    1.107548 S    
N6    O48   1.288027 A    
C14   C51   1.502308 S    
C6    H9    1.097461 S    
C5    C49   1.505137 S    
H1    C10   1.114217 S    
N5    O44   1.300685 A    
C44   C48   1.389846 A    
C26   C27   1.409767 A    
P4    O13   1.610245 S    
C38   N7    1.433994 S    
P1    C29   1.877626 S    
C31   C36   1.393986 A    
P7    O21   1.587768 D    
C1    C10   1.518703 S    
C17   N6    1.417757 S    
C15   H26   1.109677 S    
P7    C45   1.869344 S    
C39   C40   1.424311 A    
C11   N3    1.465913 S    
O2    Ba2   2.876419 S    
C32   C33   1.407831 A    
O17   Ba2   2.805461 S    
P8    C21   1.848559 S    
P5    O17   1.761603 S    
C19   C54   1.489291 S    
O3    P6    1.763821 S    
P1    O5    1.759969 S    
P4    C20   1.891320 S    
H27   C16   1.109661 S    
N3    O34   1.305455 A    
C39   C47   1.516055 S    
C24   C25   1.346647 D    
O11   C2    1.410589 S    
O16   P7    1.793456 S    
C13   H23   1.108232 S    
C12   H19   1.109649 S    
C19   C20   1.378010 D    
C4    O15   1.404617 S    
C43   C47   1.417927 A    
P1    O2    1.610245 S    
C18   C30   1.405221 A    
N1    O30   1.301882 A    
C9    H14   1.109679 S    
C53   O42   1.395394 S    
C43   H36   1.078691 S    
C16   N5    1.465018 S    
P8    O24   1.764158 S    
C48   H38   1.073275 S    
C33   H34   1.082339 S    
C21   C22   1.513138 S    
P5    O19   1.753344 S    
C6    H10   1.104169 S    
C13   C14   1.537520 S    
C31   C32   1.391421 A    
N5    O43   1.300555 A    
C11   O22   1.405991 S    
C37   C42   1.401192 A    
P4    Ba2   3.423908 S    
C35   H37   1.080992 S    
C22   C23   1.517047 S    
C27   C30   1.414727 A    
C1    H3    1.113872 S    
C45   C48   1.396542 A    
P2    C32   1.855772 S    
O13   Ba2   2.936517 S    
P3    O11   1.757009 S    
C15   O24   1.409930 S    
P4    O12   1.536051 D    
C26   C28   1.406852 A    
C33   C34   1.416754 A    
P3    O8    1.768304 S    
C41   H35   1.083887 S    
O50   H46   1.009465 S    
Ba2   O21   2.826411 S    
C9    N2    1.458226 S    
O10   C8    1.395219 S    
P3    C36   1.854059 S    
O12   Ba2   2.887728 S    
C10   H16   1.114248 S    
C28   H29   1.079568 S    
P8    O23   1.540153 D    
C52   O39   1.214753 D    
C1    H2    1.112589 S    
P5    O18   1.548568 D    
O2    Ba1   2.935658 S    
O14   P8    1.760728 S    
C40   N8    1.426432 S    
C46   C47   1.422522 A    
C51   O37   1.220745 D    
P2    O7    1.538389 D    
O38   H42   1.011734 S    
C17   C20   1.487216 S    
C54   O46   1.402485 S    
N4    O35   1.302515 A    
O14   Ba2   2.828543 S    
C49   O25   1.222469 D    
C5    H8    1.108724 S    
C34   C42   1.496288 S    
C40   C41   1.404498 A    
O16   Ba2   2.945828 S    
Ba2   O20   2.815233 S    
C34   C35   1.411958 A    
C7    H11   1.109584 S    
C18   C29   1.395396 A    
C55   O50   1.381106 S    
N1    O29   1.300143 A    
C5    H7    1.105085 S    
O6    P6    1.746820 S    
C9    H15   1.110009 S    
C17   C21   1.354809 D    
N4    O36   1.301973 A    
O8    Ba1   2.804842 S    
N2    O31   1.301207 A    
C50   O27   1.222229 D    
C15   C52   1.503000 S    
Ba1   O13   2.875815 S    
C35   C36   1.403975 A    
C8    H13   1.108752 S    
C11   C12   1.534047 S    
C46   H32   1.078053 S    
C51   O38   1.396937 S    
O40   H43   1.008155 S    
C4    C5    1.545248 S    
C37   C38   1.409762 A    
N9    O56   1.301486 A    
C4    N10   1.467723 S    
P2    O20   1.567830 S    
P4    O15   1.764790 S    
O5    C6    1.398996 S    
O42   H44   1.009944 S    
C14   H25   1.109323 S    
N10   O57   1.308074 A    
P3    O9    1.539950 D    
C38   C39   1.425505 A    
N2    O32   1.298938 A    
C25   C27   1.490013 S    
C53   O41   1.223472 D    
O4    P6    1.544285 D    
O1    Ba1   2.887271 S    
C1    H17   1.110427 S    
O7    Ba1   2.826211 S    
C3    N9    1.460704 S    
C3    H5    1.111424 S    
C49   O26   1.396629 S    
C19   C23   1.515540 S    
N3    O33   1.302777 A    
O26   H40   1.013958 S    
