data_mof_unit_38933.cif
_audit_creation_date              2012-12-11T21:12:40-0500
_audit_creation_method            fapswitch 2.2
_symmetry_space_group_name_H-M    P1
_symmetry_Int_Tables_number       1
_space_group_crystal_system       triclinic
_cell_length_a                    8.202212
_cell_length_b                    18.816667
_cell_length_c                    26.973009
_cell_angle_alpha                 99.354484
_cell_angle_beta                  92.644246
_cell_angle_gamma                 88.346124
_cell_volume                      4102.26982973

loop_
_atom_site_label
_atom_site_type_symbol
_atom_type_description
_atom_site_fract_x
_atom_site_fract_y
_atom_site_fract_z
_atom_type_partial_charge
Ba1   Ba    Ba6+2 0.160810 0.465630 0.521640 1.640656
Ba2   Ba    Ba6+2 0.649380 0.534380 0.478400 1.640962
C1    C     C_3   0.397617 0.288839 0.701575 -0.315928
C2    C     C_R   0.065867 0.095780 0.448458 -0.089525
C3    C     C_R   0.203785 0.951811 0.455601 -0.100570
C4    C     C_3   0.950048 0.270829 0.625045 0.364268
C5    C     C_R   0.053846 0.976607 0.476692 0.018777
C6    C     C_R   0.259855 0.881249 0.454832 -0.093169
C7    C     C_R   0.169841 0.831755 0.475200 -0.031264
C8    C     C_R   0.023914 0.855757 0.499495 0.001748
C9    C     C_R   0.966231 0.928581 0.500660 0.023355
C10   C     C_R   0.221666 0.758915 0.472203 -0.011721
C11   C     C_R   0.125159 0.710449 0.491179 -0.294411
C12   C     C_3   0.416787 0.309918 0.650114 0.337814
C13   C     C_R   0.986436 0.733322 0.517830 0.041301
C14   C     C_R   0.936841 0.807195 0.523160 -0.038462
C15   C     C_R   0.846840 0.072146 0.500677 0.025327
C16   C     C_3   0.980920 0.197222 0.640476 -0.368469
C17   C     C_R   0.788541 0.144849 0.501557 -0.001972
C18   C     C_R   0.875219 0.193347 0.477747 -0.038886
C19   C     C_R   0.008131 0.166148 0.449186 -0.019938
C20   C     C_R   0.803969 0.834312 0.551734 -0.026417
C21   C     C_R   0.746860 0.904834 0.552742 -0.089655
C22   C     C_R   0.821555 0.952668 0.525786 0.012267
C23   C     C_3   0.468659 0.314208 0.398101 0.305659
C24   C     C_R   0.759202 0.024095 0.524615 0.018902
C25   C     C_R   0.608699 0.048699 0.545366 -0.102169
C26   C     C_R   0.641668 0.168625 0.525331 -0.034543
C27   C     C_R   0.551724 0.119037 0.545660 -0.091319
C28   C     C_3   0.841776 0.620985 0.631532 0.296848
C29   C     C_R   0.588344 0.241200 0.527575 -0.004541
C30   C     C_R   0.683845 0.289666 0.508267 -0.304479
C31   C     C_R   0.824584 0.267112 0.482651 0.045496
C32   C     C_R   0.287055 0.447463 0.173850 0.634170
C33   C     C_R   0.179802 0.567715 0.175524 0.581792
C34   C     C_3   0.469692 0.232823 0.382585 -0.378043
C35   C     C_2   0.027465 0.526731 0.268974 -0.062343
C36   C     C_3   0.991451 0.520298 0.322789 -0.051334
C37   C     C_1   0.278690 0.492107 0.336172 0.014327
C38   C     C_2   0.313610 0.494819 0.289124 -0.095345
C39   C     C_2   0.180730 0.512150 0.252364 0.194141
C40   C     C_3   0.843423 0.637939 0.688623 -0.357449
C41   C     C_R   0.297677 0.504059 0.098738 -0.152960
C42   C     C_R   0.330695 0.444184 0.123389 -0.125616
C43   C     C_R   0.407749 0.382704 0.097116 0.643961
C44   C     C_R   0.221086 0.566005 0.125049 -0.003713
C45   C     C_3   0.866285 0.722475 0.377815 0.350150
C46   C     C_2   0.146634 0.524722 0.355495 -0.289889
C47   C     C_2   0.647500 0.471448 0.637261 -0.292421
C48   C     C_R   0.451201 0.435259 0.969788 0.045914
C49   C     C_R   0.359979 0.561944 0.973353 0.018723
C50   C     C_R   0.427334 0.497452 0.946379 0.054706
C51   C     C_R   0.510684 0.371351 0.940509 -0.098660
C52   C     C_3   0.977773 0.368869 0.365498 0.285915
C53   C     C_R   0.551176 0.369379 0.890925 -0.060244
C54   C     C_R   0.533573 0.430811 0.867924 -0.024943
C55   C     C_R   0.471200 0.494970 0.895384 -0.084359
C56   C     C_3   0.872401 0.797020 0.363208 -0.361322
C57   C     C_R   0.452919 0.556510 0.871875 -0.034816
C58   C     C_R   0.498081 0.553122 0.821438 0.597628
C59   C     C_R   0.575506 0.428569 0.817646 0.575577
C60   C     C_2   0.735961 0.450999 0.724437 -0.082645
C61   C     C_3   0.748954 0.426423 0.668839 -0.047943
C62   C     C_1   0.520165 0.509388 0.656496 0.034143
C63   C     C_2   0.480783 0.513223 0.704289 -0.105006
C64   C     C_3   0.010271 0.338959 0.310803 -0.344496
C65   C     C_2   0.597219 0.485010 0.741757 0.191569
C66   C     C_R   0.413914 0.438486 0.021229 -0.062180
C67   C     C_3   0.354871 0.697608 0.350247 0.293310
C68   C     C_R   0.340906 0.501959 0.047704 0.046196
C69   C     C_R   0.310847 0.563337 0.023703 0.042422
C70   C     C_R   0.448700 0.380218 0.047455 -0.145552
C71   C     C_R   0.187728 0.625209 0.100485 -0.053636
C72   C     C_R   0.345202 0.623071 0.948818 -0.102034
C73   C     C_R   0.390743 0.620299 0.899367 -0.057631
C74   C     C_R   0.231365 0.624041 0.051090 -0.099627
C75   C     C_3   0.333190 0.685782 0.591955 0.315812
C76   C     C_3   0.339334 0.767085 0.607844 -0.382699
C77   C     C_3   0.390239 0.711839 0.298011 -0.343719
C78   C     C_R   0.991566 0.048059 0.475575 0.011968
F1    F     F_    0.445943 0.324181 0.119310 -0.647001
H1    H     H_    0.346121 0.360859 0.648502 0.091398
H2    H     H_    0.205027 0.670212 0.583561 0.003279
H3    H     H_    0.405555 0.670683 0.557905 0.066754
H4    H     H_    0.277185 0.264459 0.703732 0.147571
H5    H     H_    0.264018 0.783943 0.641083 0.128608
H6    H     H_    0.291586 0.794967 0.576864 0.057557
H7    H     H_    0.467365 0.783454 0.617583 0.120170
H8    H     H_    0.547973 0.318280 0.645508 -0.050449
H9    H     H_    0.404941 0.337594 0.730638 0.123227
H10   H     H_    0.596180 0.331535 0.407055 0.022873
H11   H     H_    0.395843 0.327733 0.432198 0.060433
H12   H     H_    0.750928 0.680772 0.700710 0.137322
H13   H     H_    0.544388 0.217078 0.349083 0.140500
H14   H     H_    0.522552 0.206471 0.413798 0.054591
H15   H     H_    0.343021 0.214039 0.373497 0.117378
H16   H     H_    0.495182 0.249430 0.709268 0.117418
H17   H     H_    0.911472 0.155965 0.614380 0.074097
H18   H     H_    0.761268 0.721602 0.402151 0.112753
H19   H     H_    0.980933 0.712232 0.399023 -0.045275
H20   H     H_    0.881404 0.838399 0.397518 0.077114
H21   H     H_    0.980312 0.800571 0.340396 0.121833
H22   H     H_    0.759669 0.807983 0.341024 0.139963
H23   H     H_    0.815051 0.589146 0.704376 0.070894
H24   H     H_    0.223323 0.708888 0.356641 -0.015871
H25   H     H_    0.384106 0.639991 0.351596 0.070246
H26   H     H_    0.317907 0.675219 0.269511 0.129714
H27   H     H_    0.521932 0.701941 0.290937 0.150386
H28   H     H_    0.994996 0.269082 0.586614 0.076678
H29   H     H_    0.357065 0.768501 0.294511 0.120731
H30   H     H_    0.163451 0.654403 0.487438 0.069976
H31   H     H_    0.374951 0.866199 0.437718 0.113534
H32   H     H_    0.070663 0.198758 0.426967 0.098547
H33   H     H_    0.741034 0.801464 0.573689 0.096455
H34   H     H_    0.966117 0.656431 0.703587 0.133088
H35   H     H_    0.435601 0.133692 0.562181 0.114272
H36   H     H_    0.643403 0.345340 0.510928 0.075492
H37   H     H_    0.283313 0.986070 0.439887 0.073260
H38   H     H_    0.168226 0.080111 0.425208 0.061675
H39   H     H_    0.644513 0.920505 0.576001 0.060851
H40   H     H_    0.815834 0.281042 0.624300 -0.068436
H41   H     H_    0.529106 0.014359 0.560987 0.072232
H42   H     H_    0.437080 0.483451 0.276814 0.116211
H43   H     H_    0.826620 0.431688 0.749975 0.119544
H44   H     H_    0.596427 0.318821 0.870491 0.125747
H45   H     H_    0.092454 0.389616 0.384825 0.022401
H46   H     H_    0.524872 0.320900 0.954298 0.077660
H47   H     H_    0.511171 0.331632 0.031011 0.110938
H48   H     H_    0.927414 0.536117 0.242885 0.104309
H49   H     H_    0.127475 0.673316 0.119542 0.121408
H50   H     H_    0.301113 0.674750 0.967021 0.073075
H51   H     H_    0.112618 0.182318 0.638991 0.146913
H52   H     H_    0.376550 0.668823 0.882628 0.124157
H53   H     H_    0.362899 0.535572 0.716286 0.129019
H54   H     H_    0.198371 0.671652 0.035246 0.070062
H55   H     H_    0.148947 0.552408 0.394136 0.069725
H56   H     H_    0.884399 0.412881 0.367193 0.042180
H57   H     H_    0.660549 0.459887 0.596885 0.086649
H58   H     H_    0.940342 0.197861 0.679263 0.122241
H59   H     H_    0.717670 0.605614 0.617091 0.011880
H60   H     H_    0.928603 0.575472 0.620600 0.080347
H61   H     H_    0.095702 0.291791 0.308893 0.152788
H62   H     H_    0.065866 0.379828 0.292083 0.081316
H63   H     H_    0.894040 0.321794 0.290162 0.130825
N1    N     N_R   0.215260 0.509185 0.199613 -0.438247
N2    N     N_R   0.557335 0.489294 0.794492 -0.422489
O1    O     O_2   0.106080 0.324280 0.466820 -0.468604
O2    O     O_2   0.659189 0.562700 0.332189 -0.492839
O3    O     O_3   0.849614 0.670932 0.334153 -0.594909
O4    O     O_3   0.859130 0.413620 0.470620 -0.482581
O5    O     O_3   0.459240 0.537930 0.559910 -0.490459
O6    O     O_2   0.583120 0.462390 0.379940 -0.462939
O7    O     O_3   0.400208 0.346699 0.358398 -0.628423
O8    O     O_2   0.561772 0.756670 0.478643 -0.493332
O9    O     O_3   0.451625 0.742523 0.385784 -0.607224
O10   O     O_2   0.311216 0.394991 0.194817 -0.509540
O11   O     O_2   0.627174 0.371897 0.794326 -0.620469
O12   O     O_3   0.396605 0.652773 0.631687 -0.623610
O13   O     O_2   0.113670 0.621619 0.198162 -0.600270
O14   O     O_2   0.486433 0.607284 0.801809 -0.596265
O15   O     O_3   0.376230 0.370290 0.556910 -0.487256
O16   O     O_2   0.248997 0.243242 0.520244 -0.487926
O17   O     O_3   0.919294 0.313021 0.387333 -0.642665
O18   O     O_3   0.357529 0.254795 0.612957 -0.610313
O19   O     O_2   0.227190 0.537650 0.620070 -0.465607
O20   O     O_3   0.971110 0.406970 0.583250 -0.482667
O21   O     O_2   0.084855 0.462989 0.675318 -0.498487
O22   O     O_3   0.032915 0.323766 0.659237 -0.593375
O23   O     O_2   0.704230 0.675760 0.533200 -0.467027
O24   O     O_3   0.951180 0.586390 0.529420 -0.490045
O25   O     O_3   0.434080 0.629720 0.443130 -0.474616
O26   O     O_3   0.886531 0.682496 0.612983 -0.639582
O27   O     O_3   0.351080 0.462080 0.440130 -0.477161
O28   O     O_3   0.839200 0.593040 0.416790 -0.486492
P1    P     P_3+3 0.929380 0.335110 0.452880 0.978333
P2    P     P_3+3 0.398530 0.559060 0.613740 0.993845
P3    P     P_3+3 0.961011 0.408145 0.647655 0.944352
P4    P     P_3+3 0.880940 0.664900 0.547160 0.975648
P5    P     P_3+3 0.833680 0.585469 0.351221 0.972872
P6    P     P_3+3 0.392961 0.276962 0.553938 0.935514
P7    P     P_3+3 0.399478 0.440325 0.376918 0.964756
P8    P     P_3+3 0.416559 0.722821 0.445502 0.927128

loop_
_geom_bond_atom_site_label_1
_geom_bond_atom_site_label_2
_ccdc_geom_bond_type
C76   H6    S    
Ba2   O4    S    
C53   C54   A    
Ba1   P2    S    
C47   C61   S    
C1    H4    S    
C40   H12   S    
Ba1   O24   S    
O25   P8    S    
C16   H51   S    
C17   C18   A    
C49   C72   A    
C30   H36   S    
C41   C42   A    
O17   P1    S    
C60   H43   S    
O9    P8    S    
C75   C76   S    
O19   P2    D    
C5    C9    A    
C52   H45   S    
Ba1   O27   S    
C24   C25   A    
C67   O9    S    
C28   H60   S    
C58   N2    Am   
C60   C65   D    
O24   P4    S    
C1    H9    S    
C15   C24   A    
C26   C27   A    
C22   C24   A    
C2    C78   A    
C6    H31   S    
Ba2   O27   S    
C69   C74   A    
C32   N1    Am   
O1    P1    D    
C55   C57   A    
C52   H56   S    
C64   H63   S    
C75   H2    S    
O26   P4    S    
C13   C14   A    
C9    C22   A    
O3    P5    S    
C45   H18   S    
C54   C55   A    
Ba1   Ba2   S    
C33   N1    Am   
C1    H16   S    
C51   H46   S    
C15   C17   A    
C74   H54   S    
C10   P8    S    
C45   O3    S    
C6    C7    A    
C63   C65   S    
C48   C50   A    
C21   C22   A    
C2    H38   S    
C68   C69   A    
C56   H21   S    
C52   O17   S    
C62   P2    S    
C7    C8    A    
O16   P6    D    
C63   H53   S    
O18   P6    S    
C75   O12   S    
C76   H5    S    
O4    P1    S    
O27   P7    S    
C57   C58   A    
C47   C62   D    
C47   H57   S    
C43   C70   A    
C12   O18   S    
C49   C69   A    
C65   N2    S    
C41   C44   A    
C25   H41   S    
C51   C53   A    
Ba2   O6    S    
C4    C16   S    
C4    O22   S    
C23   H10   S    
C48   C51   A    
C28   H59   S    
C72   C73   A    
C23   O7    S    
C49   C50   A    
C53   H44   S    
C32   C42   A    
C19   H32   S    
C8    C9    A    
C37   C38   D    
C3    C5    A    
C67   H24   S    
C64   H62   S    
Ba2   O23   S    
C75   H3    S    
C15   C78   A    
C45   H19   S    
O5    P2    S    
C59   N2    Am   
C12   H8    S    
C35   C36   S    
C59   O11   D    
C34   H15   S    
C29   C30   A    
Ba1   O19   S    
C66   C70   A    
C60   C61   S    
C77   H26   S    
Ba1   O4    S    
C56   H20   S    
C10   C11   A    
O15   P6    S    
C17   C26   A    
C28   O26   S    
C37   P7    S    
C1    C12   S    
Ba2   O24   S    
C64   H61   S    
C18   C31   A    
O12   P2    S    
C38   C39   S    
O21   P3    D    
C27   H35   S    
O7    P7    S    
C41   C68   A    
O20   P3    S    
C11   C13   A    
C71   C74   A    
C67   C77   S    
C12   H1    S    
C57   C73   A    
O23   P4    D    
C21   H39   S    
C5    C78   A    
C42   C43   A    
C76   H7    S    
Ba2   O5    S    
C38   H42   S    
C71   H49   S    
Ba1   P1    S    
C23   H11   S    
C14   C20   A    
C36   P5    S    
C77   H29   S    
C54   C59   A    
C3    H37   S    
C36   C46   S    
C46   H55   S    
C26   C29   A    
C43   F1    S    
C58   O14   D    
C40   H23   S    
C3    C6    A    
C67   H25   S    
C73   H52   S    
C52   C64   S    
C32   O10   D    
O2    P5    D    
C16   H17   S    
Ba2   O25   S    
C61   P3    S    
C29   P6    S    
C62   C63   D    
C11   H30   S    
C8    C14   A    
C30   C31   A    
C45   C56   S    
C2    C19   A    
C34   H14   S    
C25   C27   A    
Ba1   O20   S    
O8    P8    D    
C4    H28   S    
C35   H48   S    
C77   H27   S    
Ba1   O5    S    
C35   C39   D    
C16   H58   S    
C31   P1    S    
C7    C10   A    
C33   O13   D    
Ba1   O1    S    
C50   C55   A    
C23   C34   S    
Ba1   O15   S    
C34   H13   S    
C40   H34   S    
C20   H33   S    
C39   N1    S    
C18   C19   A    
C66   C68   A    
C13   P4    S    
C70   H47   S    
C20   C21   A    
C28   C40   S    
C56   H22   S    
Ba2   P4    S    
C4    H40   S    
O6    P7    D    
C72   H50   S    
C33   C44   A    
C48   C66   A    
O28   P5    S    
C44   C71   A    
Ba2   O28   S    
O22   P3    S    
C37   C46   D    
