data_mof_unit_21714.cif
_audit_creation_date              2012-12-10T16:47:18-0500
_audit_creation_method            fapswitch 2.2
_symmetry_space_group_name_H-M    P1
_symmetry_Int_Tables_number       1
_space_group_crystal_system       triclinic
_cell_length_a                    12.133662
_cell_length_b                    12.23312
_cell_length_c                    7.799703
_cell_angle_alpha                 90.000054
_cell_angle_beta                  94.387696
_cell_angle_gamma                 89.99983
_cell_volume                      1154.33668376

loop_
_atom_site_label
_atom_site_type_symbol
_atom_type_description
_atom_site_fract_x
_atom_site_fract_y
_atom_site_fract_z
_atom_type_partial_charge
C1    C     C_R   0.353364 0.852451 0.455465 0.856209
C2    C     C_2   0.738545 0.781646 0.567401 0.197500
C3    C     C_2   0.738541 0.218357 0.567403 0.197496
C4    C     C_2   0.261459 0.781643 0.432596 0.197489
C5    C     C_2   0.761456 0.718355 0.432598 0.197500
C6    C     C_2   0.238544 0.281645 0.567402 0.197488
C7    C     C_2   0.238541 0.718357 0.567404 0.197492
C8    C     C_2   0.761458 0.281643 0.432597 0.197495
C9    C     C_R   0.646636 0.147549 0.544535 0.856208
C10   C     C_R   0.646636 0.852452 0.544535 0.856210
C11   C     C_R   0.353365 0.147549 0.455465 0.856216
C12   C     C_R   0.853364 0.352451 0.455465 0.856207
C13   C     C_R   0.146636 0.647549 0.544535 0.856211
C14   C     C_R   0.146636 0.352451 0.544535 0.856211
C15   C     C_R   0.853364 0.647549 0.455465 0.856212
C16   C     C_2   0.261458 0.218357 0.432597 0.197498
H1    H     H_    0.717579 0.654920 0.206412 0.366144
H2    H     H_    0.305674 1.000000 0.908141 0.347937
H3    H     H_    0.194326 0.500000 0.091859 0.347938
H4    H     H_    0.805674 0.500000 0.908141 0.347936
H5    H     H_    0.282411 0.345066 0.793602 0.366153
H6    H     H_    0.282408 0.654937 0.793609 0.366151
H7    H     H_    0.717590 0.345065 0.206396 0.366149
H8    H     H_    0.217592 0.154936 0.206397 0.366150
H9    H     H_    0.782426 0.845084 0.793586 0.366142
H10   H     H_    0.782409 0.154935 0.793604 0.366149
H11   H     H_    0.217593 0.845061 0.206390 0.366152
H12   H     H_    0.694326 0.000000 0.091859 0.347936
N1    N     N_2   0.541470 1.000000 0.055820 0.205677
N2    N     N_2   0.458530 1.000000 0.944180 0.205677
N3    N     N_2   0.041470 0.500000 0.055820 0.205677
N4    N     N_2   0.958530 0.500000 0.944180 0.205676
O1    O     O_R   0.375700 0.885870 0.609240 -0.583742
O2    O     O_R   0.597720 0.114130 0.675960 -0.590159
O3    O     O_R   0.597720 0.885870 0.675960 -0.590156
O4    O     O_R   0.402280 0.114130 0.324040 -0.590162
O5    O     O_R   0.902280 0.385870 0.324040 -0.590160
O6    O     O_R   0.097720 0.614130 0.675960 -0.590156
O7    O     O_R   0.097720 0.385870 0.675960 -0.590164
O8    O     O_R   0.902280 0.614130 0.324040 -0.590158
O9    O     O_3   0.691500 0.712488 0.283076 -0.747520
O10   O     O_3   0.308499 0.287509 0.716930 -0.747521
O11   O     O_3   0.308487 0.712503 0.716942 -0.747509
O12   O     O_R   0.624300 0.114130 0.390760 -0.583744
O13   O     O_3   0.691509 0.287501 0.283063 -0.747515
O14   O     O_3   0.191508 0.212498 0.283066 -0.747522
O15   O     O_3   0.808504 0.787516 0.716922 -0.747519
O16   O     O_3   0.808490 0.212500 0.716937 -0.747517
O17   O     O_3   0.191512 0.787497 0.283058 -0.747511
O18   O     O_3   0.640181 1.000000 0.990220 -0.658020
O19   O     O_3   0.359819 1.000000 0.009780 -0.658022
O20   O     O_3   0.140181 0.500000 0.990220 -0.658020
O21   O     O_3   0.859819 0.500000 0.009780 -0.658020
O22   O     O_R   0.624300 0.885870 0.390760 -0.583748
O23   O     O_R   0.375700 0.114130 0.609240 -0.583748
O24   O     O_R   0.875700 0.385870 0.609240 -0.583743
O25   O     O_R   0.124300 0.614130 0.390760 -0.583743
O26   O     O_R   0.124300 0.385870 0.390760 -0.583742
O27   O     O_R   0.875700 0.614130 0.609240 -0.583749
O28   O     O_R   0.402280 0.885870 0.324040 -0.590158
Zn1   Zn    Zn3+2 0.482250 1.000000 0.690430 1.107540
Zn2   Zn    Zn3+2 0.517750 1.000000 0.309570 1.107539
Zn3   Zn    Zn3+2 0.982250 0.500000 0.690430 1.107539
Zn4   Zn    Zn3+2 0.017750 0.500000 0.309570 1.107540

loop_
_geom_bond_atom_site_label_1
_geom_bond_atom_site_label_2
_ccdc_geom_bond_type
N2    O19   S    
N1    N2    D    
H7    O13   S    
C7    O11   S    
C2    O15   S    
C6    C14   S    
O7    Zn3   S    
C11   C16   S    
H9    O15   S    
N3    Zn4   S    
O27   Zn3   S    
N3    N4    D    
O8    Zn4   S    
N3    O20   S    
H10   O16   S    
C4    O17   S    
C8    C12   S    
C1    C4    S    
H8    O14   S    
C3    O16   S    
O24   Zn3   S    
C1    O1    A    
O3    Zn1   S    
C13   O6    A    
C12   O24   A    
H12   O18   S    
C4    C7    D    
C3    C9    S    
O23   Zn1   S    
O1    Zn1   S    
C11   O4    A    
C1    O28   A    
H2    O19   S    
O6    Zn3   S    
H1    O9    S    
N1    O18   S    
O26   Zn4   S    
C9    O2    A    
C10   O22   A    
C10   O3    A    
O4    Zn2   S    
C15   O8    A    
C5    C15   S    
C2    C5    D    
C13   O25   A    
C6    C16   D    
H5    O10   S    
C2    C10   S    
N4    O21   S    
C7    C13   S    
O5    Zn4   S    
C11   O23   A    
O25   Zn4   S    
O28   Zn2   S    
C3    C8    D    
C6    O10   S    
N2    Zn1   S    
C16   O14   S    
C12   O5    A    
C5    O9    S    
N1    Zn2   S    
C9    O12   A    
O22   Zn2   S    
O12   Zn2   S    
C14   O7    A    
C8    O13   S    
C15   O27   A    
H3    O20   S    
O2    Zn1   S    
H11   O17   S    
N4    Zn3   S    
H4    O21   S    
H6    O11   S    
C14   O26   A    
