data_mof_unit_43092.cif
_audit_creation_date              2013-03-05T16:44:41-0500
_audit_creation_method            fapswitch 2.2
_symmetry_space_group_name_H-M    P1
_symmetry_Int_Tables_number       1
_space_group_crystal_system       triclinic
_cell_length_a                    27.695909
_cell_length_b                    10.643245
_cell_length_c                    9.880156
_cell_angle_alpha                 89.806948
_cell_angle_beta                  89.374405
_cell_angle_gamma                 90.759947
_cell_volume                      2911.96876191

loop_
_atom_site_label
_atom_site_type_symbol
_atom_site_description
_atom_site_fract_x
_atom_site_fract_y
_atom_site_fract_z
_atom_type_partial_charge
O1    O     O_R   0.500010 0.316790 0.614690 -0.587787
O2    O     O_R   0.500000 0.316760 0.385350 -0.617882
C1    C     C_R   0.498507 0.259911 0.500290 0.974496
O3    O     O_R   0.428760 0.500040 0.614660 -0.581242
O4    O     O_R   0.428750 0.500000 0.385310 -0.637473
C2    C     C_R   0.406078 0.500453 0.500195 0.944677
Zn1   Zn    Zn3+2 0.500000 0.500020 0.653130 1.025657
Zn2   Zn    Zn3+2 0.500000 0.499980 0.346870 0.970368
O5    O     O_R   0.500000 0.683240 0.614650 -0.597874
O6    O     O_R   0.499990 0.683210 0.385310 -0.630372
O7    O     O_R   0.571250 0.500000 0.614690 -0.553507
O8    O     O_R   0.571240 0.499960 0.385340 -0.657741
C3    C     C_R   0.496430 0.739585 0.500087 0.863690
C4    C     C_R   0.594073 0.499248 0.499467 0.944540
C5    C     C_R   0.179093 0.414248 0.415338 0.596668
O9    O     O_2   0.204799 0.312404 0.379810 -0.525940
N1    N     N_R   0.202293 0.520876 0.457903 -0.331213
C6    C     C_R   0.177780 0.628648 0.484801 0.565599
C7    C     C_R   0.282956 0.583948 0.382904 -0.166329
C8    C     C_R   0.332614 0.577079 0.392983 -0.293313
C9    C     C_R   0.324142 0.444030 0.593463 0.309145
C10   C     C_R   0.273267 0.447438 0.579866 0.398991
C11   C     C_R   0.253375 0.519164 0.475132 0.228536
C12   C     C_R   0.102444 0.516764 0.448152 -0.058036
C13   C     C_R   0.128688 0.410238 0.409824 -0.020552
C14   C     C_R   0.104167 0.303741 0.363945 -0.161726
C15   C     C_R   0.127338 0.629051 0.478223 -0.071289
C16   C     C_R   0.353467 0.507290 0.497223 -0.099913
H1    H     H_    0.123569 0.223796 0.324521 0.197241
C17   C     C_R   0.647084 0.498126 0.497487 -0.132716
C18   C     C_R   0.975481 0.390072 0.437904 0.023268
C19   C     C_R   0.975636 0.609398 0.521465 -0.055701
C20   C     C_R   0.950330 0.499376 0.480030 -0.040796
C21   C     C_R   0.948282 0.276352 0.420358 0.426435
C22   C     C_R   0.897783 0.280410 0.415136 -0.228982
C23   C     C_R   0.873249 0.390601 0.444447 -0.065252
C24   C     C_R   0.899277 0.498052 0.484620 -0.057703
C25   C     C_R   0.874099 0.603978 0.530921 -0.120189
C26   C     C_R   0.823637 0.603101 0.528047 0.584802
N2    N     N_R   0.799285 0.499350 0.483120 -0.325968
C27   C     C_R   0.822736 0.393597 0.443052 0.603356
C28   C     C_R   0.722156 0.523603 0.368566 0.531267
C29   C     C_R   0.671649 0.523183 0.374818 -0.411533
C30   C     C_R   0.673455 0.472188 0.615785 0.462479
C31   C     C_R   0.723941 0.473129 0.608543 -0.315323
C32   C     C_R   0.747868 0.498677 0.486377 0.235791
O10   O     O_2   0.797152 0.291600 0.403402 -0.527460
C33   C     C_R   0.026650 0.397750 0.422269 0.087422
C34   C     C_R   0.051427 0.511180 0.455833 0.009896
C35   C     C_R   0.025829 0.619962 0.494447 -0.017869
C36   C     C_R   0.054096 0.299592 0.364938 -0.128181
O11   O     O_2   0.202116 0.734106 0.519896 -0.536658
C37   C     C_R   0.101557 0.739594 0.495877 -0.252130
C38   C     C_R   0.949521 0.702672 0.594155 0.511430
C39   C     C_R   0.899499 0.704146 0.588166 -0.138112
O12   O     O_2   0.798985 0.704556 0.570288 -0.535224
C40   C     C_R   0.050991 0.737389 0.495083 0.429789
C41   C     C_R   0.494816 0.063121 0.623192 -0.040743
C42   C     C_R   0.490015 0.128366 0.502409 -0.203872
C43   C     C_R   0.472794 0.066051 0.387495 -0.173946
C44   C     C_R   0.468853 0.935871 0.388136 0.451505
C45   C     C_R   0.485645 0.870190 0.503156 -0.274878
C46   C     C_R   0.492764 0.935204 0.623833 0.089851
C47   C     C_3   0.530948 0.924701 0.729621 0.159411
C48   C     C_3   0.533422 0.067920 0.728538 0.227492
C49   C     C_R   0.473310 0.412802 0.072832 0.055076
N3    N     N_R   0.499670 0.499140 0.142800 -0.183641
C50   C     C_R   0.530227 0.578171 0.068142 0.459370
C51   C     C_R   0.530065 0.576718 0.925144 -0.007688
N4    N     N_R   0.499670 0.499180 0.857150 -0.134929
C52   C     C_R   0.473133 0.413302 0.930201 0.088349
C53   C     C_3   0.419698 0.396324 0.925609 -0.490107
C54   C     C_3   0.419664 0.396314 0.079602 0.254458
H2    H     H_    0.400748 0.477549 0.125349 0.158766
O13   O     O_3   0.345905 0.377612 0.695530 -0.777751
H3    H     H_    0.324140 0.375961 0.775695 0.344345
H4    H     H_    0.267282 0.637610 0.301473 0.182691
H5    H     H_    0.120619 0.828600 0.505815 0.196679
O14   O     O_3   0.970788 0.785365 0.683503 -0.701371
H6    H     H_    0.000628 0.746602 0.717844 0.340326
O15   O     O_3   0.649592 0.444770 0.736118 -0.716734
H7    H     H_    0.673590 0.429193 0.807840 0.342904
H8    H     H_    0.880513 0.780105 0.637377 0.215296
H9    H     H_    0.744990 0.453620 0.697813 0.164253
O16   O     O_3   0.025877 0.848451 0.484972 -0.703214
H10   H     H_    0.048898 0.920645 0.484052 0.353081
H11   H     H_    0.463797 0.117299 0.296556 0.204892
O17   O     O_3   0.451056 0.877716 0.274290 -0.718449
H12   H     H_    0.433981 0.799684 0.303457 0.339568
O18   O     O_3   0.511384 0.877110 0.850934 -0.724300
H13   H     H_    0.538141 0.879370 0.916863 0.359803
O19   O     O_3   0.242047 0.380397 0.663711 -0.743801
H14   H     H_    0.258442 0.303845 0.695469 0.358296
H15   H     H_    0.564087 0.875706 0.694454 0.115616
H16   H     H_    0.521243 0.113072 0.824121 0.174180
O20   O     O_3   0.577899 0.116994 0.680237 -0.726191
H17   H     H_    0.586097 0.075304 0.593292 0.332629
O21   O     O_3   0.561275 0.663172 0.126864 -0.770543
H18   H     H_    0.559322 0.653115 0.225083 0.391072
H19   H     H_    0.553717 0.639844 0.868557 0.177556
H20   H     H_    0.401590 0.479748 0.882504 0.223149
H21   H     H_    0.409251 0.304713 0.880038 0.245962
O22   O     O_3   0.405040 0.280736 0.137566 -0.707088
H22   H     H_    0.424135 0.212631 0.095228 0.346651
H23   H     H_    0.651619 0.543392 0.283893 0.201670
O23   O     O_3   0.747244 0.548601 0.249777 -0.730985
H24   H     H_    0.723838 0.563951 0.176482 0.343308
H25   H     H_    0.877553 0.194785 0.394947 0.196361
O24   O     O_3   0.970552 0.160915 0.421320 -0.765583
H26   H     H_    0.946232 0.092455 0.411038 0.361978
H27   H     H_    0.038239 0.219923 0.314805 0.216366
H28   H     H_    0.354907 0.627031 0.319165 0.179349

loop_
_geom_bond_atom_site_label_1
_geom_bond_atom_site_label_2
_geom_bond_distance
_ccdc_geom_bond_type
C54   H2    1.111662 S    
C7    C8    1.382887 A    
C12   C15   1.406020 A    
C47   O18   1.400437 S    
Zn1   N4    2.015660 S    
O15   H7    0.991873 S    
C6    O11   1.349808 S    
C31   C32   1.394814 A    
Zn1   O7    2.005476 S    
C45   C46   1.395119 A    
C23   C24   1.404454 A    
C28   C32   1.397635 A    
O4    C2    1.291227 A    
O7    C4    1.296188 A    
C5    C13   1.397761 A    
O23   H24   0.991779 S    
C5    O9    1.350052 S    
C41   C46   1.361875 A    
Zn1   O5    1.985512 S    
C21   C22   1.401379 A    
C29   H23   1.083418 S    
C7    H4    1.083080 S    
O5    C3    1.284543 A    
C22   H25   1.083673 S    
C8    H28   1.083794 S    
C33   C36   1.416245 A    
C2    C16   1.460516 S    
C3    C45   1.426017 S    
C26   O12   1.350079 S    
C50   C51   1.413034 A    
C18   C20   1.424868 A    
N4    C52   1.364809 A    
C49   N3    1.361169 A    
C42   C43   1.401765 A    
C9    C10   1.417810 A    
C17   C30   1.413365 A    
C23   C27   1.400012 A    
C51   N4    1.355965 A    
C4    C17   1.468293 S    
O3    Zn1   2.013407 S    
C19   C38   1.427213 A    
C43   H11   1.082632 S    
C48   O20   1.409375 S    
C25   C39   1.394358 A    
N3    C50   1.389665 A    
C12   C13   1.405668 A    
O3    C2    1.299694 A    
C30   O15   1.382339 S    
C26   N2    1.364320 A    
C37   C40   1.400487 A    
C8    C16   1.401862 A    
C41   C42   1.387197 A    
O16   H10   0.991896 S    
C49   C54   1.494547 S    
C20   C24   1.414076 A    
O14   H6    0.991227 S    
C43   C44   1.388373 A    
O1    C1    1.284815 A    
C22   C23   1.392877 A    
C7    C11   1.393351 A    
O13   H3    0.990047 S    
C24   C25   1.408519 A    
C44   O17   1.378407 S    
C41   C48   1.500820 S    
C49   C52   1.409269 A    
C48   H16   1.112187 S    
Zn2   O8    2.013407 S    
O20   H17   0.993661 S    
N1    C6    1.366024 A    
C27   O10   1.350015 S    
C18   C21   1.429174 A    
N1    C11   1.427165 S    
C28   O23   1.380670 S    
C19   C35   1.415618 A    
C14   H1    1.083627 S    
N2    C27   1.364642 A    
C9    C16   1.407621 A    
O8    C4    1.298883 A    
C34   C35   1.416866 A    
C18   C33   1.425135 A    
C17   C29   1.406389 A    
C31   H9    1.083554 S    
C28   C29   1.399468 A    
N2    C32   1.423978 S    
C39   H8    1.083885 S    
C30   C31   1.399203 A    
C38   O14   1.379739 S    
C12   C34   1.414625 A    
C5    N1    1.366544 A    
C38   C39   1.387624 A    
C33   C34   1.422679 A    
C36   H27   1.074673 S    
O1    Zn1   1.988060 S    
C35   C40   1.422918 A    
O2    Zn2   1.985513 S    
C6    C15   1.399336 A    
C53   C54   1.521460 S    
O6    C3    1.288196 A    
O4    Zn2   2.005479 S    
C15   C37   1.394784 A    
C9    O13   1.378308 S    
C47   C48   1.524946 S    
C37   H5    1.083620 S    
C13   C14   1.393274 A    
C47   H15   1.114434 S    
C52   C53   1.489732 S    
C14   C36   1.386806 A    
C19   C20   1.420493 A    
O18   H13   0.992077 S    
C25   C26   1.398078 A    
C53   H21   1.111517 S    
O19   H14   0.989785 S    
C40   O16   1.383318 S    
O2    C1    1.284962 A    
C44   C45   1.418166 A    
C50   O21   1.374138 S    
C46   C47   1.499942 S    
C51   H19   1.082083 S    
C54   O22   1.407910 S    
O17   H12   0.990670 S    
Zn2   N3    2.016413 S    
Zn2   O6    1.988059 S    
O21   H18   0.976778 S    
C53   H20   1.111392 S    
O22   H22   0.993722 S    
C21   O24   1.382088 S    
C10   O19   1.380953 S    
C10   C11   1.405471 A    
O24   H26   0.991909 S    
C1    C42   1.416639 S    
