data_mof_unit_24058.cif
_audit_creation_date              2012-12-10T19:21:56-0500
_audit_creation_method            fapswitch 2.2
_symmetry_space_group_name_H-M    P1
_symmetry_Int_Tables_number       1
_space_group_crystal_system       triclinic
_cell_length_a                    8.784585
_cell_length_b                    17.756087
_cell_length_c                    16.465841
_cell_angle_alpha                 90.219149
_cell_angle_beta                  97.075395
_cell_angle_gamma                 90.837028
_cell_volume                      2548.46849084

loop_
_atom_site_label
_atom_site_type_symbol
_atom_type_description
_atom_site_fract_x
_atom_site_fract_y
_atom_site_fract_z
_atom_type_partial_charge
C1    C     C_R   0.504846 0.355215 0.499735 0.798863
C2    C     C_R   0.495153 0.644785 0.500265 0.798863
C3    C     C_1   0.497988 0.966253 0.499613 -0.051794
C4    C     C_1   0.502012 0.033746 0.500387 -0.051794
C5    C     C_R   0.604440 0.549713 0.834786 0.012390
C6    C     C_R   0.395559 0.450286 0.165214 0.012390
C7    C     C_R   0.599388 0.547079 0.748244 -0.023742
C8    C     C_R   0.400612 0.452921 0.251756 -0.023741
C9    C     C_R   0.402167 0.454288 0.738694 0.597682
C10   C     C_R   0.597832 0.545712 0.261306 0.597681
C11   C     C_R   0.403152 0.455181 0.824130 -0.318977
C12   C     C_R   0.596846 0.544819 0.175869 -0.318977
C13   C     C_R   0.503909 0.502616 0.873574 0.049758
C14   C     C_R   0.496089 0.497384 0.126426 0.049759
C15   C     C_1   0.501684 0.501033 0.962953 -0.023078
C16   C     C_1   0.498314 0.498966 0.037047 -0.023078
C17   C     C_R   0.204088 0.499310 0.479868 0.888015
C18   C     C_R   0.795912 0.500690 0.520132 0.888015
C19   C     C_2   0.041125 0.489208 0.470026 0.128729
C20   C     C_2   0.958875 0.510792 0.529974 0.128729
C21   C     C_R   0.439056 0.848252 0.564675 -0.146770
C22   C     C_R   0.560944 0.151748 0.435325 -0.146770
C23   C     C_R   0.434196 0.768990 0.567220 0.068153
C24   C     C_R   0.565804 0.231010 0.432780 0.068153
C25   C     C_R   0.488717 0.728038 0.501757 -0.077752
C26   C     C_R   0.511283 0.271962 0.498243 -0.077752
C27   C     C_R   0.539598 0.767497 0.436039 -0.177914
C28   C     C_R   0.460401 0.232503 0.563961 -0.177914
C29   C     C_R   0.541932 0.845750 0.435030 -0.160805
C30   C     C_R   0.458067 0.154250 0.564970 -0.160805
C31   C     C_R   0.492899 0.885836 0.499532 0.107987
C32   C     C_R   0.507101 0.114164 0.500468 0.107987
Cu1   Cu    Cu3+1 0.499990 0.499980 0.580420 1.026597
Cu2   Cu    Cu3+1 0.500010 0.500020 0.419580 1.026597
H1    H     H_    0.401843 0.882006 0.613117 0.125619
H2    H     H_    0.598157 0.117994 0.386883 0.125619
H3    H     H_    0.580190 0.737770 0.385593 0.203437
H4    H     H_    0.419808 0.262230 0.614406 0.203437
H5    H     H_    0.583228 0.875011 0.384209 0.143552
H6    H     H_    0.416770 0.124989 0.615791 0.143552
H7    H     H_    0.675345 0.583259 0.718338 0.162832
H8    H     H_    0.324655 0.416740 0.281663 0.162833
H9    H     H_    0.324835 0.418437 0.851938 0.177263
H10   H     H_    0.675162 0.581563 0.148061 0.177262
N1    N     N_R   0.499960 0.499970 0.701210 -0.210591
N2    N     N_R   0.500040 0.500030 0.298790 -0.210590
O1    O     O_R   0.499990 0.391240 0.567930 -0.545757
O2    O     O_R   0.500010 0.608760 0.432070 -0.545757
O3    O     O_R   0.500000 0.391270 0.432120 -0.609987
O4    O     O_R   0.500000 0.608730 0.567880 -0.609987
O5    O     O_R   0.274830 0.499990 0.552240 -0.513203
O6    O     O_R   0.725170 0.500010 0.447760 -0.513203
O7    O     O_R   0.274840 0.500020 0.416420 -0.566817
O8    O     O_R   0.725160 0.499980 0.583580 -0.566816
Cl1   Cl    Cl    0.964453 0.437841 0.381102 -0.643859
Cl2   Cl    Cl    0.035547 0.562159 0.618897 -0.643859
C33   C     C_3   0.370559 0.728275 0.637809 -0.355828
C34   C     C_3   0.292820 0.777556 0.697285 -0.405436
C35   C     C_3   0.222653 0.729425 0.760239 -0.782734
H11   H     H_    0.129030 0.692909 0.729550 0.296754
H12   H     H_    0.311175 0.693573 0.794256 0.247618
H13   H     H_    0.173906 0.766537 0.804604 0.231240
H14   H     H_    0.379022 0.816564 0.730758 0.215653
H15   H     H_    0.200083 0.810778 0.662834 0.233659
H16   H     H_    0.284123 0.685836 0.611114 0.249430
H17   H     H_    0.466329 0.698896 0.674486 0.210398
C36   C     C_3   0.629442 0.271725 0.362191 -0.355828
C37   C     C_3   0.707182 0.222444 0.302716 -0.405438
C38   C     C_3   0.777352 0.270575 0.239763 -0.782735
H18   H     H_    0.688831 0.306427 0.205746 0.247620
H19   H     H_    0.870976 0.307089 0.270453 0.296755
H20   H     H_    0.826099 0.233462 0.195397 0.231240
H21   H     H_    0.799917 0.189221 0.337167 0.233659
H22   H     H_    0.620980 0.183436 0.269242 0.215653
H23   H     H_    0.533672 0.301104 0.325514 0.210397
H24   H     H_    0.715878 0.314164 0.388887 0.249430
C39   C     C_3   0.716891 0.602729 0.883647 -0.395811
C40   C     C_3   0.637486 0.674985 0.905644 -0.353758
C41   C     C_3   0.748853 0.727619 0.957746 -0.822393
H25   H     H_    0.793304 0.699821 0.016041 0.258958
H26   H     H_    0.846514 0.743519 0.924080 0.252778
H27   H     H_    0.688577 0.779604 0.972221 0.242886
H28   H     H_    0.592140 0.704655 0.848592 0.217787
H29   H     H_    0.539830 0.661107 0.940199 0.230154
H30   H     H_    0.769472 0.574248 0.940048 0.210875
H31   H     H_    0.812165 0.617727 0.847724 0.202960
C42   C     C_3   0.283108 0.397271 0.116353 -0.395820
C43   C     C_3   0.362509 0.325012 0.094364 -0.353759
C44   C     C_3   0.251138 0.272373 0.042271 -0.822388
H32   H     H_    0.153483 0.256474 0.075943 0.252774
H33   H     H_    0.206676 0.300166 0.983974 0.258958
H34   H     H_    0.311414 0.220388 0.027797 0.242885
H35   H     H_    0.460161 0.338886 0.059805 0.230153
H36   H     H_    0.407859 0.295348 0.151418 0.217788
H37   H     H_    0.187829 0.382277 0.152275 0.202966
H38   H     H_    0.230534 0.425748 0.059950 0.210875
Cl3   Cl    Cl    0.270731 0.392418 0.682779 -0.605021
Cl4   Cl    Cl    0.729268 0.607582 0.317220 -0.605020

loop_
_geom_bond_atom_site_label_1
_geom_bond_atom_site_label_2
_ccdc_geom_bond_type
C42   C43   S    
C9    N1    A    
C27   C29   A    
Cu1   N1    S    
C19   C20   D    
C33   H17   S    
C20   Cl2   S    
C17   O5    A    
C18   O6    A    
C39   C40   S    
C21   C31   A    
C22   C32   A    
C7    N1    A    
C24   C26   A    
C37   H22   S    
C15   C16   T    
C34   H14   S    
C18   C20   S    
C38   H19   S    
C10   Cl4   S    
C2    O4    A    
C24   C36   S    
C40   H28   S    
C37   C38   S    
C35   H13   S    
C42   H37   S    
C10   N2    A    
C11   H9    S    
Cu2   N2    S    
C44   H33   S    
C5    C13   A    
C37   H21   S    
C23   C25   A    
C39   H30   S    
C35   H11   S    
C21   C23   A    
C34   H15   S    
C43   H36   S    
C35   H12   S    
C36   C37   S    
C33   H16   S    
C41   H26   S    
C40   C41   S    
C1    O1    A    
C6    C8    A    
C2    O2    A    
C34   C35   S    
C6    C42   S    
C38   H20   S    
C6    C14   A    
C28   H4    S    
C42   H38   S    
C29   H5    S    
Cu1   Cu2   S    
C30   H6    S    
C44   H34   S    
C3    C31   S    
C9    C11   A    
C4    C32   S    
C10   C12   A    
C12   C14   A    
C39   H31   S    
C13   C15   S    
C1    C26   S    
Cu1   O1    S    
C14   C16   S    
Cu2   O2    S    
C5    C39   S    
C3    C4    T    
C17   O7    A    
C5    C7    A    
C19   Cl1   S    
Cu1   O8    S    
C23   C33   S    
C43   H35   S    
Cu2   O3    S    
C9    Cl3   S    
Cu2   O6    S    
C8    H8    S    
C41   H27   S    
C21   H1    S    
Cu1   O5    S    
C22   H2    S    
C26   C28   A    
C28   C30   A    
Cu1   O4    S    
C12   H10   S    
C30   C32   A    
C11   C13   A    
C33   C34   S    
C27   H3    S    
C17   C19   S    
C2    C25   S    
C22   C24   A    
C7    H7    S    
C38   H18   S    
C8    N2    A    
C18   O8    A    
C41   H25   S    
C40   H29   S    
C36   H23   S    
C43   C44   S    
Cu2   O7    S    
C29   C31   A    
C36   H24   S    
C44   H32   S    
C1    O3    A    
C25   C27   A    
