data_mof_unit_58693.cif
_audit_creation_date              2012-12-10T17:18:54-0500
_audit_creation_method            fapswitch 2.2
_symmetry_space_group_name_H-M    P1
_symmetry_Int_Tables_number       1
_space_group_crystal_system       triclinic
_cell_length_a                    10.273514
_cell_length_b                    10.572212
_cell_length_c                    13.693978
_cell_angle_alpha                 93.256906
_cell_angle_beta                  100.430331
_cell_angle_gamma                 93.451764
_cell_volume                      1456.6458972

loop_
_atom_site_label
_atom_site_type_symbol
_atom_type_description
_atom_site_fract_x
_atom_site_fract_y
_atom_site_fract_z
_atom_type_partial_charge
C1    C     C_R   0.046086 0.733277 0.487179 0.955960
C2    C     C_2   0.946541 0.060039 0.420157 0.380700
C3    C     C_2   0.428546 0.517929 0.502362 0.052057
C4    C     C_2   0.569982 0.492916 0.487534 0.052232
C5    C     C_R   0.092315 0.509659 0.685733 0.873408
C6    C     C_R   0.907221 0.488546 0.313953 0.974850
C7    C     C_R   0.138290 0.508475 0.793192 -0.222957
C8    C     C_R   0.859502 0.481567 0.205915 -0.144117
C9    C     C_R   0.130032 0.577239 0.963338 -0.316382
C10   C     C_R   0.870654 0.409648 0.036404 -0.310604
C11   C     C_R   0.071535 0.568443 0.862333 0.421590
C12   C     C_R   0.949377 0.266433 0.504393 0.970681
C13   C     C_R   0.929444 0.424564 0.137589 0.386883
C14   C     C_R   0.257722 0.453060 0.826717 0.322639
C15   C     C_R   0.738892 0.531758 0.171024 0.310093
C16   C     C_R   0.329602 0.490872 0.921811 0.006324
C17   C     C_R   0.668194 0.491039 0.075524 -0.082934
C18   C     C_R   0.259329 0.540624 0.993435 -0.053589
C19   C     C_R   0.739437 0.440323 0.004961 -0.028853
C20   C     C_R   0.467778 0.478130 0.948282 0.048853
C21   C     C_R   0.529481 0.499042 0.049164 0.007809
C22   C     C_3   0.299304 0.688579 0.226285 0.098772
C23   C     C_R   0.450023 0.521862 0.121516 -0.353661
C24   C     C_3   0.188650 0.762987 0.254638 -0.811747
C25   C     C_3   0.688916 0.291321 0.764875 0.164540
C26   C     C_3   0.790932 0.208985 0.731261 -0.843072
C27   C     C_3   0.947095 0.027474 0.250235 0.095552
C28   C     C_3   0.947367 0.094291 0.155223 -0.837021
C29   C     C_3   0.705895 0.919443 0.404182 0.115571
C30   C     C_3   0.579071 0.834583 0.373806 -0.826455
C31   C     C_3   0.739966 0.727798 0.641271 0.274922
C32   C     C_3   0.695151 0.812719 0.720395 -0.927051
C33   C     C_3   0.277151 0.301613 0.333425 0.265911
C34   C     C_R   0.547262 0.452359 0.876394 -0.261053
C35   C     C_3   0.328522 0.184272 0.287891 -0.918298
C36   C     C_R   0.318465 0.551633 0.093964 0.481743
C37   C     C_R   0.679363 0.422706 0.904415 0.476739
C38   C     C_2   0.052320 0.865907 0.462118 -0.490693
C39   C     C_2   0.924604 0.130742 0.499252 -0.470911
C40   C     C_2   0.938152 0.921408 0.428455 0.363608
H1    H     H_    0.077010 0.618662 0.017384 0.200067
H2    H     H_    0.360473 0.657354 0.294935 0.153703
H3    H     H_    0.122006 0.701227 0.289793 0.280126
H4    H     H_    0.231298 0.844874 0.307428 0.197704
H5    H     H_    0.129958 0.798219 0.186619 0.232835
H6    H     H_    0.633966 0.334575 0.698946 0.188076
H7    H     H_    0.618468 0.227868 0.796372 0.131205
H8    H     H_    0.841836 0.159037 0.794959 0.238524
H9    H     H_    0.740805 0.137425 0.671750 0.202948
H10   H     H_    0.866095 0.268771 0.702471 0.271802
H11   H     H_    0.651857 0.687158 0.181494 0.327597
H12   H     H_    0.925565 0.368667 0.983439 0.203156
H13   H     H_    0.221586 0.310105 0.727284 0.340048
H14   H     H_    0.091314 0.353151 0.112376 0.333476
H15   H     H_    0.917316 0.653809 0.888750 0.329090
H16   H     H_    0.850259 0.970825 0.240614 0.169081
H17   H     H_    0.029398 0.963626 0.259085 0.154754
H18   H     H_    0.046111 0.143110 0.157183 0.266604
H19   H     H_    0.926322 0.023494 0.090267 0.203008
H20   H     H_    0.869648 0.163390 0.146516 0.268475
H21   H     H_    0.699776 0.997880 0.353079 0.142552
H22   H     H_    0.709349 0.958992 0.481640 0.124446
H23   H     H_    0.488852 0.518374 0.200043 0.197659
H24   H     H_    0.493571 0.885618 0.390796 0.198292
H25   H     H_    0.562676 0.810192 0.292804 0.243810
H26   H     H_    0.585210 0.746342 0.413862 0.262447
H27   H     H_    0.733743 0.780284 0.573091 0.142751
H28   H     H_    0.843988 0.708232 0.668756 0.221592
H29   H     H_    0.699616 0.763029 0.790136 0.280415
H30   H     H_    0.761018 0.901500 0.736146 0.211977
H31   H     H_    0.591713 0.837471 0.693932 0.254801
H32   H     H_    0.291115 0.381702 0.285946 0.173788
H33   H     H_    0.170374 0.281932 0.334727 0.250621
H34   H     H_    0.509188 0.456195 0.797931 0.220462
H35   H     H_    0.307528 0.100125 0.329133 0.260816
H36   H     H_    0.279575 0.166271 0.208778 0.220365
H37   H     H_    0.437308 0.198907 0.291276 0.255652
H38   H     H_    0.899274 0.087184 0.563923 0.093149
H39   H     H_    0.147735 0.920397 0.475736 0.130746
H40   H     H_    0.580739 0.426306 0.426752 0.134328
H41   H     H_    0.414975 0.604266 0.544943 0.136694
H42   H     H_    0.360713 0.754205 0.188854 0.124598
N1    N     N_2   0.322180 0.446120 0.460900 0.040303
N2    N     N_2   0.677820 0.553880 0.539100 0.043926
O1    O     O_R   0.935190 0.693030 0.507870 -0.588509
O2    O     O_3   0.755649 0.388546 0.834368 -0.585404
O3    O     O_3   0.699768 0.629454 0.227790 -0.746721
O4    O     O_3   0.299818 0.355114 0.771446 -0.774549
O5    O     O_3   0.054394 0.385400 0.170334 -0.748925
O6    O     O_3   0.950153 0.616333 0.830545 -0.729616
O7    O     O_3   0.964373 0.117203 0.333179 -0.615595
O8    O     O_3   0.817336 0.848227 0.398328 -0.566532
O9    O     O_3   0.657537 0.614953 0.623798 -0.557767
O10   O     O_3   0.348832 0.328612 0.430453 -0.565404
O11   O     O_R   0.064810 0.306970 0.492130 -0.574116
O12   O     O_R   0.142080 0.658430 0.482770 -0.645851
O13   O     O_R   0.857920 0.341570 0.517230 -0.633139
O14   O     O_R   0.969700 0.527180 0.651960 -0.562662
O15   O     O_R   0.030300 0.472820 0.348040 -0.593465
O16   O     O_R   0.176600 0.492580 0.626860 -0.601624
O17   O     O_R   0.823400 0.507420 0.373140 -0.578466
O18   O     O_3   0.242316 0.580664 0.164762 -0.596320
Zn1   Zn    Zn3+2 0.861850 0.523100 0.516760 1.010305
Zn2   Zn    Zn3+2 0.138150 0.476900 0.483240 0.993851

loop_
_geom_bond_atom_site_label_1
_geom_bond_atom_site_label_2
_ccdc_geom_bond_type
C8    C13   A    
C30   H24   S    
C34   C37   A    
C10   H12   S    
C33   O10   S    
C31   H27   S    
C35   H35   S    
C24   H5    S    
C22   H42   S    
C4    H40   S    
H15   O6    S    
C26   H10   S    
C5    O14   A    
C38   H39   S    
O14   Zn1   S    
O16   Zn2   S    
C36   O18   S    
C6    O17   A    
C19   C37   A    
C33   H32   S    
C33   C35   S    
C2    C39   D    
C7    C14   A    
C3    H41   S    
C12   O11   A    
C27   O7    S    
C25   H7    S    
O1    Zn1   S    
C26   H8    S    
C20   C34   A    
C23   H23   S    
O15   Zn2   S    
O17   Zn1   S    
C32   H31   S    
C28   H20   S    
C1    O1    A    
C31   H28   S    
C29   H21   S    
C35   H36   S    
N1    Zn2   S    
C39   H38   S    
C37   O2    S    
H14   O5    S    
C27   H17   S    
C26   H9    S    
H11   O3    S    
C5    C7    S    
C27   H16   S    
C32   H30   S    
C25   C26   S    
C31   O9    S    
N1    O10   S    
C35   H37   S    
C17   C21   A    
C7    C11   A    
C29   C30   S    
C31   C32   S    
C4    N2    D    
C5    O16   A    
C10   C19   A    
C16   C20   A    
O13   Zn1   S    
C40   O8    S    
C9    C11   A    
C12   O13   A    
C30   H26   S    
C1    C38   S    
C34   H34   S    
C33   H33   S    
C8    C15   A    
O12   Zn2   S    
C3    N1    D    
C24   H4    S    
C14   C16   A    
C3    C4    S    
O11   Zn2   S    
C15   O3    S    
C28   H19   S    
C15   C17   A    
C29   H22   S    
C13   O5    S    
C10   C13   A    
C6    C8    S    
C32   H29   S    
C28   H18   S    
C9    H1    S    
C22   O18   S    
C6    O15   A    
C12   C39   S    
C21   C23   A    
C14   O4    S    
C38   C40   D    
C11   O6    S    
C22   H2    S    
C1    O12   A    
C25   O2    S    
C17   C19   A    
H13   O4    S    
C22   C24   S    
N2    O9    S    
C2    O7    S    
C24   H3    S    
C30   H25   S    
C2    C40   S    
C9    C18   A    
C20   C21   A    
C16   C18   A    
C23   C36   A    
C27   C28   S    
N2    Zn1   S    
C18   C36   A    
C25   H6    S    
C29   O8    S    
