data_mof_unit_21759.cif
_audit_creation_date              2012-12-11T14:46:04-0500
_audit_creation_method            fapswitch 2.2
_symmetry_space_group_name_H-M    P1
_symmetry_Int_Tables_number       1
_space_group_crystal_system       triclinic
_cell_length_a                    10.890455
_cell_length_b                    10.906351
_cell_length_c                    18.783682
_cell_angle_alpha                 89.956401
_cell_angle_beta                  90.17352
_cell_angle_gamma                 119.686324
_cell_volume                      1938.20079382

loop_
_atom_site_label
_atom_site_type_symbol
_atom_type_description
_atom_site_fract_x
_atom_site_fract_y
_atom_site_fract_z
_atom_type_partial_charge
C1    C     C_R   0.866995 0.636595 0.604722 0.543959
C2    C     C_R   0.501902 0.705402 0.763323 -0.110989
C3    C     C_R   0.458492 0.684217 0.692586 -0.117612
C4    C     C_R   0.326801 0.668575 0.674826 0.043831
C5    C     C_R   0.794939 0.086275 0.809742 -0.040852
C6    C     C_R   0.057480 0.185115 0.816222 -0.087109
C7    C     C_R   0.182956 0.212010 0.783252 -0.124723
C8    C     C_R   0.184329 0.186519 0.711003 -0.120908
C9    C     C_R   0.063387 0.147100 0.670415 -0.078725
C10   C     C_R   0.938416 0.130152 0.702202 0.011786
C11   C     C_R   0.929068 0.130710 0.777225 0.009522
C12   C     C_R   0.272751 0.633049 0.603171 0.536441
C13   C     C_R   0.690792 0.063532 0.690407 0.017583
C14   C     C_R   0.675144 0.057224 0.765119 -0.011835
C15   C     C_R   0.571275 0.021211 0.645774 -0.074229
C16   C     C_R   0.444114 0.999730 0.673099 -0.106431
C17   C     C_R   0.429835 0.006417 0.745775 -0.123133
C18   C     C_R   0.540026 0.027177 0.791176 -0.113688
C19   C     C_R   0.826175 0.120776 0.660681 -0.041007
C20   C     C_R   0.720888 0.538043 0.713711 -0.106289
C21   C     C_R   0.712216 0.539122 0.787893 0.235523
C22   C     C_R   0.818803 0.655252 0.825677 0.008039
C23   C     C_R   0.857763 0.215516 0.598426 0.533558
C24   C     C_R   0.936803 0.760185 0.789481 -0.185990
C25   C     C_R   0.941449 0.761017 0.717060 -0.165888
C26   C     C_R   0.835602 0.649472 0.678296 -0.025607
C27   C     C_R   0.416973 0.615446 0.300863 -0.128548
C28   C     C_R   0.454546 0.632814 0.229703 -0.132442
C29   C     C_R   0.428815 0.722514 0.186829 0.027701
C30   C     C_R   0.372907 0.802087 0.216973 -0.138011
C31   C     C_R   0.333682 0.783708 0.288352 -0.140915
C32   C     C_R   0.350056 0.685591 0.329811 0.025777
C33   C     C_R   0.714348 0.118736 0.292482 -0.137569
C34   C     C_R   0.864810 0.638505 0.397692 0.547649
C35   C     C_R   0.706091 0.106569 0.219816 -0.131356
C36   C     C_R   0.825626 0.134157 0.179528 0.031453
C37   C     C_R   0.953502 0.170481 0.213447 -0.150100
C38   C     C_R   0.963230 0.187622 0.286973 -0.137946
C39   C     C_R   0.844287 0.166593 0.326195 0.028681
C40   C     C_R   0.885128 0.787032 0.296312 -0.137916
C41   C     C_R   0.878809 0.798728 0.223711 -0.125084
C42   C     C_R   0.806312 0.677376 0.181181 0.032704
C43   C     C_R   0.732898 0.544128 0.212210 -0.156832
C44   C     C_R   0.739864 0.532065 0.285438 -0.137598
C45   C     C_R   0.275052 0.636186 0.397291 0.545915
C46   C     C_R   0.820922 0.653556 0.327169 0.027843
C47   C     C_R   0.772407 0.049086 0.886897 0.532768
C48   C     C_R   0.457207 0.723072 0.889366 0.547113
C49   C     C_R   0.797863 0.690763 0.897490 0.535888
C50   C     C_R   0.804089 0.101193 0.104363 0.551949
C51   C     C_R   0.459330 0.728380 0.110968 0.565597
C52   C     C_R   0.796079 0.697975 0.106091 0.540439
C53   C     C_R   0.861749 0.226733 0.396583 0.541454
C54   C     C_R   0.236425 0.668567 0.727806 -0.123959
C55   C     C_R   0.278821 0.687249 0.798547 -0.120594
C56   C     C_R   0.412336 0.707250 0.816045 0.041358
Cr1   Cr    Cr6+3 0.791660 0.390250 0.499930 1.006758
Cr2   Cr    Cr6+3 0.098520 0.708290 0.500540 0.998273
Cr3   Cr    Cr6+3 0.109770 0.401430 0.499480 1.008144
Cr4   Cr    Cr6+3 0.874790 0.925890 0.000070 0.996294
Cr5   Cr    Cr6+3 0.574120 0.948670 0.999300 0.975266
Cr6   Cr    Cr6+3 0.551420 0.625320 0.000920 1.008767
H1    H     H_    0.132080 0.650787 0.714418 0.127935
H2    H     H_    0.355922 0.975523 0.638020 0.117991
H3    H     H_    0.577756 0.009917 0.588824 0.118657
H4    H     H_    0.330114 0.988120 0.767496 0.103349
H5    H     H_    0.639867 0.449329 0.684213 0.147485
H6    H     H_    0.022962 0.849205 0.816433 0.154179
H7    H     H_    0.033199 0.847060 0.691955 0.149650
H8    H     H_    0.432091 0.540196 0.331940 0.129791
H9    H     H_    0.498291 0.571560 0.207253 0.131703
H10   H     H_    0.353222 0.873082 0.184852 0.127898
H11   H     H_    0.208178 0.685957 0.839405 0.126907
H12   H     H_    0.282113 0.838911 0.309566 0.131663
H13   H     H_    0.620925 0.100275 0.321597 0.128617
H14   H     H_    0.604476 0.074228 0.195371 0.133985
H15   H     H_    0.045213 0.187532 0.183241 0.122345
H16   H     H_    0.065044 0.224750 0.312360 0.134322
H17   H     H_    0.946843 0.881574 0.327717 0.126130
H18   H     H_    0.931510 0.903435 0.200766 0.141723
H19   H     H_    0.672960 0.450510 0.179965 0.118669
H20   H     H_    0.689586 0.427373 0.308557 0.140246
H21   H     H_    0.605399 0.721714 0.777032 0.112058
H22   H     H_    0.527117 0.680806 0.651945 0.106012
H23   H     H_    0.279522 0.253571 0.813862 0.154867
H24   H     H_    0.280652 0.202896 0.685884 0.118859
H25   H     H_    0.066390 0.216139 0.871252 0.153904
H26   H     H_    0.068110 0.129952 0.613992 0.123838
H27   H     H_    0.513226 0.021913 0.845977 0.168670
O1    O     O_R   0.766500 0.250040 0.579790 -0.517188
O2    O     O_R   0.218690 0.701900 0.425960 -0.504488
O3    O     O_R   0.249490 0.516440 0.419420 -0.525979
O4    O     O_R   0.982880 0.281910 0.424890 -0.509834
O5    O     O_3   0.999980 0.499990 0.499980 -0.233911
O6    O     O_R   0.895110 0.806860 0.920430 -0.534015
O7    O     O_R   0.872260 0.046970 0.925000 -0.499929
O8    O     O_R   0.691430 0.085060 0.918550 -0.552451
O9    O     O_R   0.451490 0.822460 0.925250 -0.526741
O10   O     O_R   0.413330 0.603360 0.920440 -0.483965
O11   O     O_R   0.676110 0.626250 0.926750 -0.481434
O12   O     O_R   0.798570 0.516780 0.574780 -0.501354
O13   O     O_R   0.895350 0.809870 0.080950 -0.518588
O14   O     O_R   0.872490 0.049760 0.073800 -0.501131
O15   O     O_R   0.691680 0.088070 0.079070 -0.532413
O16   O     O_R   0.451720 0.825250 0.074050 -0.500278
O17   O     O_R   0.413580 0.606370 0.080960 -0.506275
O18   O     O_R   0.676340 0.629040 0.075550 -0.527991
O19   O     O_3   0.666780 0.833290 0.000090 -0.295995
O20   O     O_R   0.984000 0.732950 0.581090 -0.530992
O21   O     O_R   0.218600 0.700890 0.574760 -0.515001
O22   O     O_R   0.249390 0.515350 0.579940 -0.509070
O23   O     O_R   0.982790 0.280900 0.573700 -0.502629
O24   O     O_R   0.766600 0.251130 0.419260 -0.532184
O25   O     O_R   0.798660 0.517790 0.425980 -0.507687
O26   O     O_R   0.984100 0.734040 0.420570 -0.522079
O27   O     O_3   0.592240 0.435212 0.820990 -0.557392
C57   C     C_3   0.629164 0.353078 0.864907 0.019406
H28   H     H_    0.718210 0.417788 0.901763 0.132371
H29   H     H_    0.661401 0.290250 0.831542 0.151071
C58   C     C_3   0.502511 0.255573 0.910438 -0.354215
H30   H     H_    0.415641 0.177271 0.876439 0.116404
H31   H     H_    0.532820 0.198407 0.949251 0.127641
H32   H     H_    0.464438 0.318088 0.940320 0.162719

loop_
_geom_bond_atom_site_label_1
_geom_bond_atom_site_label_2
_ccdc_geom_bond_type
C55   C56   A    
C50   O15   A    
Cr2   O20   S    
C41   C42   A    
C14   C18   A    
C20   H5    S    
C35   C36   A    
C41   H18   S    
C12   O21   A    
C7    C8    A    
C39   C53   S    
C40   C46   A    
C23   O23   A    
C5    C47   S    
C52   O13   A    
C17   H4    S    
C33   C39   A    
C28   C29   A    
C5    C11   A    
C44   H20   S    
C57   H29   S    
C9    H26   S    
C29   C51   S    
C38   C39   A    
Cr3   O4    S    
Cr6   O19   S    
C54   H1    S    
C15   C16   A    
C15   H3    S    
O27   C57   S    
C32   C45   S    
C45   O3    A    
Cr5   O19   S    
C1    O20   A    
C33   H13   S    
Cr5   O9    S    
C52   O18   A    
C44   C46   A    
C8    C9    A    
Cr3   O22   S    
C47   O7    A    
C34   C46   S    
Cr3   O5    S    
C4    C12   S    
Cr4   O14   S    
Cr5   O16   S    
Cr2   O2    S    
Cr4   O19   S    
C58   H32   S    
Cr3   O3    S    
C50   O14   A    
C21   C22   A    
C2    H21   S    
C21   O27   S    
Cr4   O13   S    
C53   O24   A    
C17   C18   A    
C35   H14   S    
C23   O1    A    
Cr1   O1    S    
C13   C19   A    
C53   O4    A    
Cr5   O15   S    
C24   C25   A    
C57   C58   S    
C6    C11   A    
C16   C17   A    
C31   H12   S    
Cr1   O24   S    
Cr6   O18   S    
C38   H16   S    
C25   C26   A    
C37   H15   S    
C6    H25   S    
C19   C23   S    
C43   C44   A    
C37   C38   A    
C31   C32   A    
C10   C19   A    
C51   O16   A    
Cr3   O23   S    
C40   H17   S    
C49   O6    A    
C5    C14   A    
C6    C7    A    
C27   H8    S    
C22   C49   S    
Cr6   O11   S    
Cr4   O7    S    
C40   C41   A    
Cr1   O5    S    
C13   C15   A    
C1    C26   S    
C43   H19   S    
C22   C24   A    
C28   H9    S    
C25   H7    S    
C42   C43   A    
C3    C4    A    
C1    O12   A    
C27   C28   A    
C36   C50   S    
C58   H30   S    
C58   H31   S    
C9    C10   A    
C48   C56   S    
C48   O10   A    
C54   C55   A    
C36   C37   A    
C4    C54   A    
C27   C32   A    
Cr2   O21   S    
C18   H27   S    
Cr5   O8    S    
C30   H10   S    
Cr1   O25   S    
Cr6   O17   S    
C34   O25   A    
Cr1   O12   S    
C47   O8    A    
C2    C3    A    
C34   O26   A    
C2    C56   A    
C57   H28   S    
C49   O11   A    
C30   C31   A    
Cr2   O26   S    
C7    H23   S    
C20   C26   A    
C51   O17   A    
C33   C35   A    
C8    H24   S    
C48   O9    A    
Cr2   O5    S    
C45   O2    A    
C10   C11   A    
C24   H6    S    
C29   C30   A    
Cr6   O10   S    
C55   H11   S    
Cr4   O6    S    
C20   C21   A    
C3    H22   S    
C16   H2    S    
C13   C14   A    
C12   O22   A    
C42   C52   S    
