data_mof_unit_68246.cif
_audit_creation_date              2012-12-11T17:48:46-0500
_audit_creation_method            fapswitch 2.2
_symmetry_space_group_name_H-M    P1
_symmetry_Int_Tables_number       1
_space_group_crystal_system       triclinic
_cell_length_a                    8.15811
_cell_length_b                    12.660191
_cell_length_c                    14.95214
_cell_angle_alpha                 96.248756
_cell_angle_beta                  97.457648
_cell_angle_gamma                 98.855285
_cell_volume                      1499.85328714

loop_
_atom_site_label
_atom_site_type_symbol
_atom_type_description
_atom_site_fract_x
_atom_site_fract_y
_atom_site_fract_z
_atom_type_partial_charge
Ba1   Ba    Ba6+2 0.843750 0.550210 0.455600 1.642924
Ba2   Ba    Ba6+2 0.346090 0.449880 0.544410 1.636629
C1    C     C_3   0.616754 0.889762 0.100425 -0.036634
C2    C     C_R   0.893929 0.430574 0.924053 -0.045247
C3    C     C_R   0.039116 0.457302 0.111736 -0.062442
C4    C     C_3   0.091143 0.773227 0.205394 0.413465
C5    C     C_R   0.881892 0.395492 0.080834 -0.059360
C6    C     C_R   0.810017 0.379417 0.989886 0.152664
C7    C     C_R   0.107701 0.471490 0.205362 0.050451
C8    C     C_R   0.267825 0.531622 0.233000 -0.289195
C9    C     C_R   0.081315 0.529365 0.796228 0.040118
C10   C     C_R   0.151559 0.540861 0.889840 -0.024269
C11   C     C_R   0.058578 0.491474 0.953462 -0.021931
C12   C     C_3   0.565105 0.818885 0.172002 0.316558
C13   C     C_R   0.313925 0.598808 0.921832 -0.032698
C14   C     C_R   0.387491 0.603674 0.011858 -0.102816
C15   C     C_R   0.296866 0.559887 0.076513 -0.032570
C16   C     C_3   0.057483 0.796968 0.107636 -0.365241
C17   C     C_R   0.130999 0.503692 0.047341 0.008664
C18   C     C_R   0.365872 0.571876 0.169935 -0.032170
C19   C     C_R   0.920335 0.469200 0.768820 -0.309474
C20   C     C_R   0.773799 0.180330 0.529061 -0.283005
C21   C     C_R   0.418137 0.808520 0.462289 -0.274958
C22   C     C_R   0.387812 0.986259 0.426360 -0.109202
C23   C     C_3   0.413808 0.299220 0.268688 0.312208
C24   C     C_R   0.320898 0.878348 0.423731 -0.019325
C25   C     C_R   0.578640 0.847361 0.510831 0.067699
C26   C     C_R   0.646178 0.958943 0.517203 -0.052097
C27   C     C_R   0.549681 0.028425 0.473083 -0.054194
C28   C     C_3   0.270658 0.783012 0.654259 0.272852
C29   C     C_R   0.615879 0.139185 0.479325 0.028984
C30   C     C_R   0.872000 0.112752 0.568950 -0.005745
C31   C     C_R   0.807064 0.003498 0.565559 -0.092542
C32   C     C_3   0.252179 0.900721 0.667769 -0.331852
C33   C     C_3   0.925418 0.216687 0.344008 0.277428
C34   C     C_3   0.360991 0.275312 0.166224 -0.426332
C35   C     C_3   0.884958 0.094875 0.319207 -0.366981
C36   C     C_3   0.772785 0.694990 0.729975 0.316549
C37   C     C_3   0.807979 0.725975 0.832798 -0.406169
C38   C     C_3   0.424716 0.017629 0.123499 -0.246177
C39   C     C_3   0.663377 0.197405 0.983376 -0.212050
C40   C     C_3   0.106460 0.222830 0.793661 0.370358
C41   C     C_3   0.139711 0.194738 0.889974 -0.374997
C42   C     C_3   0.595516 0.160240 0.729775 0.364553
C43   C     C_3   0.642391 0.060701 0.768785 -0.411020
C44   C     C_R   0.823345 0.423301 0.830601 0.007435
H1    H     H_    0.561761 0.869589 0.237045 0.008263
H2    H     H_    0.886796 0.672968 0.705793 0.013902
H3    H     H_    0.669365 0.624749 0.713959 0.068461
H4    H     H_    0.726602 0.952920 0.129750 0.088669
H5    H     H_    0.916804 0.792768 0.851207 0.128340
H6    H     H_    0.836645 0.656097 0.866888 0.057163
H7    H     H_    0.696356 0.752420 0.857663 0.115711
H8    H     H_    0.437678 0.774493 0.145262 -0.015173
H9    H     H_    0.307407 0.323877 0.299909 0.021577
H10   H     H_    0.521656 0.366731 0.282676 0.076363
H11   H     H_    0.247365 0.211978 0.150016 0.124313
H12   H     H_    0.318239 0.939796 0.735246 0.130009
H13   H     H_    0.332064 0.348253 0.137651 0.067867
H14   H     H_    0.464843 0.249640 0.133351 0.111241
H15   H     H_    0.655222 0.838468 0.044318 0.071939
H16   H     H_    0.121022 0.745756 0.063126 0.077923
H17   H     H_    0.187808 0.300637 0.790436 0.093767
H18   H     H_    0.973215 0.232309 0.779212 -0.076067
H19   H     H_    0.273926 0.188913 0.907623 0.142324
H20   H     H_    0.108761 0.258357 0.938998 0.067892
H21   H     H_    0.061759 0.116460 0.895683 0.105582
H22   H     H_    0.706571 0.199908 0.703098 -0.063124
H23   H     H_    0.304261 0.942917 0.613935 0.077119
H24   H     H_    0.492107 0.134317 0.672117 0.086534
H25   H     H_    0.772761 0.078450 0.805125 0.103081
H26   H     H_    0.633953 0.993638 0.713282 0.087449
H27   H     H_    0.019319 0.692109 0.208948 0.078694
H28   H     H_    0.557352 0.033991 0.817062 0.124100
H29   H     H_    0.810733 0.355410 0.126710 0.117196
H30   H     H_    0.515497 0.644859 0.030363 0.076471
H31   H     H_    0.388677 0.640515 0.877978 0.098147
H32   H     H_    0.321144 0.540700 0.304071 0.073550
H33   H     H_    0.866540 0.461960 0.697954 0.071965
H34   H     H_    0.118056 0.906890 0.665443 0.130705
H35   H     H_    0.309216 0.036409 0.393623 0.094463
H36   H     H_    0.883598 0.955084 0.601064 0.097236
H37   H     H_    0.823793 0.265368 0.533686 0.066571
H38   H     H_    0.227030 0.772618 0.223674 -0.128150
H39   H     H_    0.364785 0.724235 0.458960 0.067201
H40   H     H_    0.921046 0.779033 0.082406 0.125591
H41   H     H_    0.104268 0.882886 0.103168 0.122067
H42   H     H_    0.402052 0.777524 0.647786 0.006676
H43   H     H_    0.186697 0.744725 0.590803 0.062853
H44   H     H_    0.493781 0.963235 0.000178 0.197574
H45   H     H_    0.817457 0.245964 0.369176 0.006506
H46   H     H_    0.323222 0.051623 0.085803 0.110667
H47   H     H_    0.531790 0.082866 0.151486 0.130490
H48   H     H_    0.374520 0.980761 0.180528 0.122704
H49   H     H_    0.558981 0.336717 0.995177 0.198267
H50   H     H_    0.541956 0.145030 0.955357 0.121651
H51   H     H_    0.688276 0.191306 0.057114 0.078393
H52   H     H_    0.764543 0.167547 0.950294 0.111836
H53   H     H_    0.036492 0.236796 0.397718 0.076667
H54   H     H_    0.764527 0.072233 0.272377 0.101252
H55   H     H_    0.873448 0.055310 0.381011 0.100660
H56   H     H_    0.986580 0.065726 0.285881 0.146868
N1    N     N_2   0.478055 0.937887 0.062234 -0.450581
N2    N     N_2   0.654924 0.307546 0.967186 -0.389588
O1    O     O_2   0.827880 0.435260 0.277750 -0.466225
O2    O     O_2   0.213146 0.119580 0.566872 -0.489399
O3    O     O_3   0.142710 0.140537 0.732095 -0.597277
O4    O     O_3   0.100280 0.438960 0.391170 -0.497432
O5    O     O_3   0.587780 0.631850 0.546230 -0.490439
O6    O     O_2   0.332590 0.233690 0.456160 -0.465889
O7    O     O_3   0.458413 0.206610 0.302389 -0.654603
O8    O     O_2   0.474401 0.424746 0.824353 -0.490691
O9    O     O_3   0.540216 0.227653 0.796808 -0.567118
O10   O     O_3   0.625580 0.634130 0.333250 -0.458910
O11   O     O_2   0.696845 0.548564 0.177296 -0.487321
O12   O     O_3   0.729053 0.783593 0.689933 -0.643353
O13   O     O_3   0.956442 0.262955 0.266161 -0.645713
O14   O     O_3   0.683687 0.750905 0.186821 -0.590051
O15   O     O_2   0.857130 0.766340 0.543890 -0.471040
O16   O     O_3   0.056550 0.691050 0.379010 -0.482616
O17   O     O_2   0.980601 0.880832 0.432212 -0.475984
O18   O     O_3   0.040327 0.852194 0.264183 -0.588128
O19   O     O_2   0.361830 0.564780 0.722310 -0.479598
O20   O     O_3   0.089430 0.561130 0.608830 -0.495394
O21   O     O_3   0.564130 0.365960 0.666760 -0.474285
O22   O     O_3   0.231027 0.737262 0.731365 -0.637830
O23   O     O_3   0.601940 0.368240 0.453770 -0.478793
O24   O     O_3   0.133170 0.309040 0.621000 -0.483142
P1    P     P_3+3 0.998730 0.403530 0.291970 0.963983
P2    P     P_3+3 0.687380 0.751030 0.571310 0.968613
P3    P     P_3+3 0.100243 0.828641 0.376034 0.972546
P4    P     P_3+3 0.190990 0.596560 0.708040 0.968945
P5    P     P_3+3 0.088958 0.169518 0.621194 0.951863
P6    P     P_3+3 0.588846 0.627702 0.214896 0.952702
P7    P     P_3+3 0.505320 0.234104 0.421087 0.928399
P8    P     P_3+3 0.601940 0.362974 0.782716 0.985511

loop_
_geom_bond_atom_site_label_1
_geom_bond_atom_site_label_2
_ccdc_geom_bond_type
C37   H5    S    
C28   O22   S    
Ba2   O5    S    
O19   P4    D    
C43   H25   S    
O16   P3    S    
C23   H10   S    
C38   H47   S    
C2    C6    A    
C34   H13   S    
C9    P4    S    
C15   C18   A    
C8    H32   S    
C5    C6    A    
C36   H3    S    
C2    C44   A    
Ba2   O19   S    
C42   C43   S    
C37   H7    S    
C16   H40   S    
C20   C30   A    
C26   C27   A    
C33   C35   S    
O23   P7    S    
Ba1   P1    S    
C30   P5    S    
C39   H50   S    
Ba1   O10   S    
C13   C14   A    
O15   P2    D    
O20   P4    S    
Ba1   Ba2   S    
Ba1   O15   S    
C21   C24   A    
C2    C11   A    
C22   C27   A    
Ba1   O5    S    
O2    P5    D    
C8    C18   A    
C14   C15   A    
C12   O14   S    
O9    P8    S    
Ba2   P4    S    
C42   H24   S    
C21   C25   A    
O13   P1    S    
C31   H36   S    
C36   H2    S    
O14   P6    S    
C32   H34   S    
Ba2   O23   S    
C37   H6    S    
C43   H26   S    
O6    P7    D    
O17   P3    D    
C28   H43   S    
C33   H53   S    
C7    C8    A    
C1    H4    S    
C1    H15   S    
C36   C37   S    
C4    C16   S    
C4    H38   S    
C20   C29   A    
C28   C32   S    
C23   H9    S    
C29   P7    S    
Ba1   P2    S    
C3    C5    A    
C11   C17   A    
C16   H16   S    
C5    H29   S    
Ba1   O4    S    
C9    C19   A    
C35   H56   S    
C43   H28   S    
Ba1   O16   S    
C22   H35   S    
C3    C7    A    
C36   O12   S    
C10   C13   A    
O22   P4    S    
C41   H19   S    
C19   H33   S    
O10   P6    S    
C38   H46   S    
C6    N2    S    
C32   H23   S    
O4    P1    S    
C1    C12   S    
O21   P8    S    
C41   H21   S    
C12   H8    S    
C42   O9    S    
C34   H11   S    
Ba2   O20   S    
C39   H51   S    
C42   H22   S    
C40   C41   S    
C4    O18   S    
C28   H42   S    
C40   H18   S    
O18   P3    S    
O5    P2    S    
H49   N2    S    
C4    H27   S    
C19   C44   A    
C40   O3    S    
C1    N1    S    
Ba2   O6    S    
C14   H30   S    
Ba1   O23   S    
C38   H48   S    
C34   H14   S    
C26   C31   A    
O1    P1    D    
C9    C10   A    
C12   H1    S    
C3    C17   A    
O11   P6    D    
C7    P1    S    
C16   H41   S    
C39   N2    S    
Ba2   O24   S    
C20   H37   S    
O8    P8    D    
C27   C29   A    
O24   P5    S    
C30   C31   A    
C38   N1    S    
C35   H55   S    
C22   C24   A    
O7    P7    S    
C13   H31   S    
C41   H20   S    
Ba2   O4    S    
C15   C17   A    
H44   N1    S    
Ba1   O20   S    
C33   O13   S    
C23   O7    S    
C23   C34   S    
C44   P8    S    
Ba2   O21   S    
O12   P2    S    
C10   C11   A    
O3    P5    S    
C21   H39   S    
C25   C26   A    
C32   H12   S    
C25   P2    S    
C39   H52   S    
C18   P6    S    
C40   H17   S    
C35   H54   S    
C24   P3    S    
Ba1   O1    S    
C33   H45   S    
