data_mof_unit_65735.cif
_audit_creation_date              2012-10-26T19:54:12-0400
_audit_creation_method            fapswitch 2.2
_symmetry_space_group_name_H-M    P1
_symmetry_Int_Tables_number       1
_space_group_crystal_system       triclinic
_cell_length_a                    15.917539
_cell_length_b                    16.024391
_cell_length_c                    14.788632
_cell_angle_alpha                 90.00914
_cell_angle_beta                  89.924173
_cell_angle_gamma                 90.071492
_cell_volume                      3772.11334692

loop_
_atom_site_label
_atom_site_type_symbol
_atom_type_description
_atom_site_fract_x
_atom_site_fract_y
_atom_site_fract_z
_atom_type_partial_charge
C1    C     C_R   0.500005 0.340982 0.499972 0.550974
C2    C     C_1   0.499892 0.747899 0.500040 0.014905
C3    C     C_R   0.575882 0.510205 0.952063 0.004409
C4    C     C_R   0.424394 0.489824 0.047893 -0.016478
C5    C     C_R   0.500394 0.500061 0.902827 -0.010199
C6    C     C_R   0.499921 0.499976 0.097147 -0.033763
C7    C     C_R   0.424656 0.489870 0.951466 0.077731
C8    C     C_R   0.575826 0.510190 0.048149 0.079189
C9    C     C_1   0.500096 0.500032 0.802513 0.194532
C10   C     C_1   0.500001 0.499978 0.197490 0.145243
C11   C     C_R   0.339572 0.499985 0.500047 0.551291
C12   C     C_R   0.499997 0.659020 0.500027 0.550565
C13   C     C_R   0.660428 0.500006 0.499951 0.554154
C14   C     C_3   0.972027 0.421524 0.491636 -0.030933
C15   C     C_3   0.027971 0.578419 0.508343 -0.030468
C16   C     C_3   0.028083 0.467393 0.422279 -0.030564
C17   C     C_3   0.971917 0.532550 0.577701 -0.030229
C18   C     C_1   0.250265 0.499996 0.500173 0.014617
C19   C     C_1   0.749734 0.499976 0.499821 0.013876
C20   C     C_3   0.027687 0.454130 0.569477 -0.028786
C21   C     C_3   0.972312 0.545813 0.430502 -0.028863
C22   C     C_3   0.083626 0.499999 0.500122 -0.018716
C23   C     C_R   0.499408 0.912546 0.499982 0.020724
C24   C     C_3   0.916373 0.499944 0.499858 -0.018639
C25   C     C_1   0.175036 0.500003 0.500196 -0.017681
C26   C     C_1   0.824963 0.499953 0.499790 -0.018270
C27   C     C_R   0.575876 0.955707 0.508643 0.085438
C28   C     C_R   0.423465 0.043941 0.491276 0.086344
C29   C     C_1   0.059547 0.431822 0.337232 0.232610
C30   C     C_1   0.940457 0.568123 0.662748 0.232920
C31   C     C_1   0.940708 0.335701 0.482529 0.228919
C32   C     C_1   0.059287 0.664243 0.517450 0.229218
C33   C     C_1   0.941334 0.595931 0.354443 0.230410
C34   C     C_R   0.500104 0.087438 0.499964 -0.000767
C35   C     C_1   0.058661 0.404010 0.645537 0.231008
C36   C     C_1   0.655078 0.088264 0.517498 0.205882
C37   C     C_1   0.344377 0.911942 0.482412 0.257023
C38   C     C_1   0.654520 0.520777 0.904190 0.256445
C39   C     C_1   0.345877 0.479263 0.096058 0.204544
C40   C     C_R   0.423245 0.956399 0.491311 0.011984
C41   C     C_R   0.576310 0.043563 0.508632 -0.008762
C42   C     C_1   0.499719 0.822774 0.500029 0.009277
C43   C     C_1   0.500053 0.177235 0.499950 -0.037992
C44   C     C_1   0.500021 0.252107 0.499955 -0.000535
Cu1   Cu    Cu3+1 0.500020 0.500000 0.589220 1.048219
Cu2   Cu    Cu3+1 0.499980 0.500000 0.410780 1.032414
H1    H     H_    0.681313 0.926294 0.578348 0.252600
H2    H     H_    0.692677 0.926232 0.464289 0.252835
H3    H     H_    0.348897 0.126106 0.425056 0.246777
H4    H     H_    0.337520 0.126154 0.539103 0.247002
H5    H     H_    0.663353 0.468598 0.136559 0.246782
H6    H     H_    0.649184 0.573413 0.136611 0.248080
H7    H     H_    0.306675 0.527384 0.920571 0.253669
H8    H     H_    0.320847 0.422519 0.920512 0.254056
N1    N     N_1   0.500030 0.499980 0.276710 -0.183474
N2    N     N_1   0.281399 0.876382 0.475311 -0.232564
N3    N     N_3   0.652683 0.909446 0.517417 -0.604619
N4    N     N_3   0.345379 0.088021 0.482345 -0.594229
N5    N     N_3   0.653921 0.520694 0.095260 -0.590230
N6    N     N_3   0.347826 0.479538 0.901991 -0.602243
N7    N     N_1   0.717390 0.529234 0.865850 -0.228015
N8    N     N_1   0.283118 0.470817 0.134610 -0.240170
N9    N     N_1   0.499970 0.500020 0.723290 -0.177471
N10   N     N_1   0.084387 0.403816 0.270235 -0.226737
N11   N     N_1   0.915620 0.596130 0.729746 -0.224521
N12   N     N_1   0.915985 0.268098 0.475363 -0.228584
N13   N     N_1   0.084008 0.731847 0.524615 -0.227772
N14   N     N_1   0.916890 0.635408 0.294518 -0.241519
N15   N     N_1   0.083102 0.364532 0.705462 -0.243331
N16   N     N_1   0.717961 0.123994 0.524567 -0.243871
O1    O     O_R   0.500040 0.380310 0.575320 -0.488793
O2    O     O_R   0.499960 0.619690 0.424680 -0.490018
O3    O     O_R   0.500000 0.380310 0.424640 -0.489963
O4    O     O_R   0.500000 0.619690 0.575360 -0.488781
O5    O     O_R   0.379100 0.499990 0.575330 -0.485847
O6    O     O_R   0.620900 0.500010 0.424670 -0.494143
O7    O     O_R   0.379060 0.499990 0.424640 -0.483155
O8    O     O_R   0.620940 0.500010 0.575360 -0.484971

loop_
_geom_bond_atom_site_label_1
_geom_bond_atom_site_label_2
_ccdc_geom_bond_type
C31   N12   T    
C11   C18   S    
C16   C21   S    
C12   O4    A    
Cu1   O1    S    
C14   C31   S    
C2    C12   S    
Cu2   O6    S    
H2    N3    S    
H8    N6    S    
Cu1   Cu2   S    
C18   C25   T    
C1    O1    A    
C23   C42   S    
C24   C26   S    
C37   C40   S    
C8    N5    S    
C21   C33   S    
C28   C40   A    
C23   C40   A    
C17   C20   S    
C14   C24   S    
C19   C26   T    
C11   O7    A    
C37   N2    T    
C15   C22   S    
C3    C38   S    
C22   C25   S    
Cu2   N1    S    
C13   O6    A    
Cu1   O8    S    
C23   C27   A    
Cu2   O2    S    
C38   N7    T    
C12   O2    A    
C29   N10   T    
C28   C34   A    
C17   C30   S    
C20   C35   S    
C36   C41   S    
C34   C41   A    
C4    C7    A    
H7    N6    S    
C36   N16   T    
C17   C24   S    
C13   C19   S    
H4    N4    S    
C14   C20   S    
C15   C32   S    
C4    C6    A    
C3    C8    A    
C27   N3    S    
C5    C7    A    
C6    C8    A    
C16   C29   S    
Cu1   N9    S    
H3    N4    S    
Cu1   O4    S    
C43   C44   T    
C5    C9    S    
H6    N5    S    
H1    N3    S    
C27   C41   A    
C1    C44   S    
C4    C39   S    
C10   N1    T    
C32   N13   T    
C20   C22   S    
C14   C16   S    
H5    N5    S    
C7    N6    S    
C15   C17   S    
C39   N8    T    
C13   O8    A    
C16   C22   S    
C9    N9    T    
C34   C43   S    
C3    C5    A    
C6    C10   S    
Cu2   O7    S    
C28   N4    S    
Cu1   O5    S    
C1    O3    A    
C11   O5    A    
C2    C42   T    
C30   N11   T    
C15   C21   S    
C35   N15   T    
C21   C24   S    
Cu2   O3    S    
C33   N14   T    
