data_mof_unit_24507.cif
_audit_creation_date              2012-12-10T16:49:27-0500
_audit_creation_method            fapswitch 2.2
_symmetry_space_group_name_H-M    P1
_symmetry_Int_Tables_number       1
_space_group_crystal_system       triclinic
_cell_length_a                    7.821438
_cell_length_b                    8.564092
_cell_length_c                    12.87005
_cell_angle_alpha                 89.033824
_cell_angle_beta                  88.405057
_cell_angle_gamma                 93.329104
_cell_volume                      860.14544816

loop_
_atom_site_label
_atom_site_type_symbol
_atom_type_description
_atom_site_fract_x
_atom_site_fract_y
_atom_site_fract_z
_atom_type_partial_charge
C1    C     C_R   0.455116 0.205583 0.497403 0.954111
C2    C     C_R   0.710159 0.465296 0.141536 -0.166346
C3    C     C_R   0.590217 0.476667 0.869383 -0.256514
C4    C     C_R   0.409783 0.523333 0.130617 -0.256514
C5    C     C_R   0.578843 0.483610 0.975787 0.177481
C6    C     C_R   0.421157 0.516390 0.024213 0.177481
C7    C     C_2   0.431439 0.042158 0.495879 -0.352568
C8    C     C_2   0.568561 0.957842 0.504121 -0.352568
C9    C     C_R   0.544884 0.794417 0.502596 0.954111
C10   C     C_R   0.466514 0.502033 0.699562 0.873625
C11   C     C_R   0.533486 0.497967 0.300438 0.873625
C12   C     C_R   0.553048 0.496393 0.189343 -0.049808
C13   C     C_R   0.446952 0.503607 0.810657 -0.049808
C14   C     C_R   0.276999 0.541175 0.965669 -0.215769
C15   C     C_R   0.723000 0.458825 0.034330 -0.215769
C16   C     C_R   0.289840 0.534704 0.858464 -0.166346
Cl1   Cl    Cl    0.979320 0.672450 0.383223 -0.521843
Cl2   Cl    Cl    0.020680 0.327550 0.616777 -0.521843
H1    H     H_    0.288219 0.548773 0.167334 0.185166
H2    H     H_    0.711781 0.451226 0.832665 0.185166
H3    H     H_    0.821726 0.444506 0.186680 0.186947
H4    H     H_    0.178274 0.555493 0.813320 0.186947
H5    H     H_    0.155622 0.566167 0.002615 0.146302
H6    H     H_    0.844378 0.433833 0.997385 0.146302
H7    H     H_    0.301637 0.991757 0.487966 0.212997
H8    H     H_    0.698363 0.008243 0.512034 0.212997
N1    N     N_2   0.054030 0.541640 0.471970 0.133587
N2    N     N_2   0.945970 0.458360 0.528030 0.133588
O1    O     O_R   0.609680 0.261530 0.506880 -0.603739
O2    O     O_R   0.390320 0.738470 0.493120 -0.603739
O3    O     O_R   0.323330 0.288220 0.488910 -0.579829
O4    O     O_R   0.676670 0.711780 0.511090 -0.579829
O5    O     O_R   0.619510 0.488830 0.661140 -0.614464
O6    O     O_R   0.380490 0.511170 0.338860 -0.614465
O7    O     O_R   0.333160 0.515520 0.643180 -0.591644
O8    O     O_R   0.666840 0.484480 0.356820 -0.591644
Zn1   Zn    Zn3+2 0.691200 0.482180 0.511990 1.082307
Zn2   Zn    Zn3+2 0.308800 0.517820 0.488010 1.082307

loop_
_geom_bond_atom_site_label_1
_geom_bond_atom_site_label_2
_ccdc_geom_bond_type
C14   H5    S    
C11   C12   S    
C10   O7    A    
C4    C12   A    
C8    H8    S    
C3    C13   A    
O3    Zn2   S    
C1    O3    A    
C2    C12   A    
C2    H3    S    
C1    O1    A    
C3    H2    S    
C15   H6    S    
O4    Zn1   S    
C2    C15   A    
N2    Zn1   S    
C9    O2    A    
C11   O8    A    
C10   O5    A    
C5    C6    A    
C14   C16   A    
C5    C15   A    
C6    C14   A    
N1    Zn2   S    
Cl1   N1    S    
C7    C8    D    
O7    Zn2   S    
Cl2   N2    S    
O2    Zn2   S    
C4    C6    A    
C13   C16   A    
O1    Zn1   S    
N1    N2    D    
O8    Zn1   S    
C16   H4    S    
C9    O4    A    
C1    C7    S    
O6    Zn2   S    
C4    H1    S    
C11   O6    A    
O5    Zn1   S    
C8    C9    S    
C3    C5    A    
C10   C13   S    
C7    H7    S    
