data_mof_unit_35239.cif
_audit_creation_date              2012-12-11T14:44:11-0500
_audit_creation_method            fapswitch 2.2
_symmetry_space_group_name_H-M    P1
_symmetry_Int_Tables_number       1
_space_group_crystal_system       triclinic
_cell_length_a                    24.870518
_cell_length_b                    16.733037
_cell_length_c                    15.580046
_cell_angle_alpha                 89.972566
_cell_angle_beta                  49.919604
_cell_angle_gamma                 89.995191
_cell_volume                      4961.01073558

loop_
_atom_site_label
_atom_site_type_symbol
_atom_type_description
_atom_site_fract_x
_atom_site_fract_y
_atom_site_fract_z
_atom_type_partial_charge
C1    C     C_R   0.333458 0.110949 0.802731 -0.114734
C2    C     C_3   0.726122 0.742592 0.573165 0.678941
C3    C     C_3   0.680491 0.837416 0.711614 0.146174
C4    C     C_3   0.699847 0.891532 0.766883 -0.231021
C5    C     C_3   0.642881 0.953746 0.842676 -1.035969
C6    C     C_3   0.638734 0.247557 0.787471 0.169045
C7    C     C_3   0.617672 0.328132 0.848010 -0.309150
C8    C     C_3   0.543339 0.325630 0.960573 -1.029384
C9    C     C_3   0.368903 0.767109 0.217725 0.165442
C10   C     C_3   0.354292 0.852615 0.202942 -0.265504
C11   C     C_3   0.421680 0.894157 0.104818 -1.058595
C12   C     C_3   0.771202 0.613652 0.255034 0.191091
C13   C     C_3   0.712304 0.271247 0.594402 0.675089
C14   C     C_3   0.805896 0.676937 0.162055 -0.297246
C15   C     C_3   0.874491 0.646302 0.053132 -1.037601
C16   C     C_3   0.212852 0.372923 0.756960 0.158207
C17   C     C_3   0.220896 0.408708 0.838392 -0.223322
C18   C     C_3   0.150179 0.435978 0.946917 -1.070581
C19   C     C_3   0.188574 0.645638 0.778889 0.176865
C20   C     C_3   0.133024 0.701923 0.873221 -0.271866
C21   C     C_3   0.067249 0.656476 0.968421 -1.066298
C22   C     C_3   0.808006 0.359657 0.229194 0.161900
C23   C     C_3   0.813040 0.380988 0.128840 -0.218894
C24   C     C_3   0.293582 0.718298 0.401485 0.674761
C25   C     C_3   0.883848 0.419039 0.034884 -1.085760
C26   C     C_3   0.720308 0.676504 0.425465 0.685964
C27   C     C_3   0.273246 0.315417 0.582266 0.666714
C28   C     C_3   0.261626 0.697334 0.597547 0.672149
C29   C     C_3   0.736623 0.304729 0.406386 0.666332
C30   C     C_2   0.696593 0.148234 0.013089 -0.217879
C31   C     C_2   0.303360 0.851512 0.986731 -0.211106
C32   C     C_2   0.303308 0.148069 0.986826 -0.221137
C33   C     C_R   0.666252 0.887768 0.198187 -0.122968
C34   C     C_2   0.695761 0.846617 0.016346 -0.213885
C35   C     C_2   0.138330 0.766800 0.154661 -0.207117
C36   C     C_2   0.861493 0.233360 0.845670 -0.220956
C37   C     C_2   0.861897 0.766900 0.844945 -0.206749
C38   C     C_2   0.138550 0.233507 0.154234 -0.214600
C39   C     C_2   0.766093 0.139916 0.951901 -0.111173
C40   C     C_2   0.233863 0.860083 0.048096 -0.113936
C41   C     C_2   0.233800 0.139946 0.048003 -0.112327
C42   C     C_2   0.765098 0.858445 0.953017 -0.116668
C43   C     C_2   0.187184 0.809456 0.146029 -0.111961
C44   C     C_R   0.666524 0.110988 0.197188 -0.111313
C45   C     C_2   0.812733 0.190653 0.854100 -0.104513
C46   C     C_2   0.812502 0.808780 0.854382 -0.113549
C47   C     C_2   0.187304 0.190729 0.145739 -0.108916
C48   C     C_R   0.585331 0.150189 0.592885 -0.155964
C49   C     C_R   0.414744 0.849584 0.407435 -0.157116
C50   C     C_R   0.414104 0.149455 0.406520 -0.167335
C51   C     C_R   0.585239 0.849959 0.593246 -0.164884
C52   C     C_R   0.113929 0.611170 0.592410 -0.169648
C53   C     C_R   0.887503 0.385452 0.407205 -0.169014
C54   C     C_R   0.887383 0.613532 0.406834 -0.159278
C55   C     C_R   0.333460 0.888986 0.802759 -0.109366
C56   C     C_R   0.112695 0.386854 0.593175 -0.164018
C57   C     C_R   0.661306 0.148803 0.406305 -0.118751
C58   C     C_R   0.338377 0.851416 0.593956 -0.114710
C59   C     C_R   0.338607 0.148769 0.593303 -0.118457
C60   C     C_R   0.660395 0.850550 0.406675 -0.125374
C61   C     C_R   0.188896 0.609513 0.405873 -0.109169
C62   C     C_R   0.812231 0.387172 0.593974 -0.104206
C63   C     C_R   0.811698 0.611591 0.593558 -0.108553
C64   C     C_R   0.188389 0.389058 0.406411 -0.098182
C65   C     C_R   0.578087 0.107375 0.195648 -0.148544
C66   C     C_R   0.852949 0.647712 0.754681 -0.117689
C67   C     C_R   0.421856 0.892622 0.804389 -0.150036
C68   C     C_R   0.421846 0.107285 0.804402 -0.152230
C69   C     C_R   0.577818 0.891188 0.196519 -0.149127
C70   C     C_R   0.058395 0.644334 0.242690 -0.139299
C71   C     C_R   0.941699 0.355573 0.757065 -0.143106
C72   C     C_R   0.941909 0.644436 0.756763 -0.142448
C73   C     C_R   0.058471 0.355763 0.242559 -0.134826
C74   C     C_R   0.351733 0.127060 0.867747 0.152239
C75   C     C_R   0.647621 0.870194 0.134147 0.153125
C76   C     C_R   0.648198 0.127190 0.132225 0.149356
C77   C     C_R   0.147183 0.352344 0.245202 -0.120784
C78   C     C_R   0.351762 0.872746 0.867710 0.151662
C79   C     C_R   0.885729 0.690338 0.785733 0.148536
C80   C     C_R   0.114631 0.309890 0.213720 0.148134
C81   C     C_R   0.114472 0.690307 0.214031 0.148283
C82   C     C_R   0.885445 0.309773 0.786158 0.153048
C83   C     C_R   0.634982 0.194981 0.499246 0.119085
C84   C     C_R   0.364941 0.804916 0.501227 0.117361
C85   C     C_R   0.364539 0.194186 0.499850 0.129463
C86   C     C_R   0.634302 0.804764 0.499885 0.132051
C87   C     C_R   0.180506 0.631220 0.498583 0.110532
C88   C     C_R   0.147056 0.647801 0.245471 -0.125509
C89   C     C_R   0.821997 0.362594 0.500993 0.121097
C90   C     C_R   0.821210 0.634857 0.500237 0.120807
C91   C     C_R   0.178818 0.365867 0.499722 0.119108
C92   C     C_3   0.341164 0.300553 0.399442 -0.353099
C93   C     C_3   0.659304 0.705330 0.603751 -0.376065
C94   C     C_3   0.658209 0.311840 0.590349 -0.390339
C95   C     C_3   0.343736 0.680287 0.415971 -0.356382
C96   C     C_3   0.787423 0.713373 0.395534 -0.398780
C97   C     C_3   0.210354 0.277607 0.599637 -0.391325
C98   C     C_3   0.211730 0.735093 0.582855 -0.362120
C99   C     C_R   0.852763 0.352366 0.755001 -0.122883
C100  C     C_3   0.790167 0.264210 0.411095 -0.387300
C101  C     C_3   0.744497 0.785623 0.471042 -0.330273
C102  C     C_3   0.258392 0.211186 0.515129 -0.332081
C103  C     C_3   0.272538 0.785548 0.484030 -0.319338
C104  C     C_3   0.732077 0.209455 0.506343 -0.280896
C105  C     C_3   0.292555 0.367949 0.484310 -0.311942
C106  C     C_3   0.702773 0.632082 0.527973 -0.304158
C107  C     C_3   0.717192 0.367810 0.494522 -0.319501
C108  C     C_3   0.281831 0.628873 0.515307 -0.325412
C109  C     C_3   0.677696 0.747907 0.500184 0.031390
C110  C     C_3   0.278251 0.262680 0.417589 0.680582
C111  C     C_3   0.320928 0.249820 0.499006 0.030107
C112  C     C_3   0.322051 0.747449 0.500486 0.028060
C113  C     C_3   0.678914 0.250373 0.500039 0.033773
C114  C     C_3   0.230582 0.328640 0.500358 0.021558
C115  C     C_3   0.768927 0.670938 0.499450 0.016668
C116  C     C_3   0.769864 0.325854 0.500765 0.014320
C117  C     C_3   0.232992 0.667989 0.498540 0.018159
C118  C     C_3   0.322366 0.174654 0.269545 0.167815
C119  C     C_3   0.385150 0.205227 0.153324 -0.288344
C120  C     C_3   0.431926 0.136663 0.075161 -1.060594
H1    H     H_    0.281062 0.108844 0.830086 0.076757
H2    H     H_    0.442821 0.833762 0.320899 0.101203
H3    H     H_    0.172647 0.324672 0.801456 0.100646
H4    H     H_    0.195001 0.420813 0.730476 0.084600
H5    H     H_    0.243696 0.363254 0.858969 0.211409
H6    H     H_    0.257331 0.460568 0.798003 0.197784
H7    H     H_    0.124834 0.478989 0.928415 0.267444
H8    H     H_    0.158114 0.465546 0.001829 0.283722
H9    H     H_    0.114829 0.383821 0.992418 0.268711
H10   H     H_    0.201434 0.599580 0.814519 0.146267
H11   H     H_    0.166717 0.613113 0.744771 0.069520
H12   H     H_    0.155138 0.733674 0.907060 0.204518
H13   H     H_    0.441296 0.164291 0.319779 0.105614
H14   H     H_    0.118322 0.747224 0.839427 0.185437
H15   H     H_    0.045238 0.622385 0.936095 0.271986
H16   H     H_    0.026944 0.699382 0.032889 0.272183
H17   H     H_    0.079887 0.614655 0.008594 0.275548
H18   H     H_    0.852988 0.319972 0.199360 0.096731
H19   H     H_    0.811374 0.415762 0.264116 0.086005
H20   H     H_    0.806415 0.326102 0.096241 0.203370
H21   H     H_    0.770234 0.423345 0.156021 0.196579
H22   H     H_    0.893807 0.471079 0.067108 0.274673
H23   H     H_    0.883865 0.439744 0.967164 0.282872
H24   H     H_    0.557887 0.834949 0.679964 0.097074
H25   H     H_    0.926788 0.374785 0.999275 0.267277
H26   H     H_    0.093387 0.610829 0.678259 0.096228
H27   H     H_    0.907706 0.385597 0.321540 0.089257
H28   H     H_    0.907996 0.612793 0.320964 0.094187
H29   H     H_    0.092061 0.387275 0.679069 0.090359
H30   H     H_    0.704700 0.163117 0.319789 0.129503
H31   H     H_    0.295030 0.837352 0.680548 0.134798
H32   H     H_    0.295376 0.163545 0.679729 0.115847
H33   H     H_    0.718763 0.889452 0.170461 0.077236
H34   H     H_    0.703475 0.835526 0.320320 0.104139
H35   H     H_    0.237224 0.606581 0.319903 0.134004
H36   H     H_    0.763634 0.389132 0.679617 0.107249
H37   H     H_    0.762980 0.610495 0.679382 0.103648
H38   H     H_    0.237064 0.390403 0.320549 0.113839
H39   H     H_    0.549950 0.102171 0.164480 0.095404
H40   H     H_    0.449933 0.897842 0.835655 0.096130
H41   H     H_    0.449946 0.102081 0.835636 0.099815
H42   H     H_    0.549824 0.895721 0.165048 0.093393
H43   H     H_    0.022524 0.659704 0.228484 0.107254
H44   H     H_    0.718944 0.108864 0.169732 0.077385
H45   H     H_    0.977644 0.340130 0.771086 0.105804
H46   H     H_    0.978160 0.659884 0.770170 0.106294
H47   H     H_    0.022657 0.340444 0.228236 0.097505
H48   H     H_    0.760614 0.849260 0.449107 0.149048
H49   H     H_    0.246113 0.146293 0.525988 0.145527
H50   H     H_    0.269731 0.850193 0.471237 0.142593
H51   H     H_    0.736423 0.144067 0.513130 0.150316
H52   H     H_    0.304222 0.432763 0.472793 0.144585
H53   H     H_    0.687903 0.568339 0.549930 0.142652
H54   H     H_    0.714238 0.433202 0.486839 0.141980
H55   H     H_    0.281035 0.891119 0.830230 0.076397
H56   H     H_    0.282437 0.564620 0.531693 0.140009
H57   H     H_    0.395434 0.308497 0.319120 0.144730
H58   H     H_    0.606460 0.702836 0.688102 0.142711
H59   H     H_    0.603380 0.329914 0.661283 0.154690
H60   H     H_    0.398385 0.659556 0.348707 0.147725
H61   H     H_    0.840806 0.716610 0.312223 0.149470
H62   H     H_    0.156104 0.268655 0.679741 0.138492
H63   H     H_    0.157202 0.756059 0.650292 0.144777
H64   H     H_    0.844582 0.245375 0.339384 0.143492
H65   H     H_    0.212134 0.890763 0.015104 0.124967
H66   H     H_    0.806335 0.663460 0.767003 0.103441
H67   H     H_    0.787811 0.109471 0.985056 0.124754
H68   H     H_    0.786725 0.892222 0.984062 0.127851
H69   H     H_    0.212019 0.109648 0.014877 0.125592
H70   H     H_    0.797033 0.205971 0.805272 0.148424
H71   H     H_    0.202971 0.794107 0.194722 0.138091
H72   H     H_    0.203100 0.205979 0.194443 0.145735
H73   H     H_    0.796787 0.792857 0.805885 0.137444
H74   H     H_    0.324477 0.820287 0.020522 0.135867
H75   H     H_    0.675492 0.179029 0.978954 0.134908
H76   H     H_    0.674667 0.811331 0.985526 0.130581
H77   H     H_    0.193729 0.336476 0.233048 0.106447
H78   H     H_    0.324424 0.178766 0.020885 0.139814
H79   H     H_    0.876381 0.218121 0.895744 0.131464
H80   H     H_    0.123325 0.782113 0.104766 0.132308
H81   H     H_    0.123588 0.218308 0.104266 0.128887
H82   H     H_    0.877168 0.782852 0.894216 0.131399
H83   H     H_    0.293876 0.129427 0.259900 0.138259
H84   H     H_    0.341219 0.143259 0.308987 0.081068
H85   H     H_    0.366159 0.238988 0.115954 0.204567
H86   H     H_    0.416486 0.246412 0.161610 0.195842
H87   H     H_    0.451554 0.101939 0.110863 0.273589
H88   H     H_    0.193516 0.663735 0.233550 0.108073
H89   H     H_    0.477681 0.160798 0.992326 0.272843
H90   H     H_    0.402063 0.096593 0.062304 0.269482
H91   H     H_    0.628972 0.808474 0.777939 0.102641
H92   H     H_    0.675515 0.875857 0.658554 0.099588
H93   H     H_    0.706955 0.854453 0.817657 0.195215
H94   H     H_    0.750283 0.922430 0.701051 0.205024
H95   H     H_    0.635380 0.992520 0.793208 0.267753
H96   H     H_    0.658704 0.991772 0.881547 0.278847
H97   H     H_    0.592374 0.923942 0.910601 0.269062
H98   H     H_    0.636344 0.201520 0.841272 0.133660
H99   H     H_    0.806021 0.336615 0.767700 0.102815
H100  H     H_    0.600751 0.227887 0.776335 0.078551
H101  H     H_    0.654671 0.343457 0.862682 0.198613
H102  H     H_    0.620873 0.375726 0.795161 0.195269
H103  H     H_    0.505090 0.311212 0.948306 0.272102
H104  H     H_    0.529683 0.384829 0.002090 0.272624
H105  H     H_    0.539922 0.280073 0.015786 0.270202
H106  H     H_    0.395389 0.734379 0.137582 0.127675
H107  H     H_    0.406581 0.767744 0.233557 0.074098
H108  H     H_    0.316450 0.851554 0.187519 0.204097
H109  H     H_    0.330548 0.887367 0.280620 0.187579
H110  H     H_    0.557967 0.165520 0.679491 0.099590
H111  H     H_    0.459544 0.897982 0.120028 0.265215
H112  H     H_    0.409178 0.955532 0.095625 0.280687
H113  H     H_    0.446205 0.861099 0.025526 0.262996
H114  H     H_    0.757028 0.561673 0.228873 0.139665
H115  H     H_    0.808541 0.590357 0.265914 0.071017
H116  H     H_    0.769397 0.693482 0.146743 0.212861
H117  H     H_    0.816975 0.731769 0.188346 0.187690
H118  H     H_    0.910177 0.624845 0.067923 0.269653
H119  H     H_    0.901213 0.695375 0.990645 0.266309
H120  H     H_    0.863735 0.596937 0.018441 0.282946
N1    N     N_R   0.389620 0.081040 0.705440 -0.042496
N2    N     N_R   0.417680 0.920160 0.443370 -0.042657
N3    N     N_R   0.417680 0.079840 0.443370 -0.042681
N4    N     N_R   0.582320 0.920160 0.556630 -0.043137
N5    N     N_R   0.082320 0.579840 0.556630 -0.035618
N6    N     N_R   0.917680 0.420160 0.443370 -0.036134
N7    N     N_R   0.917680 0.579840 0.443370 -0.037674
N8    N     N_R   0.082320 0.420160 0.556630 -0.036371
N9    N     N_R   0.627920 0.078930 0.443400 -0.053189
N10   N     N_R   0.372080 0.921070 0.556600 -0.054070
N11   N     N_R   0.372080 0.078930 0.556600 -0.051894
N12   N     N_R   0.610380 0.918960 0.294560 -0.040941
N13   N     N_R   0.627920 0.921070 0.443400 -0.049788
N14   N     N_R   0.127920 0.578930 0.443400 -0.049861
N15   N     N_R   0.872080 0.421070 0.556600 -0.048422
N16   N     N_R   0.872080 0.578930 0.556600 -0.047263
N17   N     N_R   0.127920 0.421070 0.443400 -0.049369
N18   N     N_R   0.555090 0.077730 0.294590 -0.036243
N19   N     N_R   0.444910 0.922270 0.705410 -0.036141
N20   N     N_R   0.444910 0.077730 0.705410 -0.036537
N21   N     N_R   0.555090 0.922270 0.294590 -0.036523
N22   N     N_R   0.055090 0.577730 0.294590 -0.042644
N23   N     N_R   0.610380 0.081040 0.294560 -0.043141
N24   N     N_R   0.944910 0.422270 0.705410 -0.042860
N25   N     N_R   0.944910 0.577730 0.705410 -0.042040
N26   N     N_R   0.055090 0.422270 0.294590 -0.041537
N27   N     N_R   0.389620 0.918960 0.705440 -0.043915
N28   N     N_R   0.889620 0.581040 0.705440 -0.048753
N29   N     N_R   0.110380 0.418960 0.294560 -0.048931
N30   N     N_R   0.110380 0.581040 0.294560 -0.048483
N31   N     N_R   0.889620 0.418960 0.705440 -0.048387
N32   N     N_R   0.582320 0.079840 0.556630 -0.043644
Ni1   Ni    Ni4+2 0.382970 0.000000 0.629840 0.207072
Ni2   Ni    Ni4+2 0.617030 0.000000 0.370160 0.207855
Ni3   Ni    Ni4+2 0.882970 0.500000 0.629840 0.208379
Ni4   Ni    Ni4+2 0.117030 0.500000 0.370160 0.210259
Ni5   Ni    Ni4+2 0.514540 0.000000 0.629840 0.209646
Ni6   Ni    Ni4+2 0.485460 0.000000 0.370160 0.210550
Ni7   Ni    Ni4+2 0.014540 0.500000 0.629840 0.209182
Ni8   Ni    Ni4+2 0.985460 0.500000 0.370160 0.210112
O1    O     O_3   0.275327 0.238310 0.333887 -0.687204
O2    O     O_3   0.732699 0.777955 0.648247 -0.676214
O3    O     O_3   0.708799 0.251046 0.686097 -0.683608
O4    O     O_3   0.304931 0.727238 0.300698 -0.694032
O5    O     O_3   0.708460 0.644168 0.355094 -0.669734
O6    O     O_3   0.277847 0.340823 0.663775 -0.667738
O7    O     O_3   0.250767 0.689036 0.697855 -0.681389
O8    O     O_3   0.743823 0.319950 0.310336 -0.673790

loop_
_geom_bond_atom_site_label_1
_geom_bond_atom_site_label_2
_ccdc_geom_bond_type
C11   H113  S    
C12   H115  S    
C73   C80   A    
N32   Ni5   S    
N20   Ni5   S    
C105  H52   S    
N25   Ni7   S    
C33   N12   A    
N2    Ni6   S    
N12   Ni2   S    
C82   C99   A    
C83   C113  S    
N18   N23   A    
C34   C42   D    
C36   H79   S    
C21   H17   S    
C96   H61   S    
C73   H47   S    
C17   H5    S    
C70   H43   S    
C26   C106  S    
C44   N23   A    
C14   H116  S    
C49   N2    A    
C35   C81   S    
C7    C8    S    
C2    O2    S    
C110  O1    S    
C68   H41   S    
C28   C112  S    
N31   Ni3   S    
C66   C79   A    
C37   C79   S    
C15   H118  S    
C24   C117  S    
C11   H112  S    
C65   C76   A    
C38   C80   S    
C23   H21   S    
C98   C117  S    
C1    C74   A    
C49   C84   A    
C72   N25   A    
N1    N20   A    
C16   H3    S    
C20   H12   S    
C54   C90   A    
C72   C79   A    
C58   C84   A    
C95   C112  S    
C32   C74   S    
C7    H101  S    
C33   H33   S    
C17   H6    S    
C19   H11   S    
C63   C90   A    
N6    N15   A    
C27   C105  S    
C68   C74   A    
C98   C103  S    
C5    H95   S    
C62   C89   A    
C15   H119  S    
C71   N24   A    
N24   Ni7   S    
C64   N17   A    
C31   C40   D    
C28   O7    S    
C70   N22   A    
C42   C46   S    
N10   Ni1   S    
N1    Ni1   S    
C98   H63   S    
C44   C76   A    
C61   N14   A    
C53   N6    A    
C60   N13   A    
N8    Ni7   S    
C32   H78   S    
C61   C87   A    
C50   C85   A    
C18   H8    S    
C6    H98   S    
C33   C75   A    
C40   C43   S    
C5    H97   S    
N21   Ni6   S    
C51   N4    A    
C36   C82   S    
C16   C17   S    
C38   H81   S    
C100  C116  S    
N18   Ni6   S    
C103  H50   S    
C52   H26   S    
C32   C41   D    
C57   C83   A    
N16   Ni3   S    
C9    H106  S    
C119  H85   S    
C35   C43   D    
C9    C10   S    
C110  C114  S    
C21   H16   S    
C97   C102  S    
C29   C100  S    
C65   H39   S    
C34   C75   S    
C39   C45   S    
C71   C82   A    
C48   H110  S    
N7    N16   A    
C102  H49   S    
C89   C116  S    
C27   C111  S    
N3    Ni6   S    
C96   C101  S    
C52   N5    A    
C10   H108  S    
N9    N32   A    
C102  C111  S    
C25   H23   S    
C67   C78   A    
C88   H88   S    
C100  H64   S    
C61   H35   S    
C51   C86   A    
C22   C23   S    
C118  C119  S    
C94   C113  S    
C35   H80   S    
C60   H34   S    
C56   C91   A    
C67   N19   A    
C120  H90   S    
C62   N15   A    
C107  C116  S    
C42   H68   S    
C94   C107  S    
C2    C93   S    
C4    H94   S    
N2    N10   A    
C24   O4    S    
C105  C114  S    
C97   H62   S    
C86   C109  S    
C55   N27   A    
C69   H42   S    
C26   O5    S    
C9    H107  S    
C50   N3    A    
C73   N26   A    
C24   C95   S    
C68   N20   A    
C7    H102  S    
C60   C86   A    
C13   O3    S    
C69   N21   A    
C40   H65   S    
C3    H91   S    
N26   Ni8   S    
C51   H24   S    
C5    H96   S    
C22   H19   S    
C50   H13   S    
C10   H109  S    
C104  C113  S    
C9    O4    S    
N15   Ni3   S    
C103  C112  S    
C15   H120  S    
C120  H89   S    
C101  H48   S    
C12   H114  S    
C59   C85   A    
N30   Ni4   S    
C18   H7    S    
N22   N30   A    
C30   C76   S    
C2    C115  S    
C95   H60   S    
C63   N16   A    
C8    H105  S    
N23   Ni2   S    
C19   O7    S    
C57   H30   S    
C17   C18   S    
C41   C47   S    
C119  C120  S    
C36   C45   D    
N5    Ni7   S    
C119  H86   S    
C84   C112  S    
C54   N7    A    
C13   C104  S    
N6    Ni8   S    
C23   H20   S    
C26   C109  S    
C55   H55   S    
C38   C47   D    
C67   H40   S    
C8    H103  S    
C22   O8    S    
N12   N21   A    
C118  O1    S    
C104  H51   S    
C6    H100  S    
C1    N1    A    
C88   N30   A    
C99   H99   S    
N24   N31   A    
N4    N13   A    
C66   H66   S    
C93   C106  S    
C53   C89   A    
C77   N29   A    
C58   N10   A    
C118  H83   S    
N14   Ni4   S    
C63   H37   S    
C16   O6    S    
C3    C4    S    
C57   N9    A    
C47   H72   S    
N22   Ni8   S    
C66   N28   A    
C58   H31   S    
C31   C78   S    
C54   H28   S    
C77   C80   A    
C34   H76   S    
C3    H92   S    
C55   C78   A    
C29   C113  S    
C37   C46   D    
N27   Ni1   S    
N17   Ni4   S    
C11   H111  S    
C4    H93   S    
N29   Ni4   S    
N9    Ni2   S    
C120  H87   S    
C72   H46   S    
C108  C117  S    
C52   C87   A    
C118  H84   S    
N11   Ni1   S    
C13   C94   S    
C12   C14   S    
C4    C5    S    
C85   C111  S    
C6    O3    S    
C8    H104  S    
C100  C104  S    
C14   H117  S    
C28   C98   S    
C93   H58   S    
C48   C83   A    
C92   C111  S    
C87   C117  S    
C6    C7    S    
C107  H54   S    
C41   H69   S    
C29   O8    S    
C44   H44   S    
N5    N14   A    
C22   H18   S    
C37   H82   S    
C96   C115  S    
C2    C101  S    
C91   C114  S    
C59   H32   S    
C106  C115  S    
N13   Ni2   S    
C24   C103  S    
C10   C11   S    
C26   C96   S    
N3    N11   A    
C90   C115  S    
C65   N18   A    
C16   H4    S    
C39   H67   S    
C30   H75   S    
C46   H73   S    
C27   O6    S    
C59   N11   A    
C27   C97   S    
C25   H22   S    
C92   C110  S    
C56   N8    A    
C77   H77   S    
N26   N29   A    
C19   H10   S    
C102  C110  S    
C49   H2    S    
C108  H56   S    
N28   Ni3   S    
C99   N31   A    
N4    Ni5   S    
N7    Ni8   S    
C106  H53   S    
C62   H36   S    
C30   C39   D    
C69   C75   A    
N19   N27   A    
C94   H59   S    
C23   C25   S    
C13   C116  S    
C28   C108  S    
N25   N28   A    
C1    H1    S    
C53   H27   S    
C81   C88   A    
N19   Ni5   S    
C95   C108  S    
C43   H71   S    
N8    N17   A    
C92   H57   S    
C92   C105  S    
C20   C21   S    
C48   N32   A    
C3    O2    S    
C12   O5    S    
C71   H45   S    
C64   H38   S    
C56   H29   S    
C14   C15   S    
C29   C107  S    
C18   H9    S    
C25   H25   S    
C70   C81   A    
C64   C91   A    
C20   H14   S    
C97   C114  S    
C19   C20   S    
C101  C109  S    
C21   H15   S    
C45   H70   S    
C93   C109  S    
C31   H74   S    
