data_mof_unit_49544.cif
_audit_creation_date              2012-12-10T18:46:16-0500
_audit_creation_method            fapswitch 2.2
_symmetry_space_group_name_H-M    P1
_symmetry_Int_Tables_number       1
_space_group_crystal_system       triclinic
_cell_length_a                    9.842367
_cell_length_b                    10.712746
_cell_length_c                    13.14086
_cell_angle_alpha                 90.097594
_cell_angle_beta                  70.022736
_cell_angle_gamma                 90.008863
_cell_volume                      1302.18287353

loop_
_atom_site_label
_atom_site_type_symbol
_atom_type_description
_atom_site_fract_x
_atom_site_fract_y
_atom_site_fract_z
_atom_type_partial_charge
C1    C     C_R   0.499963 0.740123 0.500186 0.871824
C2    C     C_R   0.367715 0.481969 0.821827 -0.121557
C3    C     C_R   0.607595 0.936159 0.526354 -0.191044
C4    C     C_R   0.419977 0.492937 0.704102 0.860030
C5    C     C_R   0.607549 0.064079 0.526361 -0.201977
C6    C     C_R   0.499767 0.127469 0.500378 -0.011133
C7    C     C_R   0.391836 0.063879 0.474662 -0.191248
C8    C     C_R   0.391831 0.935989 0.474723 -0.198900
C9    C     C_R   0.499808 0.872570 0.500433 -0.015856
C10   C     C_R   0.960442 0.427009 0.428868 -0.089975
C11   C     C_R   0.104300 0.426990 0.428918 -0.075098
C12   C     C_R   0.430630 0.472190 0.984532 0.086425
C13   C     C_R   0.039491 0.572873 0.571234 -0.084856
C14   C     C_R   0.895635 0.572885 0.571187 -0.061191
C15   C     C_R   0.499921 0.259885 0.500071 0.858471
C16   C     C_R   0.580095 0.499535 0.295690 0.875212
C17   C     C_R   0.777459 0.373996 0.018639 -0.201719
C18   C     C_R   0.628353 0.482001 0.179279 -0.059270
C19   C     C_R   0.231005 0.529781 0.881692 -0.194647
C20   C     C_R   0.191207 0.543513 0.993119 -0.149405
C21   C     C_R   0.290947 0.518502 0.044210 -0.198321
C22   C     C_R   0.460910 0.438896 0.875398 0.086156
C23   C     C_R   0.541357 0.457672 0.029384 0.078549
C24   C     C_R   0.669870 0.391575 0.972094 0.174019
C25   C     C_R   0.687612 0.342282 0.870271 -0.258829
C26   C     C_R   0.584366 0.365382 0.822396 -0.201944
C27   C     C_R   0.528782 0.509781 0.129047 -0.261216
C28   C     C_R   0.755424 0.417084 0.123289 -0.208667
H1    H     H_    0.833506 0.394719 0.161948 0.151530
H2    H     H_    0.875459 0.322873 0.975923 0.141927
H3    H     H_    0.438576 0.569101 0.171658 0.150394
H4    H     H_    0.156644 0.560032 0.842025 0.155160
H5    H     H_    0.254721 0.532979 0.130658 0.131921
H6    H     H_    0.084956 0.578941 0.039443 0.148358
H7    H     H_    0.601444 0.323609 0.743989 0.170839
H8    H     H_    0.690864 0.887409 0.547272 0.152536
H9    H     H_    0.690762 0.112985 0.547316 0.153013
H10   H     H_    0.308573 0.112601 0.453714 0.153101
H11   H     H_    0.308530 0.887132 0.453849 0.156455
H12   H     H_    0.931836 0.368724 0.371967 0.124026
H13   H     H_    0.184648 0.368547 0.372067 0.129600
H14   H     H_    0.068083 0.631131 0.628156 0.123730
H15   H     H_    0.815272 0.631289 0.628055 0.131598
H16   H     H_    0.782500 0.287728 0.826754 0.149885
N1    N     N_R   0.142790 0.500030 0.500030 -0.076901
N2    N     N_R   0.857180 0.499940 0.500010 -0.078153
O1    O     O_R   0.385370 0.683250 0.500010 -0.623724
O2    O     O_R   0.614700 0.683220 0.500010 -0.620614
O3    O     O_R   0.328400 0.499990 0.653620 -0.612855
O4    O     O_R   0.557730 0.499960 0.653620 -0.616017
O5    O     O_R   0.385300 0.316780 0.499990 -0.621857
O6    O     O_R   0.614630 0.316750 0.499990 -0.631662
O7    O     O_R   0.442270 0.500040 0.346380 -0.617392
O8    O     O_R   0.671600 0.500010 0.346380 -0.615479
Zn1   Zn    Zn3+2 0.346870 0.500020 0.500000 0.939563
Zn2   Zn    Zn3+2 0.653130 0.499980 0.500000 0.937185

loop_
_geom_bond_atom_site_label_1
_geom_bond_atom_site_label_2
_ccdc_geom_bond_type
C10   N2    A    
C2    C4    S    
C23   C24   A    
C1    O2    A    
C2    C22   A    
C6    C7    A    
C3    C9    A    
C8    H11   S    
C5    H9    S    
O4    Zn2   S    
C15   O5    A    
C4    O3    A    
C20   H6    S    
C14   H15   S    
C16   O8    A    
C2    C19   A    
O1    Zn1   S    
C1    C9    S    
C7    C8    A    
C14   N2    A    
O3    Zn1   S    
C15   O6    A    
C24   C25   A    
C13   N1    A    
C17   H2    S    
C12   C23   A    
O6    Zn2   S    
C3    H8    S    
C19   H4    S    
C25   H16   S    
C10   H12   S    
C28   H1    S    
C25   C26   A    
C7    H10   S    
C11   H13   S    
O5    Zn1   S    
C23   C27   A    
O7    Zn1   S    
C5    C6    A    
O8    Zn2   S    
C11   N1    A    
C17   C24   A    
C21   H5    S    
C10   C11   A    
C27   H3    S    
C12   C22   A    
C26   H7    S    
C18   C28   A    
C20   C21   A    
N1    Zn1   S    
C16   C18   S    
C22   C26   A    
N2    Zn2   S    
O2    Zn2   S    
C16   O7    A    
C13   H14   S    
C6    C15   S    
C13   C14   A    
C17   C28   A    
C12   C21   A    
C1    O1    A    
C18   C27   A    
C19   C20   A    
C4    O4    A    
C8    C9    A    
C3    C5    A    
