data_mof_unit_5201.cif
_audit_creation_date              2012-12-10T20:30:59-0500
_audit_creation_method            fapswitch 2.2
_symmetry_space_group_name_H-M    P1
_symmetry_Int_Tables_number       1
_space_group_crystal_system       triclinic
_cell_length_a                    14.985644
_cell_length_b                    10.675136
_cell_length_c                    9.854058
_cell_angle_alpha                 90.058562
_cell_angle_beta                  89.625208
_cell_angle_gamma                 90.26464
_cell_volume                      1576.33966652

loop_
_atom_site_label
_atom_site_type_symbol
_atom_type_description
_atom_site_fract_x
_atom_site_fract_y
_atom_site_fract_z
_atom_type_partial_charge
C1    C     C_R   0.503475 0.260008 0.499963 0.867521
C2    C     C_R   0.908067 0.554981 0.389458 0.034029
C3    C     C_R   0.949641 0.398882 0.722105 -0.251780
C4    C     C_R   0.042110 0.393179 0.723407 0.434937
C5    C     C_R   0.091589 0.440269 0.611295 -0.085963
C6    C     C_R   0.046367 0.499321 0.502621 -0.058261
C7    C     C_R   0.094065 0.554262 0.393827 0.070469
C8    C     C_R   0.049390 0.608521 0.284705 -0.186281
C9    C     C_R   0.956733 0.607984 0.280855 0.381920
C10   C     C_R   0.184572 0.429050 0.601990 0.505047
C11   C     C_R   0.230916 0.494512 0.500118 -0.185454
C12   C     C_R   0.326744 0.497979 0.500191 0.944218
C13   C     C_R   0.186171 0.555082 0.395927 -0.268538
C14   C     C_R   0.526064 0.064339 0.621901 0.052863
C15   C     C_R   0.519227 0.129012 0.499723 -0.065974
C16   C     C_R   0.529726 0.064850 0.376382 -0.204169
C17   C     C_R   0.528692 0.935398 0.376420 -0.211660
C18   C     C_R   0.516342 0.871647 0.499644 -0.067896
C19   C     C_R   0.522662 0.936728 0.621828 0.067356
C20   C     C_3   0.468517 0.932149 0.750252 0.240221
C21   C     C_3   0.473667 0.074356 0.751052 -0.519347
C22   C     C_R   0.454638 0.409667 0.071842 0.173713
C23   C     C_R   0.502451 0.740121 0.499960 0.926300
C24   C     C_R   0.552304 0.581028 0.071909 -0.237401
C25   C     C_R   0.554133 0.579732 0.926596 0.559667
C26   C     C_R   0.454457 0.409799 0.929387 0.047434
C27   C     C_3   0.356585 0.384982 0.925878 -0.330650
C28   C     C_3   0.356960 0.384530 0.079728 -0.457754
C29   C     C_R   0.673232 0.500810 0.499649 0.878254
C30   C     C_R   0.815258 0.552996 0.389565 -0.197461
C31   C     C_R   0.768836 0.501740 0.499524 -0.085203
C32   C     C_R   0.813303 0.451887 0.610501 -0.220701
C33   C     C_R   0.905392 0.450641 0.611708 0.073485
C34   C     C_R   0.953341 0.502016 0.501388 0.046084
H1    H     H_    0.778370 0.592423 0.305822 0.198664
H2    H     H_    0.530987 0.886557 0.280030 0.173428
H3    H     H_    0.504646 0.887877 0.835716 0.153488
H4    H     H_    0.408760 0.121934 0.737022 0.225089
H5    H     H_    0.514666 0.112232 0.835424 0.179740
H6    H     H_    0.591140 0.649205 0.127587 0.158488
H7    H     H_    0.318488 0.464536 0.882779 0.260262
H8    H     H_    0.341164 0.291500 0.882296 0.229193
H9    H     H_    0.318923 0.463590 0.124939 0.225278
H10   H     H_    0.776089 0.411850 0.694910 0.154599
H11   H     H_    0.341905 0.291053 0.124131 0.208940
H12   H     H_    0.912070 0.362567 0.808029 0.187497
H13   H     H_    0.223293 0.602153 0.315780 0.178665
H14   H     H_    0.086625 0.650148 0.201349 0.192376
H15   H     H_    0.531989 0.113470 0.279953 0.172639
N1    N     N_R   0.499390 0.499140 0.142800 -0.120081
N2    N     N_R   0.499390 0.499180 0.857150 -0.136433
O1    O     O_R   0.500010 0.316790 0.614690 -0.620410
O2    O     O_R   0.500000 0.316760 0.385350 -0.626242
O3    O     O_R   0.367850 0.499990 0.614680 -0.569639
O4    O     O_R   0.367840 0.499950 0.385340 -0.636680
O5    O     O_R   0.500000 0.683240 0.614650 -0.552215
O6    O     O_R   0.499990 0.683210 0.385310 -0.639075
O7    O     O_R   0.632160 0.500050 0.614660 -0.602385
O8    O     O_R   0.632150 0.500010 0.385320 -0.626857
Zn1   Zn    Zn3+2 0.500010 0.500020 0.653130 1.022692
Zn2   Zn    Zn3+2 0.499990 0.499980 0.346870 0.952902
Cl1   Cl    Cl    0.357007 0.875686 0.726688 -0.607817
O9    O     O_3   0.604465 0.665544 0.853364 -0.610286
C35   C     C_3   0.695133 0.657933 0.890208 -0.256646
H16   H     H_    0.735897 0.703503 0.809705 0.208537
H17   H     H_    0.718460 0.559235 0.898496 0.160574
H18   H     H_    0.707548 0.709632 0.986146 0.185546
Cl2   Cl    Cl    0.090559 0.334397 0.873202 -0.551409
O10   O     O_3   0.230293 0.349198 0.686689 -0.597524
C36   C     C_3   0.234423 0.230149 0.624393 -0.223835
H19   H     H_    0.257255 0.161224 0.700442 0.219966
H20   H     H_    0.283195 0.230742 0.538839 0.133904
H21   H     H_    0.167905 0.197131 0.588723 0.173158
Cl3   Cl    Cl    0.905048 0.674756 0.137911 -0.647116

loop_
_geom_bond_atom_site_label_1
_geom_bond_atom_site_label_2
_ccdc_geom_bond_type
C19   C20   S    
C8    H14   S    
C7    C8    A    
O3    Zn1   S    
C26   C27   S    
C30   H1    S    
C14   C21   S    
C5    C6    A    
C3    C33   A    
O7    Zn1   S    
C15   C16   A    
C18   C19   A    
C25   O9    S    
C1    O2    A    
O1    Zn1   S    
O2    Zn2   S    
C21   H4    S    
C29   O8    A    
C16   C17   A    
C36   H19   S    
C1    C15   S    
C17   H2    S    
C22   N1    A    
C2    C34   A    
C22   C28   S    
C17   C18   A    
C24   N1    A    
C28   H11   S    
O8    Zn2   S    
C18   C23   S    
C35   H18   S    
C23   O5    A    
C24   C25   A    
C4    Cl2   S    
C8    C9    A    
C6    C34   A    
C35   H17   S    
C25   N2    A    
C27   H7    S    
C31   C32   A    
C21   H5    S    
C36   H21   S    
C33   C34   A    
C32   H10   S    
C29   O7    A    
C9    Cl3   S    
C3    C4    A    
C16   H15   S    
C13   H13   S    
C23   O6    A    
C3    H12   S    
C14   C19   A    
C4    C5    A    
C11   C12   S    
O6    Zn2   S    
C6    C7    A    
C28   H9    S    
C2    C30   A    
C32   C33   A    
C5    C10   A    
C29   C31   S    
C26   N2    A    
C35   H16   S    
C20   H3    S    
C11   C13   A    
C27   H8    S    
C30   C31   A    
O4    Zn2   S    
C24   H6    S    
C20   Cl1   S    
O10   C36   S    
C1    O1    A    
C12   O4    A    
C10   C11   A    
O9    C35   S    
C10   O10   S    
O5    Zn1   S    
C7    C13   A    
C20   C21   S    
C22   C26   A    
C27   C28   S    
N1    Zn2   S    
C14   C15   A    
C36   H20   S    
N2    Zn1   S    
C2    C9    A    
C12   O3    A    
