data_mof_unit_42404.cif
_audit_creation_date              2012-12-11T14:21:17-0500
_audit_creation_method            fapswitch 2.2
_symmetry_space_group_name_H-M    P1
_symmetry_Int_Tables_number       1
_space_group_crystal_system       triclinic
_cell_length_a                    11.58134
_cell_length_b                    11.572715
_cell_length_c                    19.54039
_cell_angle_alpha                 90.368196
_cell_angle_beta                  90.08605
_cell_angle_gamma                 59.561189
_cell_volume                      2257.93111238

loop_
_atom_site_label
_atom_site_type_symbol
_atom_type_description
_atom_site_fract_x
_atom_site_fract_y
_atom_site_fract_z
_atom_type_partial_charge
C1    C     C_R   0.640522 0.117356 0.599238 0.557751
C2    C     C_1   0.653050 0.149554 0.668615 0.001538
C3    C     C_R   0.668925 0.656695 0.195422 0.009332
C4    C     C_R   0.612657 0.745942 0.598571 0.546018
C5    C     C_R   0.540458 0.721176 0.224224 0.017343
C6    C     C_R   0.529945 0.700515 0.293443 0.034072
C7    C     C_R   0.769529 0.608628 0.308179 -0.179144
C8    C     C_R   0.782690 0.591494 0.237798 -0.149076
C9    C     C_R   0.423471 0.788634 0.184059 -0.116377
C10   C     C_R   0.301847 0.810759 0.209074 -0.091606
C11   C     C_R   0.293566 0.771414 0.275441 0.010603
C12   C     C_1   0.641624 0.703742 0.667957 0.004277
C13   C     C_R   0.408033 0.712634 0.316471 -0.111404
C14   C     C_R   0.642214 0.670178 0.336444 0.008470
C15   C     C_R   0.145859 0.194053 0.191930 -0.021328
C16   C     C_R   0.241222 0.145334 0.598176 0.546708
C17   C     C_R   0.201199 0.264910 0.222662 0.021854
C18   C     C_R   0.192394 0.279830 0.294002 0.038166
C19   C     C_R   0.133457 0.106216 0.302515 -0.141919
C20   C     C_R   0.108454 0.118433 0.232743 -0.137281
C21   C     C_R   0.251750 0.332605 0.183932 -0.085661
C22   C     C_R   0.267429 0.433133 0.213722 -0.120224
C23   C     C_1   0.126595 0.198722 0.859312 0.002822
C24   C     C_R   0.235744 0.464964 0.282270 -0.143772
C25   C     C_R   0.195722 0.391810 0.321826 -0.095163
C26   C     C_R   0.179553 0.182708 0.333798 -0.010193
C27   C     C_R   0.656603 0.173377 0.185756 -0.003463
C28   C     C_R   0.621796 0.081651 0.394105 0.548751
C29   C     C_R   0.713895 0.037464 0.204489 0.040565
C30   C     C_R   0.716848 0.004563 0.274356 0.031573
C31   C     C_R   0.568823 0.242480 0.299904 -0.132224
C32   C     C_R   0.582550 0.274443 0.233429 -0.152594
C33   C     C_R   0.777711 0.933242 0.155444 -0.087059
C34   C     C_1   0.171567 0.170390 0.727701 -0.030963
C35   C     C_R   0.867617 0.803420 0.175845 -0.086872
C36   C     C_R   0.886169 0.774036 0.244962 -0.059973
C37   C     C_R   0.804421 0.869666 0.293349 -0.060413
C38   C     C_R   0.637657 0.108831 0.322128 0.004050
C39   C     C_R   0.081537 0.231149 0.928600 0.542797
C40   C     C_R   0.617040 0.734000 0.403802 0.534868
C41   C     C_R   0.683596 0.604390 0.929533 0.541692
C42   C     C_R   0.708070 0.206708 0.930162 0.539171
C43   C     C_R   0.085356 0.234002 0.124435 0.528182
C44   C     C_R   0.683589 0.610874 0.125612 0.533573
C45   C     C_1   0.150133 0.182274 0.798948 -0.031266
C46   C     C_R   0.704394 0.208304 0.124428 0.534857
C47   C     C_R   0.240915 0.144815 0.402002 0.535222
C48   C     C_1   0.669775 0.646623 0.860164 0.003318
C49   C     C_1   0.654905 0.683599 0.728431 -0.031411
C50   C     C_1   0.663074 0.666780 0.799705 -0.031682
C51   C     C_2   0.164395 0.799275 0.304204 0.172239
C52   C     C_1   0.195424 0.161062 0.667361 0.004227
C53   C     C_1   0.678131 0.191572 0.860803 0.003706
C54   C     C_1   0.658443 0.167232 0.729015 -0.031534
C55   C     C_1   0.665318 0.181136 0.800342 -0.030787
Cr1   Cr    Cr6+3 0.404720 0.198220 0.499960 1.017762
Cr2   Cr    Cr6+3 0.698290 0.897110 0.500380 1.016784
Cr3   Cr    Cr6+3 0.396970 0.904720 0.499610 1.019325
Cr4   Cr    Cr6+3 0.926180 0.151990 0.028120 1.024270
Cr5   Cr    Cr6+3 0.921330 0.451820 0.027470 1.014078
Cr6   Cr    Cr6+3 0.626260 0.446870 0.028710 1.021745
H1    H     H_    0.857272 0.575646 0.340031 0.112895
H2    H     H_    0.818260 0.834990 0.345056 0.158236
H3    H     H_    0.427349 0.817528 0.131867 0.123182
H4    H     H_    0.215398 0.855230 0.175777 0.148611
H5    H     H_    0.400741 0.674761 0.365773 0.122829
H6    H     H_    0.112212 0.041828 0.333017 0.168391
H7    H     H_    0.275246 0.310946 0.130089 0.128081
H8    H     H_    0.056482 0.071317 0.210988 0.191900
H9    H     H_    0.882325 0.531321 0.216409 0.151374
H10   H     H_    0.159769 0.762317 0.354442 0.092726
H11   H     H_    0.301157 0.488320 0.183316 0.121209
H12   H     H_    0.245009 0.544322 0.305520 0.103196
H13   H     H_    0.163385 0.427864 0.373387 0.138021
H14   H     H_    0.510331 0.324332 0.335114 0.143309
H15   H     H_    0.763917 0.952852 0.101069 0.121948
H16   H     H_    0.540895 0.379004 0.220372 0.138987
H17   H     H_    0.924306 0.726057 0.138175 0.119557
H18   H     H_    0.961162 0.674717 0.261248 0.116704
O1    O     O_R   0.267740 0.231960 0.575440 -0.507769
O2    O     O_R   0.596130 0.579390 0.952730 -0.507397
O3    O     O_R   0.639060 0.321160 0.958670 -0.495836
O4    O     O_R   0.527280 0.186640 0.570530 -0.489638
O5    O     O_R   0.821240 0.124200 0.104370 -0.513400
O6    O     O_R   0.036890 0.167040 0.097840 -0.506260
O7    O     O_R   0.056180 0.349610 0.102880 -0.524361
O8    O     O_R   0.797660 0.564870 0.097950 -0.512603
O9    O     O_R   0.595880 0.584250 0.104270 -0.517714
O10   O     O_R   0.638830 0.325670 0.099150 -0.504677
O11   O     O_3   0.824590 0.350230 0.028100 -0.246727
O12   O     O_R   0.685970 0.784660 0.430010 -0.529265
O13   O     O_R   0.728090 0.003450 0.576380 -0.499484
O14   O     O_R   0.682970 0.789190 0.570490 -0.494545
O15   O     O_R   0.499290 0.771880 0.575530 -0.504956
O16   O     O_R   0.285330 0.030870 0.569730 -0.491801
O17   O     O_R   0.270980 0.227080 0.423890 -0.538499
O18   O     O_R   0.530280 0.182120 0.430050 -0.500953
O19   O     O_R   0.731330 0.998570 0.424830 -0.519360
O20   O     O_2   0.060626 0.868935 0.273219 -0.537627
O21   O     O_R   0.502530 0.767000 0.423990 -0.527760
O22   O     O_R   0.288330 0.026350 0.429250 -0.494542
O23   O     O_3   0.499990 0.000020 0.499980 -0.265460
O24   O     O_R   0.821500 0.119340 0.952830 -0.511672
O25   O     O_R   0.037130 0.162530 0.957360 -0.495113
O26   O     O_R   0.056440 0.344740 0.951340 -0.507189
O27   O     O_R   0.797900 0.560360 0.957470 -0.494871

loop_
_geom_bond_atom_site_label_1
_geom_bond_atom_site_label_2
_ccdc_geom_bond_type
C28   O18   A    
C47   O22   A    
Cr2   O13   S    
C27   C29   A    
C9    H3    S    
C19   C20   A    
C42   O3    A    
C42   O24   A    
C12   C49   T    
C7    C8    A    
C46   O10   A    
Cr2   O23   S    
C23   C45   T    
Cr4   O25   S    
C36   C37   A    
C25   H13   S    
Cr6   O3    S    
C42   C53   S    
C5    C6    A    
C24   H12   S    
C29   C33   A    
C30   C38   A    
C15   C43   S    
C15   C17   A    
C1    C2    S    
C19   C26   A    
C32   H16   S    
C7    C14   A    
C35   C36   A    
C18   C26   A    
C47   O17   A    
C19   H6    S    
Cr3   O23   S    
C4    C12   S    
C44   O8    A    
C9    C10   A    
C48   C50   T    
Cr2   O14   S    
C21   C22   A    
C18   C25   A    
C51   H10   S    
Cr1   O18   S    
C22   H11   S    
C37   H2    S    
Cr5   O8    S    
Cr6   O10   S    
C13   H5    S    
C53   C55   T    
C51   O20   D    
C15   C20   A    
C3    C44   S    
C41   O27   A    
C43   O6    A    
C39   O25   A    
Cr3   O21   S    
Cr4   O5    S    
C3    C8    A    
C2    C54   T    
Cr3   O22   S    
Cr5   O7    S    
C17   C21   A    
C30   C37   A    
C16   O1    A    
Cr4   O11   S    
Cr3   O16   S    
Cr4   O6    S    
C7    H1    S    
C5    C9    A    
C29   C30   A    
Cr6   O9    S    
C6    C14   A    
C33   H15   S    
C31   H14   S    
C31   C32   A    
C28   C38   S    
C41   O2    A    
C17   C18   A    
C34   C45   S    
C24   C25   A    
C26   C47   S    
C4    O15   A    
C27   C46   S    
C1    O13   A    
C21   H7    S    
C46   O5    A    
C20   H8    S    
Cr5   O27   S    
Cr6   O11   S    
Cr1   O4    S    
C10   H4    S    
C28   O19   A    
C39   O26   A    
C54   C55   S    
C16   O16   A    
Cr2   O12   S    
C27   C32   A    
C43   O7    A    
C34   C52   T    
C16   C52   S    
C3    C5    A    
C36   H18   S    
C40   O21   A    
Cr5   O11   S    
C1    O4    A    
C35   H17   S    
C8    H9    S    
Cr1   O1    S    
C31   C38   A    
Cr4   O24   S    
Cr3   O15   S    
Cr1   O23   S    
Cr6   O2    S    
C6    C13   A    
C11   C13   A    
C23   C39   S    
Cr2   O19   S    
C33   C35   A    
C41   C48   S    
C22   C24   A    
C40   O12   A    
Cr1   O17   S    
C11   C51   S    
C10   C11   A    
C14   C40   S    
C4    O14   A    
C49   C50   S    
C44   O9    A    
Cr5   O26   S    
