data_mof_unit_28351.cif
_audit_creation_date              2012-12-10T20:34:53-0500
_audit_creation_method            fapswitch 2.2
_symmetry_space_group_name_H-M    P1
_symmetry_Int_Tables_number       1
_space_group_crystal_system       triclinic
_cell_length_a                    10.733639
_cell_length_b                    10.621233
_cell_length_c                    9.890484
_cell_angle_alpha                 90.049694
_cell_angle_beta                  89.501994
_cell_angle_gamma                 90.952285
_cell_volume                      1127.36087616

loop_
_atom_site_label
_atom_site_type_symbol
_atom_type_description
_atom_site_fract_x
_atom_site_fract_y
_atom_site_fract_z
_atom_type_partial_charge
C1    C     C_R   0.510416 0.260205 0.499722 0.900100
C2    C     C_3   0.878877 0.504409 0.499300 -0.044551
C3    C     C_3   0.929430 0.632551 0.435286 -0.147000
C4    C     C_3   0.929927 0.384815 0.426874 0.227653
C5    C     C_R   0.548022 0.064593 0.621710 0.051210
C6    C     C_R   0.543589 0.129883 0.499351 -0.153660
C7    C     C_R   0.572486 0.065103 0.377889 0.091341
C8    C     C_R   0.566796 0.933783 0.379287 -0.262636
C9    C     C_R   0.536313 0.871117 0.500050 -0.118868
C10   C     C_R   0.542629 0.936155 0.621530 0.082332
C11   C     C_3   0.462517 0.927892 0.745457 -0.464509
C12   C     C_R   0.258429 0.506513 0.501190 0.928101
C13   C     C_3   0.469468 0.070932 0.747847 -0.094573
C14   C     C_R   0.392654 0.476089 0.071612 0.211943
C15   C     C_R   0.600738 0.541391 0.071837 -0.133014
C16   C     C_R   0.599717 0.546225 0.928639 0.443679
C17   C     C_R   0.392637 0.476971 0.929903 0.075477
C18   C     C_3   0.306890 0.366109 0.922095 -0.502831
C19   C     C_3   0.306558 0.363594 0.076078 -0.129288
C20   C     C_R   0.506862 0.740109 0.499919 0.857913
C21   C     C_R   0.742261 0.501105 0.499606 0.903753
C22   C     C_3   0.069268 0.509560 0.653914 -0.161629
C23   C     C_3   0.925977 0.503539 0.649876 -0.149779
C24   C     C_3   0.075751 0.633399 0.425634 0.220696
C25   C     C_3   0.074656 0.389203 0.428721 -0.231839
C26   C     C_3   0.122273 0.511896 0.503752 0.018970
H1    H     H_    0.577751 0.882090 0.285541 0.166469
H2    H     H_    0.367421 0.890144 0.724011 0.181359
H3    H     H_    0.510597 0.881289 0.830594 0.204824
H4    H     H_    0.377917 0.116100 0.733284 0.161801
H5    H     H_    0.681400 0.575367 0.125554 0.161766
H6    H     H_    0.103215 0.423569 0.703632 0.167664
H7    H     H_    0.214642 0.390981 0.882579 0.166938
H8    H     H_    0.349996 0.284341 0.872514 0.220635
H9    H     H_    0.213770 0.383487 0.121061 0.128564
H10   H     H_    0.889344 0.590424 0.698275 0.215824
H11   H     H_    0.901506 0.707293 0.508086 0.134363
H12   H     H_    0.111083 0.391724 0.323933 0.168056
H13   H     H_    0.896552 0.301369 0.485016 0.144613
N1    N     N_R   0.499150 0.499140 0.142800 -0.130377
N2    N     N_R   0.499150 0.499180 0.857150 -0.156127
O1    O     O_R   0.500020 0.316790 0.614690 -0.626567
O2    O     O_R   0.500000 0.316760 0.385350 -0.581984
O3    O     O_R   0.314800 0.500000 0.614670 -0.634772
O4    O     O_R   0.314790 0.499960 0.385330 -0.612650
O5    O     O_R   0.500000 0.683240 0.614650 -0.649169
O6    O     O_R   0.499980 0.683210 0.385310 -0.629780
O7    O     O_R   0.685210 0.500040 0.614670 -0.604759
O8    O     O_R   0.685200 0.500000 0.385330 -0.595483
Zn1   Zn    Zn3+2 0.500010 0.500020 0.653130 0.931415
Zn2   Zn    Zn3+2 0.499990 0.499980 0.346870 0.965075
N3    N     N_3   0.108811 0.617980 0.737576 -0.493792
H14   H     H_    0.201812 0.612353 0.765377 0.221779
H15   H     H_    0.060790 0.613842 0.830063 0.184875
O9    O     O_3   0.879684 0.366297 0.296649 -0.784167
H16   H     H_    0.936812 0.400523 0.226390 0.321165
N4    N     N_3   0.119867 0.631656 0.283575 -0.432071
H17   H     H_    0.106378 0.719919 0.239583 0.217966
H18   H     H_    0.070917 0.566907 0.224481 0.152756
N5    N     N_3   0.872441 0.669549 0.306856 -0.462894
H19   H     H_    0.784582 0.707533 0.325183 0.192319
H20   H     H_    0.861852 0.592963 0.242365 0.227066
N6    N     N_3   0.599338 0.131104 0.253848 -0.398997
H21   H     H_    0.684909 0.178039 0.265838 0.230663
H22   H     H_    0.610938 0.067892 0.173780 0.179874
N7    N     N_3   0.539181 0.119815 0.864083 -0.440939
H23   H     H_    0.625457 0.075728 0.870407 0.196151
H24   H     H_    0.558614 0.215318 0.847584 0.224094
O10   O     O_3   0.698552 0.605179 0.865325 -0.797786
H25   H     H_    0.664215 0.650982 0.787544 0.361306
N8    N     N_3   0.364841 0.251354 0.130344 -0.375785
H26   H     H_    0.325020 0.172408 0.083227 0.191673
H27   H     H_    0.336803 0.243850 0.231409 0.219945
N9    N     N_3   0.876244 0.396651 0.730075 -0.413227
H28   H     H_    0.893507 0.414780 0.832263 0.213281
H29   H     H_    0.921258 0.313149 0.706475 0.149596
N10   N     N_3   0.125931 0.751494 0.485000 -0.461044
H30   H     H_    0.080759 0.778651 0.573831 0.200391
H31   H     H_    0.221382 0.745621 0.503204 0.177417
N11   N     N_3   0.126180 0.273764 0.486929 -0.482614
H32   H     H_    0.107479 0.198914 0.420908 0.196085
H33   H     H_    0.083028 0.250708 0.578609 0.168218

loop_
_geom_bond_atom_site_label_1
_geom_bond_atom_site_label_2
_ccdc_geom_bond_type
N7    H24   S    
O9    H16   S    
N6    H22   S    
C25   N11   S    
C19   N8    S    
C21   O8    A    
C4    C25   S    
C7    C8    A    
N10   H30   S    
N9    H29   S    
C24   C26   S    
C5    C6    A    
N4    H18   S    
O4    Zn2   S    
C15   C16   A    
N5    H20   S    
C18   C19   S    
C1    O2    A    
C8    C9    A    
O8    Zn2   S    
C9    C10   A    
C5    C13   S    
C21   O7    A    
C3    N5    S    
O7    Zn1   S    
N7    H23   S    
C14   C17   A    
C3    C24   S    
N3    H15   S    
C13   N7    S    
N10   H31   S    
N9    H28   S    
C1    C6    S    
C13   H4    S    
N11   H33   S    
N8    H27   S    
N11   H32   S    
O6    Zn2   S    
C25   C26   S    
C12   C26   S    
N5    H19   S    
C2    C4    S    
C25   H12   S    
C1    O1    A    
C9    C20   S    
C4    H13   S    
C2    C21   S    
C17   C18   S    
C18   H8    S    
C7    N6    S    
C22   H6    S    
O1    Zn1   S    
C4    O9    S    
C23   N9    S    
N2    Zn1   S    
N3    H14   S    
C22   N3    S    
C24   N4    S    
O3    Zn1   S    
C14   C19   S    
C16   O10   S    
C12   O4    A    
C15   H5    S    
C6    C7    A    
N1    Zn2   S    
O5    Zn1   S    
C2    C3    S    
C5    C10   A    
C12   O3    A    
C19   H9    S    
C11   C13   S    
O2    Zn2   S    
N4    H17   S    
C11   H2    S    
O10   H25   S    
C18   H7    S    
C17   N2    A    
C15   N1    A    
C20   O6    A    
C10   C11   S    
C14   N1    A    
N6    H21   S    
C24   N10   S    
N8    H26   S    
C11   H3    S    
C23   H10   S    
C22   C26   S    
C2    C23   S    
C8    H1    S    
C22   C23   S    
C16   N2    A    
C20   O5    A    
C3    H11   S    
