data_mof_unit_54211.cif
_audit_creation_date              2012-12-10T16:34:44-0500
_audit_creation_method            fapswitch 2.2
_symmetry_space_group_name_H-M    P1
_symmetry_Int_Tables_number       1
_space_group_crystal_system       triclinic
_cell_length_a                    28.249322
_cell_length_b                    18.45702
_cell_length_c                    17.074394
_cell_angle_alpha                 89.657297
_cell_angle_beta                  60.664487
_cell_angle_gamma                 89.708722
_cell_volume                      7760.78464822

loop_
_atom_site_label
_atom_site_type_symbol
_atom_type_description
_atom_site_fract_x
_atom_site_fract_y
_atom_site_fract_z
_atom_type_partial_charge
C1    C     C_R   0.701801 0.268628 0.675906 0.876414
C2    C     C_R   0.298058 0.731102 0.324159 0.872066
C3    C     C_R   0.296631 0.272562 0.325313 0.893368
C4    C     C_R   0.701816 0.731311 0.675797 0.890144
C5    C     C_R   0.201841 0.768706 0.675901 0.911455
C6    C     C_R   0.798235 0.231433 0.324053 0.910598
C7    C     C_R   0.798220 0.768613 0.324201 0.890142
C8    C     C_R   0.200389 0.234256 0.676255 0.882532
C9    C     C_R   0.905767 0.501354 0.482481 0.069027
C10   C     C_R   0.094026 0.498621 0.518170 0.070159
C11   C     C_R   0.416504 0.999807 0.453085 0.068458
C12   C     C_R   0.584272 0.000192 0.543742 0.065986
C13   C     C_R   0.071293 0.377789 0.583421 -0.227202
C14   C     C_R   0.928534 0.622171 0.417197 -0.237581
C15   C     C_R   0.881257 0.383325 0.554930 -0.237176
C16   C     C_R   0.118528 0.616619 0.445655 -0.242230
C17   C     C_R   0.577667 0.869533 0.557588 -0.232775
C18   C     C_R   0.422979 0.130485 0.439296 -0.228777
C19   C     C_R   0.422206 0.868960 0.443970 -0.223375
C20   C     C_R   0.578498 0.131029 0.552787 -0.235517
C21   C     C_R   0.719864 0.261321 0.954157 0.029917
C22   C     C_R   0.276606 0.730735 0.049399 -0.049228
C23   C     C_R   0.271518 0.286755 0.053220 -0.035473
C24   C     C_R   0.719594 0.737442 0.954840 0.014635
C25   C     C_R   0.222066 0.767210 0.951926 -0.048057
C26   C     C_R   0.780597 0.238812 0.045170 0.014858
C27   C     C_R   0.780659 0.761509 0.045183 0.027111
C28   C     C_R   0.209212 0.253978 0.965860 -0.027457
C29   C     C_R   0.774540 0.282605 0.914976 -0.202240
C30   C     C_R   0.271677 0.803223 0.029078 -0.140935
C31   C     C_R   0.229020 0.235936 0.088927 -0.126706
C32   C     C_R   0.774620 0.717372 0.915437 -0.268462
C33   C     C_R   0.226890 0.694728 0.972403 -0.135376
C34   C     C_R   0.725899 0.217772 0.084461 -0.270058
C35   C     C_R   0.725662 0.781823 0.084441 -0.194664
C36   C     C_R   0.250379 0.307256 0.931656 -0.136336
C37   C     C_R   0.805187 0.272153 0.959182 0.017045
C38   C     C_R   0.245132 0.822310 0.980194 0.000542
C39   C     C_R   0.193651 0.227567 0.053852 0.015557
C40   C     C_R   0.805217 0.727833 0.959490 0.015766
C41   C     C_R   0.253373 0.675639 0.021416 0.009344
C42   C     C_R   0.695437 0.227498 0.040040 0.016295
C43   C     C_R   0.694886 0.770618 0.040638 0.012176
C44   C     C_R   0.278030 0.328197 0.977953 -0.007166
C45   C     C_R   0.643538 0.325521 0.946255 -0.118915
C46   C     C_R   0.354986 0.671392 0.055128 -0.208855
C47   C     C_R   0.358752 0.324547 0.052404 -0.207272
C48   C     C_R   0.643090 0.674163 0.946703 -0.214714
C49   C     C_R   0.144011 0.827001 0.945726 -0.209566
C50   C     C_R   0.857074 0.175310 0.053209 -0.217507
C51   C     C_R   0.856813 0.825843 0.053390 -0.114625
C52   C     C_R   0.146427 0.169688 0.939942 -0.214257
C53   C     C_R   0.616594 0.346872 0.898576 -0.075795
C54   C     C_R   0.382916 0.652180 0.101822 -0.070682
C55   C     C_R   0.386067 0.344069 0.099672 -0.066979
C56   C     C_R   0.616307 0.653272 0.898739 -0.062282
C57   C     C_R   0.116573 0.847087 0.898541 -0.064770
C58   C     C_R   0.883778 0.153635 0.101130 -0.064729
C59   C     C_R   0.883592 0.846847 0.101348 -0.075037
C60   C     C_R   0.117833 0.150954 0.895019 -0.072940
C61   C     C_R   0.633180 0.321937 0.813462 -0.256171
C62   C     C_R   0.366590 0.677819 0.186548 -0.257696
C63   C     C_R   0.367617 0.321490 0.186321 -0.249512
C64   C     C_R   0.632985 0.678570 0.813603 -0.263881
C65   C     C_R   0.133125 0.821839 0.813555 -0.249698
C66   C     C_R   0.867046 0.178394 0.186375 -0.257457
C67   C     C_R   0.866966 0.821538 0.186468 -0.260331
C68   C     C_R   0.131122 0.180666 0.813210 -0.252939
C69   C     C_R   0.679429 0.280867 0.771090 -0.051690
C70   C     C_R   0.319865 0.717929 0.229323 -0.047903
C71   C     C_R   0.317514 0.289910 0.231821 -0.053988
C72   C     C_R   0.679313 0.719152 0.771163 -0.054148
C73   C     C_R   0.179701 0.781371 0.770975 -0.062461
C74   C     C_R   0.820767 0.219439 0.228717 -0.060918
C75   C     C_R   0.820766 0.780711 0.228840 -0.056700
C76   C     C_R   0.175298 0.225340 0.772839 -0.061672
C77   C     C_R   0.707312 0.258375 0.817294 -0.195257
C78   C     C_R   0.290847 0.738100 0.184142 -0.192582
C79   C     C_R   0.285173 0.280931 0.190358 -0.177996
C80   C     C_R   0.707124 0.741098 0.817469 -0.182844
C81   C     C_R   0.208266 0.760399 0.816651 -0.181785
C82   C     C_R   0.793025 0.242085 0.182302 -0.183895
C83   C     C_R   0.793083 0.758458 0.182478 -0.185275
C84   C     C_R   0.199334 0.253240 0.822513 -0.167005
C85   C     C_R   0.691438 0.129112 0.533801 0.904366
C86   C     C_R   0.308618 0.870843 0.465868 0.901941
C87   C     C_R   0.308735 0.129357 0.465424 0.907714
C88   C     C_R   0.691316 0.870690 0.534258 0.899252
C89   C     C_R   0.196804 0.627760 0.517151 0.908712
C90   C     C_R   0.803145 0.372227 0.483002 0.908197
C91   C     C_R   0.808897 0.629632 0.464300 0.896257
C92   C     C_R   0.191082 0.370348 0.535784 0.882102
C93   C     C_R   0.688940 0.279921 0.906264 0.141578
C94   C     C_R   0.308177 0.714121 0.096482 0.057949
C95   C     C_R   0.305627 0.297184 0.098623 0.076561
C96   C     C_R   0.688629 0.719416 0.906737 0.057500
C97   C     C_R   0.190663 0.783959 0.904585 0.055944
C98   C     C_R   0.811593 0.220761 0.093153 0.060247
C99   C     C_R   0.811487 0.780196 0.093276 0.137142
C100  C     C_R   0.183484 0.227571 0.910431 0.089627
C101  C     C_R   0.075955 0.097001 0.931556 0.908755
C102  C     C_R   0.925863 0.900468 0.066183 0.910225
C103  C     C_R   0.925954 0.099710 0.065934 0.911109
C104  C     C_R   0.073993 0.900283 0.934103 0.907262
C105  C     C_R   0.574069 0.599612 0.933875 0.907554
C106  C     C_R   0.428373 0.397588 0.063912 0.905014
C107  C     C_R   0.425840 0.599504 0.066035 0.909850
C108  C     C_R   0.574205 0.400484 0.933926 0.905111
C109  C     C_R   0.539477 0.131574 0.525083 0.102395
C110  C     C_R   0.461623 0.868409 0.470819 0.109623
C111  C     C_R   0.462555 0.131294 0.465756 0.104662
C112  C     C_R   0.538514 0.868708 0.530212 0.105422
C113  C     C_R   0.072143 0.617435 0.435978 0.108691
C114  C     C_R   0.927580 0.382572 0.564828 0.094183
C115  C     C_R   0.976738 0.620439 0.422051 0.109711
C116  C     C_R   0.023009 0.379572 0.578768 0.097485
C117  C     C_R   0.519819 0.197187 0.510001 -0.200093
C118  C     C_R   0.481377 0.802800 0.485679 -0.178510
C119  C     C_R   0.482780 0.197021 0.478043 -0.199971
C120  C     C_R   0.518396 0.802973 0.517678 -0.192111
C121  C     C_R   0.061322 0.676223 0.394465 -0.200037
C122  C     C_R   0.938365 0.323839 0.606473 -0.145506
C123  C     C_R   0.013795 0.677966 0.388184 -0.199464
C124  C     C_R   0.985901 0.322097 0.612757 -0.140240
C125  C     C_R   0.480938 0.065603 0.483034 0.033196
C126  C     C_R   0.520277 0.934388 0.512665 0.035993
C127  C     C_R   0.520780 0.065731 0.510062 0.033206
C128  C     C_R   0.480443 0.934256 0.485620 0.035694
C129  C     C_R   0.988195 0.560279 0.461447 0.028616
C130  C     C_R   0.011533 0.439735 0.539398 0.029245
C131  C     C_R   0.035630 0.559121 0.469298 0.032645
C132  C     C_R   0.964092 0.440892 0.531544 0.032506
C133  C     C_R   0.952611 0.500946 0.492060 -0.046826
C134  C     C_R   0.047131 0.499054 0.508734 -0.045455
C135  C     C_R   0.460051 0.999866 0.472060 -0.046493
C136  C     C_R   0.541074 0.000126 0.523872 -0.048408
C137  C     C_R   0.872056 0.439942 0.507455 0.051408
C138  C     C_R   0.127764 0.560016 0.493079 0.050326
C139  C     C_R   0.108012 0.436399 0.551100 0.064177
C140  C     C_R   0.891834 0.563557 0.449434 0.062283
C141  C     C_R   0.393983 0.933581 0.446391 0.056426
C142  C     C_R   0.606568 0.066411 0.551048 0.058559
C143  C     C_R   0.606158 0.933970 0.553145 0.059045
C144  C     C_R   0.394365 0.066043 0.444355 0.059491
C145  C     C_R   0.830404 0.438013 0.483353 -0.109834
C146  C     C_R   0.169488 0.561955 0.516994 -0.109695
C147  C     C_R   0.158741 0.435696 0.550112 -0.116351
C148  C     C_R   0.841174 0.564259 0.450207 -0.117880
C149  C     C_R   0.343407 0.934851 0.445595 -0.113077
C150  C     C_R   0.656741 0.065122 0.553260 -0.111507
C151  C     C_R   0.656520 0.934857 0.554358 -0.113462
C152  C     C_R   0.343611 0.065175 0.444540 -0.114757
C153  C     C_R   0.815119 0.500149 0.456583 -0.293181
C154  C     C_R   0.184803 0.499819 0.543713 -0.291135
C155  C     C_R   0.320790 0.000121 0.440787 -0.294723
C156  C     C_R   0.679133 0.999882 0.558715 -0.299717
H1    H     H_    0.993693 0.275692 0.643992 0.147285
H2    H     H_    0.005960 0.724416 0.357069 0.143633
H3    H     H_    0.910460 0.278649 0.632886 0.144881
H4    H     H_    0.089186 0.721464 0.368188 0.142788
H5    H     H_    0.532423 0.751724 0.530199 0.138589
H6    H     H_    0.468704 0.248271 0.465623 0.140427
H7    H     H_    0.466976 0.751428 0.475170 0.138480
H8    H     H_    0.534185 0.248561 0.520578 0.140216
H9    H     H_    0.780153 0.499657 0.446296 0.196921
H10   H     H_    0.219819 0.500314 0.553863 0.198293
H11   H     H_    0.282094 0.000287 0.441861 0.196805
H12   H     H_    0.717518 0.999713 0.558711 0.195453
H13   H     H_    0.078906 0.331813 0.615414 0.162205
H14   H     H_    0.920990 0.668107 0.385067 0.163879
H15   H     H_    0.852266 0.340109 0.586647 0.171842
H16   H     H_    0.147551 0.659767 0.413751 0.172595
H17   H     H_    0.584733 0.819101 0.582436 0.176575
H18   H     H_    0.415494 0.180943 0.415029 0.177139
H19   H     H_    0.414865 0.818128 0.421118 0.180470
H20   H     H_    0.585445 0.181860 0.576141 0.180967
H21   H     H_    0.792923 0.309555 0.850141 0.180213
H22   H     H_    0.290042 0.844986 0.049766 0.189918
H23   H     H_    0.220416 0.205443 0.148561 0.179490
H24   H     H_    0.793423 0.690782 0.850602 0.142771
H25   H     H_    0.208520 0.652992 0.951690 0.190953
H26   H     H_    0.707324 0.190958 0.149424 0.143291
H27   H     H_    0.707058 0.808601 0.149106 0.186512
H28   H     H_    0.259026 0.337142 0.871792 0.174588
H29   H     H_    0.630447 0.346055 0.013139 0.141879
H30   H     H_    0.368286 0.651062 0.988080 0.160149
H31   H     H_    0.377960 0.335033 0.981040 0.148104
H32   H     H_    0.629880 0.653262 0.013691 0.155362
H33   H     H_    0.130536 0.847039 0.012954 0.157918
H34   H     H_    0.870243 0.154775 0.986299 0.153990
H35   H     H_    0.869996 0.846641 0.986367 0.142931
H36   H     H_    0.140558 0.136171 0.995621 0.162812
H37   H     H_    0.612231 0.339042 0.777556 0.178373
H38   H     H_    0.388307 0.662239 0.221731 0.177318
H39   H     H_    0.390567 0.333271 0.220355 0.174797
H40   H     H_    0.612097 0.661924 0.777691 0.176461
H41   H     H_    0.111769 0.838087 0.778007 0.178792
H42   H     H_    0.887857 0.161073 0.222425 0.179593
H43   H     H_    0.887803 0.838318 0.222414 0.177218
H44   H     H_    0.110629 0.163010 0.777058 0.177053
H45   H     H_    0.743960 0.225996 0.783730 0.153565
H46   H     H_    0.253639 0.769335 0.218062 0.158670
H47   H     H_    0.243663 0.263481 0.231196 0.153975
H48   H     H_    0.743820 0.773156 0.783732 0.156591
H49   H     H_    0.245376 0.728953 0.782893 0.163378
H50   H     H_    0.756307 0.274324 0.215867 0.155981
H51   H     H_    0.756540 0.726090 0.216121 0.158040
H52   H     H_    0.232310 0.290949 0.789134 0.146735
O1    O     O_R   0.746490 0.236330 0.638080 -0.648985
O2    O     O_R   0.253510 0.763670 0.361920 -0.648647
O3    O     O_R   0.253510 0.236330 0.361920 -0.628813
O4    O     O_R   0.746490 0.763670 0.638080 -0.634880
O5    O     O_R   0.246490 0.736330 0.638080 -0.630691
O6    O     O_R   0.753510 0.263670 0.361920 -0.634078
O7    O     O_R   0.753510 0.736330 0.361920 -0.632514
O8    O     O_R   0.246490 0.263670 0.638080 -0.626973
O9    O     O_R   0.674170 0.186160 0.516270 -0.644463
O10   O     O_R   0.325830 0.813840 0.483730 -0.644223
O11   O     O_R   0.325830 0.186160 0.483730 -0.637996
O12   O     O_R   0.674170 0.813840 0.516270 -0.639986
O13   O     O_R   0.174170 0.686160 0.516270 -0.637200
O14   O     O_R   0.825830 0.313840 0.483730 -0.637248
O15   O     O_R   0.825830 0.686160 0.483730 -0.631599
O16   O     O_R   0.174170 0.313840 0.516270 -0.633513
O17   O     O_R   0.739960 0.127620 0.525000 -0.622904
O18   O     O_R   0.260040 0.872380 0.475000 -0.622261
O19   O     O_R   0.260040 0.127620 0.475000 -0.619415
O20   O     O_R   0.739960 0.872380 0.525000 -0.624028
O21   O     O_R   0.239960 0.627620 0.525000 -0.628815
O22   O     O_R   0.760040 0.372380 0.475000 -0.630451
O23   O     O_R   0.760040 0.627620 0.475000 -0.623834
O24   O     O_R   0.239960 0.372380 0.525000 -0.626466
O25   O     O_R   0.680700 0.294870 0.629350 -0.636459
O26   O     O_R   0.319300 0.705130 0.370650 -0.636227
O27   O     O_R   0.319300 0.294870 0.370650 -0.635638
O28   O     O_R   0.680700 0.705130 0.629350 -0.632308
O29   O     O_R   0.180700 0.794870 0.629350 -0.621349
O30   O     O_R   0.819300 0.205130 0.370650 -0.619927
O31   O     O_R   0.819300 0.794870 0.370650 -0.633188
O32   O     O_R   0.180700 0.205130 0.629350 -0.632602
O33   O     O_R   0.062020 0.072840 0.007170 -0.619372
O34   O     O_R   0.937980 0.927160 0.992830 -0.626736
O35   O     O_R   0.937980 0.072840 0.992830 -0.626750
O36   O     O_R   0.062020 0.927160 0.007170 -0.625676
O37   O     O_R   0.562020 0.572840 0.007170 -0.626596
O38   O     O_R   0.437980 0.427160 0.992830 -0.622316
O39   O     O_R   0.437980 0.572840 0.992830 -0.622586
O40   O     O_R   0.562020 0.427160 0.007170 -0.628223
O41   O     O_R   0.947860 0.073950 0.109290 -0.619674
O42   O     O_R   0.052140 0.926050 0.890710 -0.623257
O43   O     O_R   0.052140 0.073950 0.890710 -0.626442
O44   O     O_R   0.947860 0.926050 0.109290 -0.622990
O45   O     O_R   0.447860 0.573950 0.109290 -0.622338
O46   O     O_R   0.552140 0.426050 0.890710 -0.623922
O47   O     O_R   0.552140 0.573950 0.890710 -0.623440
O48   O     O_R   0.447860 0.426050 0.109290 -0.620188
Zn1   Zn    Zn3+2 0.792340 0.208750 0.507670 0.954184
Zn2   Zn    Zn3+2 0.207660 0.791250 0.492330 0.955122
Zn3   Zn    Zn3+2 0.207660 0.208750 0.492330 0.968715
Zn4   Zn    Zn3+2 0.792340 0.791250 0.507670 0.952050
Zn5   Zn    Zn3+2 0.292340 0.708750 0.507670 0.950515
Zn6   Zn    Zn3+2 0.707660 0.291250 0.492330 0.941591
Zn7   Zn    Zn3+2 0.707660 0.708750 0.492330 0.948964
Zn8   Zn    Zn3+2 0.292340 0.291250 0.507670 0.954990
Zn9   Zn    Zn3+2 0.505960 0.500000 0.080520 0.946683
Zn10  Zn    Zn3+2 0.494040 0.500000 0.919480 0.962246
Zn11  Zn    Zn3+2 0.005960 0.000000 0.080520 0.970832
Zn12  Zn    Zn3+2 0.994040 1.000000 0.919480 0.948189
C157  C     C_2   0.639214 0.198569 0.085068 0.371758
H53   H     H_    0.619340 0.185409 0.156198 0.065536
O49   O     O_2   0.615154 0.186394 0.043574 -0.553728
C158  C     C_2   0.254414 0.598431 0.045862 0.380759
H54   H     H_    0.269924 0.583058 0.090447 0.071337
O50   O     O_2   0.237312 0.550719 0.017126 -0.564650
C159  C     C_2   0.308560 0.397502 0.951490 0.437210
H55   H     H_    0.315224 0.427526 0.999637 0.082431
O51   O     O_2   0.325610 0.422844 0.876201 -0.562104
C160  C     C_2   0.637821 0.796827 0.083716 0.373329
H56   H     H_    0.615514 0.797149 0.047067 0.080444
O52   O     O_2   0.614958 0.819076 0.160886 -0.565263
C161  C     C_2   0.243780 0.899574 0.956248 0.387041
H57   H     H_    0.229464 0.914771 0.909994 0.081361
O53   O     O_2   0.259118 0.947534 0.987482 -0.558158
C162  C     C_2   0.861939 0.299177 0.916318 0.364554
H58   H     H_    0.884185 0.299489 0.953064 0.083290
O54   O     O_2   0.884585 0.322140 0.839249 -0.580652
C163  C     C_2   0.861757 0.699679 0.914306 0.374656
H59   H     H_    0.881630 0.686732 0.843255 0.066103
O55   O     O_2   0.886103 0.687857 0.955603 -0.553335
C164  C     C_2   0.137561 0.203422 0.117645 0.363161
H60   H     H_    0.103953 0.220743 0.108103 0.075452
O56   O     O_2   0.127984 0.165394 0.182532 -0.563892

loop_
_geom_bond_atom_site_label_1
_geom_bond_atom_site_label_2
_ccdc_geom_bond_type
O3    Zn3   S    
O27   Zn8   S    
C4    O28   A    
C34   C42   A    
C14   H14   S    
C16   C113  A    
C110  C118  A    
C6    O30   A    
C27   C99   S    
C54   C107  S    
C13   C139  A    
C162  H58   S    
C48   H32   S    
C117  C119  A    
C92   O24   A    
C35   H27   S    
C30   C38   A    
C41   C158  S    
C3    O27   A    
O39   Zn10  S    
C109  C127  A    
O26   Zn5   S    
C1    O25   A    
C158  H54   S    
C111  C125  A    
C163  O55   D    
C125  C135  A    
C143  C151  A    
C126  C136  A    
C19   C141  A    
C29   H21   S    
C92   C147  S    
C82   C98   A    
C76   C84   A    
C130  C134  A    
C73   C81   A    
C17   H17   S    
C16   C138  A    
C104  O42   A    
C84   C100  A    
C92   O16   A    
C127  C136  A    
C128  C135  A    
C112  C120  A    
C27   C35   A    
C21   C29   A    
C23   C31   A    
C24   C32   A    
O44   Zn11  S    
O1    Zn1   S    
C146  C154  A    
C5    O5    A    
C46   H30   S    
C37   C162  S    
C129  C133  A    
C10   C134  A    
C63   C71   A    
C157  O49   D    
C36   C44   A    
C148  C153  A    
C62   H38   S    
C57   C104  S    
O46   Zn10  S    
C48   C96   A    
C59   C102  S    
O37   Zn9   S    
O11   Zn8   S    
C8    O8    A    
O47   Zn10  S    
C108  O40   A    
C24   C96   S    
C149  C155  A    
C53   C108  S    
C45   H29   S    
C21   C93   S    
C78   C94   A    
C23   C95   S    
O32   Zn3   S    
C118  C120  A    
C121  C123  A    
C49   C97   A    
C21   C42   A    
C116  C130  A    
O28   Zn7   S    
O5    Zn5   S    
O29   Zn2   S    
C125  C127  A    
C24   C43   A    
C32   H24   S    
C10   C138  A    
C110  C128  A    
C15   C137  A    
C9    C133  A    
C69   C77   A    
C45   C93   A    
C71   C79   A    
C67   C75   A    
C62   C70   A    
C89   O13   A    
C9    C140  A    
C156  H12   S    
C66   C74   A    
C8    C76   S    
C49   C57   A    
C111  C119  A    
C86   O10   A    
C83   H51   S    
C52   C60   A    
C38   C161  S    
C59   C67   A    
C53   C61   A    
C55   C63   A    
C56   C64   A    
C102  O34   A    
O34   Zn12  S    
C35   C43   A    
C13   H13   S    
C45   C53   A    
C22   C94   S    
C8    O32   A    
C3    O3    A    
C50   C98   A    
C1    O1    A    
C103  O41   A    
C106  O48   A    
C28   C36   A    
C155  H11   S    
O40   Zn9   S    
C52   C100  A    
C91   O23   A    
C25   C38   A    
C84   H52   S    
C46   C94   A    
C27   C40   A    
C30   H22   S    
C11   C141  A    
C105  O37   A    
C66   H42   S    
O16   Zn3   S    
C18   H18   S    
C25   C97   S    
C14   C140  A    
C87   C152  S    
C88   C151  S    
O12   Zn7   S    
C85   O17   A    
C47   H31   S    
O13   Zn2   S    
C61   H37   S    
C82   H50   S    
C51   H35   S    
O23   Zn7   S    
C126  C128  A    
O24   Zn8   S    
C153  H9    S    
C77   H45   S    
O20   Zn4   S    
O21   Zn5   S    
C161  O53   D    
C12   C143  A    
O36   Zn11  S    
O41   Zn11  S    
C162  O54   D    
O42   Zn12  S    
C144  C152  A    
C20   H20   S    
C138  C146  A    
C64   H40   S    
C5    C73   S    
C19   H19   S    
O14   Zn1   S    
C113  C121  A    
C158  O50   D    
C12   C136  A    
O10   Zn5   S    
C160  H56   S    
C90   O22   A    
O38   Zn10  S    
C122  C124  A    
C25   C33   A    
O48   Zn9   S    
O22   Zn6   S    
C159  H55   S    
C131  C134  A    
O18   Zn2   S    
C109  C117  A    
C5    O29   A    
C137  C145  A    
C90   C145  S    
C67   H43   S    
C22   C41   A    
C14   C115  A    
C107  O45   A    
O30   Zn1   S    
C164  H60   S    
C85   C150  S    
C9    C137  A    
C2    O26   A    
C121  H4    S    
C122  H3    S    
C22   C30   A    
C112  C126  A    
C108  O46   A    
C47   C55   A    
C83   C99   A    
C157  H53   S    
C101  O43   A    
C74   C82   A    
C119  H6    S    
C6    C74   S    
C117  H8    S    
C118  H7    S    
C55   C106  S    
C50   C58   A    
O7    Zn7   S    
O31   Zn4   S    
C115  C123  A    
O35   Zn12  S    
O8    Zn8   S    
C54   C62   A    
C28   C39   A    
O4    Zn4   S    
C1    C69   S    
C23   C44   A    
C88   O12   A    
C31   H23   S    
C130  C132  A    
C79   C95   A    
C11   C135  A    
C163  H59   S    
C6    O6    A    
C152  C155  A    
C124  H1    S    
C46   C54   A    
C15   H15   S    
C151  C156  A    
C18   C111  A    
C87   O19   A    
C33   H25   S    
C63   H39   S    
C68   C76   A    
C10   C139  A    
C91   O15   A    
C4    C72   S    
C116  C124  A    
O6    Zn6   S    
C57   C65   A    
C26   C37   A    
O2    Zn2   S    
C40   C163  S    
C17   C143  A    
C33   C41   A    
C142  C150  A    
C18   C144  A    
C75   C83   A    
C80   H48   S    
C77   C93   A    
C12   C142  A    
C50   H34   S    
C56   C105  S    
C13   C116  A    
C44   C159  S    
C60   C68   A    
C72   C80   A    
C29   C37   A    
C154  H10   S    
C2    C70   S    
O43   Zn12  S    
C7    O7    A    
O25   Zn6   S    
C70   C78   A    
C3    C71   S    
C140  C148  A    
C141  C149  A    
C88   O20   A    
C139  C147  A    
C102  O44   A    
C107  O39   A    
C159  O51   D    
C90   O14   A    
O15   Zn4   S    
C49   H33   S    
C65   C73   A    
C52   H36   S    
C147  C154  A    
C85   O9    A    
C58   C66   A    
C132  C133  A    
C103  O35   A    
C36   H28   S    
C87   O11   A    
C80   C96   A    
C101  O33   A    
C11   C144  A    
O19   Zn3   S    
C145  C153  A    
C28   C100  S    
C64   C72   A    
C150  C156  A    
C39   C164  S    
C91   C148  S    
C26   C34   A    
C51   C99   A    
C89   C146  S    
C2    O2    A    
C20   C142  A    
C86   C149  S    
C7    C75   S    
O45   Zn9   S    
C161  H57   S    
C104  O36   A    
C16   H16   S    
O33   Zn11  S    
C15   C114  A    
C106  O38   A    
C120  H5    S    
C26   C98   S    
C65   H41   S    
C7    O31   A    
C79   H47   S    
C86   O18   A    
C160  O52   D    
C51   C59   A    
C60   C101  S    
C17   C112  A    
C81   H49   S    
C115  C129  A    
C19   C110  A    
C61   C69   A    
C48   C56   A    
C47   C95   A    
O9    Zn6   S    
C113  C131  A    
C114  C132  A    
C78   H46   S    
C123  H2    S    
C4    O4    A    
C68   H44   S    
C42   C157  S    
O17   Zn1   S    
C43   C160  S    
C81   C97   A    
C31   C39   A    
C34   H26   S    
C164  O56   D    
C32   C40   A    
C20   C109  A    
C114  C122  A    
C105  O47   A    
C58   C103  S    
C89   O21   A    
C129  C131  A    
