data_mof_unit_40993.cif
_audit_creation_date              2012-12-11T15:52:34-0500
_audit_creation_method            fapswitch 2.2
_symmetry_space_group_name_H-M    P1
_symmetry_Int_Tables_number       1
_space_group_crystal_system       triclinic
_cell_length_a                    6.92469
_cell_length_b                    14.555945
_cell_length_c                    16.012153
_cell_angle_alpha                 90.26265
_cell_angle_beta                  89.928669
_cell_angle_gamma                 90.064777
_cell_volume                      1613.93224547

loop_
_atom_site_label
_atom_site_type_symbol
_atom_type_description
_atom_site_fract_x
_atom_site_fract_y
_atom_site_fract_z
_atom_type_partial_charge
O1    O     O_R   0.494400 0.415640 0.412830 -0.544476
O2    O     O_R   0.823920 0.405510 0.586560 -0.528189
O3    O     O_R   0.994250 0.584360 0.587170 -0.541503
C1    C     C_R   0.654103 0.380867 0.613255 0.681050
O4    O     O_R   0.824110 0.404610 0.413450 -0.541740
O5    O     O_R   0.994440 0.583460 0.412820 -0.541562
C2    C     C_R   0.655047 0.382142 0.384361 0.679308
O6    O     O_R   0.494210 0.416540 0.587180 -0.544624
O7    O     O_3   0.660810 0.558680 0.500000 -0.371932
V1    V     V_3+5 0.935650 0.489110 0.500000 1.422472
O8    O     O_R   0.324150 0.594490 0.413440 -0.544068
C3    C     C_R   0.155182 0.616659 0.384338 0.681889
O9    O     O_R   0.323970 0.595390 0.586550 -0.543609
C4    C     C_R   0.155131 0.617700 0.615596 0.658129
V2    V     V_3+5 0.435660 0.510890 0.500000 1.394536
O10   O     O_3   0.160630 0.441320 0.500000 -0.365476
C5    C     C_3   0.046394 0.645161 0.764535 -0.315188
H1    H     H_    0.898374 0.621065 0.748468 0.137068
H2    H     H_    0.129519 0.584106 0.785516 0.137279
C6    C     C_3   0.033775 0.716359 0.837022 -0.322469
H3    H     H_    0.110890 0.689404 0.892679 0.128383
H4    H     H_    0.879853 0.726019 0.855083 0.139740
H5    H     H_    0.877121 0.751961 0.641579 0.141622
H6    H     H_    0.858664 0.856640 0.748375 0.138780
C7    C     C_3   0.025627 0.773156 0.659986 -0.320575
C8    C     C_3   0.349140 0.721212 0.712552 -0.316063
C9    C     C_3   0.144606 0.687663 0.686364 0.109101
H7    H     H_    0.423622 0.753154 0.658283 0.137521
H8    H     H_    0.438435 0.661807 0.732814 0.137547
C10   C     C_3   0.123139 0.809716 0.810733 0.107123
C11   C     C_3   0.013045 0.844291 0.732518 -0.317092
C12   C     C_3   0.336753 0.791925 0.784585 -0.306970
H9    H     H_    0.420424 0.765989 0.838906 0.138989
H10   H     H_    0.405559 0.857341 0.764394 0.135406
H11   H     H_    0.093593 0.805776 0.604515 0.127885
H12   H     H_    0.074971 0.910978 0.711747 0.137550
C13   C     C_R   0.953114 0.773667 0.216023 -0.156511
H13   H     H_    0.812208 0.791881 0.192039 0.116015
C14   C     C_R   0.964265 0.710517 0.281605 -0.151409
H14   H     H_    0.831352 0.681881 0.305932 0.118148
C15   C     C_R   0.144074 0.684627 0.315137 -0.047267
C16   C     C_R   0.312411 0.723684 0.281157 -0.156566
H15   H     H_    0.453317 0.705468 0.305140 0.116013
C17   C     C_R   0.301260 0.786836 0.215577 -0.151468
H16   H     H_    0.434173 0.815474 0.191251 0.118155
C18   C     C_R   0.121452 0.812725 0.182044 -0.047295
C19   C     C_R   0.787342 0.309739 0.741635 -0.074983
H17   H     H_    0.904511 0.358989 0.737474 0.154843
C20   C     C_R   0.779175 0.249799 0.810244 -0.000925
C21   C     C_R   0.623091 0.186878 0.816900 -0.167576
C22   C     C_R   0.478127 0.187802 0.755687 -0.075185
H18   H     H_    0.360928 0.138571 0.759853 0.154828
C23   C     C_R   0.486299 0.247735 0.687078 -0.000974
C24   C     C_R   0.642403 0.310639 0.680409 -0.167535
C25   C     C_R   0.812308 0.274581 0.280917 -0.150121
H19   H     H_    0.953250 0.293474 0.304676 0.117409
C26   C     C_R   0.801230 0.210773 0.215321 -0.152005
H20   H     H_    0.934197 0.182336 0.190757 0.119193
C27   C     C_R   0.621406 0.184002 0.182065 -0.046615
C28   C     C_R   0.452975 0.222870 0.216320 -0.150119
H21   H     H_    0.312039 0.203974 0.192558 0.117406
C29   C     C_R   0.464054 0.286681 0.281919 -0.152052
H22   H     H_    0.331094 0.315122 0.306487 0.119123
C30   C     C_R   0.643882 0.313449 0.315175 -0.046699
O11   O     O_R   0.771300 0.080930 0.910090 -0.544649
O12   O     O_R   0.441270 0.092800 0.083770 -0.541670
O13   O     O_R   0.271080 0.913920 0.084380 -0.541561
C31   C     C_R   0.610298 0.115303 0.112882 0.679505
O14   O     O_R   0.441580 0.091910 0.910670 -0.528218
O15   O     O_R   0.271390 0.913020 0.910040 -0.542160
C32   C     C_R   0.611404 0.116608 0.884022 0.680967
O16   O     O_R   0.770990 0.081830 0.084440 -0.544592
O17   O     O_3   0.604750 0.938760 0.997250 -0.372009
V3    V     V_3+5 0.329850 0.008280 0.997210 1.422119
O18   O     O_R   0.941680 0.901940 0.910610 -0.543065
C33   C     C_R   0.110974 0.879660 0.881554 0.657659
O19   O     O_R   0.941370 0.902830 0.083720 -0.544037
C34   C     C_R   0.110340 0.880694 0.112843 0.681996
V4    V     V_3+5 0.829860 0.986420 0.997150 1.394566
O20   O     O_3   0.104830 0.056030 0.997180 -0.365395
C35   C     C_2   0.928935 0.258468 0.876255 0.373541
H23   H     H_    0.902947 0.232705 0.938664 0.056265
O21   O     O_2   0.083174 0.296110 0.862009 -0.535193
C36   C     C_2   0.336503 0.239077 0.621079 0.373298
H24   H     H_    0.362543 0.264760 0.558646 0.056197
O22   O     O_2   0.182173 0.201543 0.635367 -0.535232

loop_
_geom_bond_atom_site_label_1
_geom_bond_atom_site_label_2
_ccdc_geom_bond_type
C7    C11   S    
O12   C31   A    
C25   H19   S    
C8    C12   S    
O11   V4    S    
C15   C16   A    
C1    O6    A    
C35   H23   S    
C19   C20   A    
C6    C10   S    
O19   C34   A    
C8    C9    S    
C29   H22   S    
C23   C36   S    
C36   O22   D    
O16   V4    S    
O5    C3    A    
C10   C11   S    
C26   C27   A    
V2    O10   S    
O12   V3    S    
C5    C6    S    
C28   C29   A    
O17   V3    S    
C20   C35   S    
O14   C32   A    
C29   C30   A    
O8    V2    S    
O15   V3    S    
O1    V2    S    
C4    C9    S    
O7    V1    S    
C27   C28   A    
V3    O20   S    
O9    C4    A    
O13   C34   A    
C16   C17   A    
C35   O21   D    
C17   C18   A    
C21   C22   A    
O19   V4    S    
C22   H18   S    
C5    C9    S    
C36   H24   S    
C14   C15   A    
C18   C34   S    
C14   H14   S    
O13   V3    S    
C23   C24   A    
C28   H21   S    
C22   C23   A    
C12   H10   S    
O2    C1    A    
O18   C33   A    
C13   H13   S    
C27   C31   S    
C10   C33   S    
C19   H17   S    
C31   O16   A    
C25   C30   A    
C5    H1    S    
O17   V4    S    
O14   V3    S    
C21   C32   S    
O3    C4    A    
C7    H11   S    
C19   C24   A    
C6    H4    S    
O6    V2    S    
C25   C26   A    
O15   C33   A    
C16   H15   S    
O2    V1    S    
C17   H16   S    
C3    C15   S    
O4    C2    A    
C1    C24   S    
O1    C2    A    
O5    V1    S    
O8    C3    A    
C7    C9    S    
C8    H7    S    
C12   H9    S    
O9    V2    S    
O7    V2    S    
H6    C11   S    
O4    V1    S    
C13   C14   A    
O3    V1    S    
O11   C32   A    
C10   C12   S    
C26   H20   S    
C5    H2    S    
H5    C7    S    
C2    C30   S    
V4    O20   S    
C6    H3    S    
C8    H8    S    
C20   C21   A    
C11   H12   S    
V1    O10   S    
C13   C18   A    
O18   V4    S    
