data_mof_unit_66013.cif
_audit_creation_date              2013-03-05T16:36:26-0500
_audit_creation_method            fapswitch 2.2
_symmetry_space_group_name_H-M    P1
_symmetry_Int_Tables_number       1
_space_group_crystal_system       triclinic
_cell_length_a                    35.510157
_cell_length_b                    35.514902
_cell_length_c                    47.336144
_cell_angle_alpha                 90.056428
_cell_angle_beta                  89.946036
_cell_angle_gamma                 90.023841
_cell_volume                      59697.4320394

loop_
_atom_site_label
_atom_site_type_symbol
_atom_site_description
_atom_site_fract_x
_atom_site_fract_y
_atom_site_fract_z
_atom_type_partial_charge
O1    O     O_R   0.555440 0.968650 0.000000 -0.579719
O2    O     O_R   0.031350 0.555440 0.000000 -0.578904
O3    O     O_R   0.444560 0.031350 0.000000 -0.579135
O4    O     O_R   0.968650 0.444560 0.000000 -0.582149
O5    O     O_R   0.555440 0.031350 0.000000 -0.581797
O6    O     O_R   0.031350 0.444560 0.000000 -0.579062
O7    O     O_R   0.444560 0.968650 0.000000 -0.576672
O8    O     O_R   0.968650 0.555440 0.000000 -0.579953
O9    O     O_R   0.055440 0.468650 0.500000 -0.581870
O10   O     O_R   0.531350 0.055440 0.500000 -0.585004
O11   O     O_R   0.944560 0.531350 0.500000 -0.578617
O12   O     O_R   0.468650 0.944560 0.500000 -0.580948
O13   O     O_R   0.055440 0.531350 0.500000 -0.578394
O14   O     O_R   0.531350 0.944560 0.500000 -0.581831
O15   O     O_R   0.944560 0.468650 0.500000 -0.582034
O16   O     O_R   0.468650 0.055440 0.500000 -0.576721
C1    C     C_R   0.573287 0.999988 0.999887 1.050544
C2    C     C_R   0.000012 0.573308 0.000039 1.047469
C3    C     C_R   0.426675 0.999915 0.999972 1.046000
C4    C     C_R   0.000011 0.426607 0.000094 1.062460
C5    C     C_R   0.073366 0.500033 0.499947 1.058870
C6    C     C_R   0.500061 0.073295 0.500039 1.024027
C7    C     C_R   0.926677 0.500042 0.500002 1.056853
C8    C     C_R   0.500015 0.926724 0.499964 1.052329
O17   O     O_R   0.499980 0.968650 0.958070 -0.577983
O18   O     O_R   0.031350 0.499980 0.958070 -0.589010
O19   O     O_R   0.500020 0.031350 0.958070 -0.585964
O20   O     O_R   0.968650 0.500020 0.958070 -0.573605
O21   O     O_R   0.499980 0.031350 0.041930 -0.582039
O22   O     O_R   0.031350 0.500020 0.041930 -0.572745
O23   O     O_R   0.500020 0.968650 0.041930 -0.577996
O24   O     O_R   0.968650 0.499980 0.041930 -0.590259
O25   O     O_R   0.999980 0.468650 0.458070 -0.583541
O26   O     O_R   0.531350 0.999980 0.458070 -0.588462
O27   O     O_R   0.000020 0.531350 0.458070 -0.580149
O28   O     O_R   0.468650 0.000020 0.458070 -0.576922
O29   O     O_R   0.999980 0.531350 0.541930 -0.576017
O30   O     O_R   0.531350 0.000020 0.541930 -0.565724
O31   O     O_R   0.000020 0.468650 0.541930 -0.588077
O32   O     O_R   0.468650 0.999980 0.541930 -0.584681
C9    C     C_R   0.499824 0.999992 0.944633 1.037872
C10   C     C_R   0.000096 0.500833 0.944688 1.030540
C11   C     C_R   0.500551 0.000084 0.055395 1.023487
C12   C     C_R   0.999962 0.501169 0.055294 1.030093
C13   C     C_R   0.000123 0.499929 0.444703 1.035060
C14   C     C_R   0.500078 0.001255 0.444651 1.030643
C15   C     C_R   0.998855 0.500025 0.555287 1.028747
C16   C     C_R   0.499921 0.000744 0.555392 1.008112
Zn1   Zn    Zn3+2 0.500000 0.958160 0.000000 1.209051
Zn2   Zn    Zn3+2 0.041840 0.500000 0.000000 1.207615
Zn3   Zn    Zn3+2 0.500000 0.041840 0.000000 1.198687
Zn4   Zn    Zn3+2 0.958160 0.500000 0.000000 1.204699
Zn5   Zn    Zn3+2 0.000000 0.458160 0.500000 1.202650
Zn6   Zn    Zn3+2 0.541840 0.000000 0.500000 1.212607
Zn7   Zn    Zn3+2 0.000000 0.541840 0.500000 1.208956
Zn8   Zn    Zn3+2 0.458160 0.000000 0.500000 1.199289
C17   C     C_R   0.527452 0.015835 0.690282 0.542300
C18   C     C_R   0.978529 0.526542 0.690937 0.540372
C19   C     C_R   0.460966 0.005023 0.690547 0.543211
C20   C     C_R   0.015989 0.470674 0.690962 0.539613
C21   C     C_R   0.503314 0.972189 0.309462 0.538179
C22   C     C_R   0.979058 0.473268 0.308870 0.540558
C23   C     C_R   0.496055 0.039087 0.308833 0.540807
C24   C     C_R   0.017693 0.528363 0.309421 0.539409
C25   C     C_R   0.022741 0.525054 0.191095 0.541280
C26   C     C_R   0.490733 0.036197 0.190430 0.543172
C27   C     C_R   0.968144 0.485706 0.191038 0.539511
C28   C     C_R   0.503970 0.970166 0.191001 0.542021
C29   C     C_R   0.030551 0.483310 0.808629 0.539838
C30   C     C_R   0.462323 0.003449 0.809109 0.539188
C31   C     C_R   0.977110 0.524151 0.809339 0.540472
C32   C     C_R   0.529481 0.007860 0.808558 0.538324
N1    N     N_R   0.494106 0.010507 0.676084 -0.336936
N2    N     N_R   0.996939 0.498349 0.676375 -0.333005
N3    N     N_R   0.500367 0.005978 0.323595 -0.335995
N4    N     N_R   0.998670 0.500367 0.323695 -0.333428
N5    N     N_R   0.995333 0.505553 0.176459 -0.332371
N6    N     N_R   0.497655 0.002990 0.176401 -0.337687
N7    N     N_R   0.004410 0.504062 0.823569 -0.332681
N8    N     N_R   0.496129 0.005169 0.823350 -0.335166
C33   C     C_R   0.460846 0.002964 0.720116 -0.030733
C34   C     C_R   0.020431 0.473220 0.720283 -0.026846
C35   C     C_R   0.528267 0.015860 0.719855 -0.027142
C36   C     C_R   0.976742 0.525890 0.720457 -0.024873
C37   C     C_R   0.492308 0.038605 0.279383 -0.029223
C38   C     C_R   0.020242 0.527607 0.279944 -0.025712
C39   C     C_R   0.504949 0.971276 0.279945 -0.026997
C40   C     C_R   0.975441 0.475828 0.279482 -0.026158
C41   C     C_R   0.970609 0.481452 0.220372 -0.026748
C42   C     C_R   0.505021 0.970222 0.220559 -0.028615
C43   C     C_R   0.021848 0.526851 0.220623 -0.024393
C44   C     C_R   0.489701 0.037115 0.220006 -0.028977
C45   C     C_R   0.977105 0.525670 0.779792 -0.024263
C46   C     C_R   0.529322 0.011872 0.779162 -0.027534
C47   C     C_R   0.027212 0.479054 0.779300 -0.026938
C48   C     C_R   0.461581 0.001739 0.779552 -0.027964
C49   C     C_R   0.494768 0.008787 0.734802 -0.013906
C50   C     C_R   0.999431 0.500199 0.735123 -0.013441
C51   C     C_R   0.498239 0.004609 0.264826 -0.012402
C52   C     C_R   0.997491 0.502264 0.264939 -0.013258
C53   C     C_R   0.996682 0.503483 0.235254 -0.013934
C54   C     C_R   0.497598 0.003970 0.235107 -0.013924
C55   C     C_R   0.001226 0.501607 0.764797 -0.013910
C56   C     C_R   0.495217 0.007477 0.764528 -0.012421
C57   C     C_R   0.427726 0.995143 0.735282 -0.119353
C58   C     C_R   0.045158 0.449437 0.735014 -0.121098
C59   C     C_R   0.561897 0.022086 0.734749 -0.119543
C60   C     C_R   0.953589 0.550869 0.735554 -0.120835
C61   C     C_R   0.483274 0.071312 0.264194 -0.119640
C62   C     C_R   0.044436 0.551959 0.265204 -0.121196
C63   C     C_R   0.512821 0.937809 0.265277 -0.119279
C64   C     C_R   0.950699 0.452434 0.264356 -0.120246
C65   C     C_R   0.947461 0.456055 0.235097 -0.120821
C66   C     C_R   0.513256 0.937377 0.235856 -0.119542
C67   C     C_R   0.046036 0.550787 0.235773 -0.119290
C68   C     C_R   0.481558 0.070467 0.234784 -0.118139
C69   C     C_R   0.953000 0.550031 0.765008 -0.119902
C70   C     C_R   0.562499 0.019699 0.764118 -0.120127
C71   C     C_R   0.049362 0.453116 0.764215 -0.120641
C72   C     C_R   0.428018 0.994921 0.764740 -0.119218
O33   O     O_2   0.560023 0.020132 0.675896 -0.523872
O34   O     O_2   0.962804 0.555811 0.677136 -0.523385
O35   O     O_2   0.428099 0.001971 0.676411 -0.513869
O36   O     O_2   0.030137 0.440387 0.677369 -0.517015
O37   O     O_2   0.503904 0.939352 0.323799 -0.515616
O38   O     O_2   0.963635 0.443459 0.322233 -0.518365
O39   O     O_2   0.496239 0.072536 0.322401 -0.511802
O40   O     O_2   0.033432 0.557466 0.323468 -0.519251
O41   O     O_2   0.051460 0.541975 0.177387 -0.525066
O42   O     O_2   0.485707 0.068504 0.175900 -0.516601
O43   O     O_2   0.938303 0.470679 0.177446 -0.517458
O44   O     O_2   0.508714 0.937360 0.177001 -0.518536
O45   O     O_2   0.060141 0.467286 0.821832 -0.518349
O46   O     O_2   0.429368 0.004331 0.823339 -0.514138
O47   O     O_2   0.949272 0.541920 0.823460 -0.525235
O48   O     O_2   0.562882 0.005819 0.822069 -0.514616
H1    H     H_    0.401512 0.989187 0.724465 0.206812
H2    H     H_    0.062143 0.428804 0.723967 0.205910
H3    H     H_    0.587886 0.028567 0.723772 0.207524
H4    H     H_    0.935255 0.570458 0.724712 0.206510
H5    H     H_    0.477165 0.097533 0.274986 0.206871
H6    H     H_    0.062862 0.571206 0.276354 0.206435
H7    H     H_    0.519241 0.912015 0.276486 0.207413
H8    H     H_    0.933035 0.432120 0.275125 0.206304
H9    H     H_    0.927600 0.438216 0.224028 0.205834
H10   H     H_    0.520081 0.911272 0.225164 0.207604
H11   H     H_    0.065525 0.569328 0.224985 0.206979
H12   H     H_    0.474120 0.096071 0.223685 0.207584
H13   H     H_    0.934379 0.569144 0.776104 0.207101
H14   H     H_    0.588915 0.024459 0.774993 0.207092
H15   H     H_    0.069214 0.434960 0.774961 0.205922
H16   H     H_    0.402011 0.988887 0.775847 0.206189
C73   C     C_R   0.000012 0.072970 0.000037 0.878025
C74   C     C_R   0.926949 0.999909 0.999972 0.875922
C75   C     C_R   0.999954 0.926967 0.999993 0.878354
C76   C     C_R   0.073142 0.999727 0.999981 0.880745
C77   C     C_R   0.499972 0.573012 0.500014 0.874571
C78   C     C_R   0.427008 0.499945 0.500003 0.876695
C79   C     C_R   0.500079 0.426901 0.500001 0.876710
C80   C     C_R   0.572988 0.499986 0.499987 0.874900
C81   C     C_R   0.521436 0.026933 0.869399 -0.125527
C82   C     C_R   0.995710 0.536170 0.869749 -0.117752
C83   C     C_R   0.473007 0.979539 0.868867 -0.127090
C84   C     C_R   0.013165 0.470713 0.869130 -0.128356
C85   C     C_R   0.528709 0.985668 0.131707 -0.120193
C86   C     C_R   0.986076 0.472178 0.130863 -0.127510
C87   C     C_R   0.469762 0.019108 0.130373 -0.115656
C88   C     C_R   0.006303 0.536873 0.130231 -0.119093
C89   C     C_R   0.032089 0.509112 0.369169 -0.122698
C90   C     C_R   0.476397 0.028771 0.369661 -0.128365
C91   C     C_R   0.967253 0.489242 0.369762 -0.121322
C92   C     C_R   0.527308 0.983995 0.368787 -0.121367
C93   C     C_R   0.029242 0.487692 0.630608 -0.124473
C94   C     C_R   0.477269 0.978591 0.631667 -0.132075
C95   C     C_R   0.964848 0.508915 0.630519 -0.120906
C96   C     C_R   0.512677 0.036489 0.629818 -0.103721
H17   H     H_    0.538694 0.047077 0.858012 0.220557
H18   H     H_    0.991769 0.562486 0.858684 0.226121
H19   H     H_    0.454607 0.960968 0.857158 0.221779
H20   H     H_    0.019176 0.445005 0.857708 0.221361
H21   H     H_    0.551490 0.974031 0.144140 0.216126
H22   H     H_    0.978989 0.446674 0.142200 0.219364
H23   H     H_    0.446397 0.031814 0.141575 0.216318
H24   H     H_    0.011234 0.563098 0.141190 0.227217
H25   H     H_    0.057789 0.514714 0.357648 0.221404
H26   H     H_    0.456110 0.045881 0.358443 0.219757
H27   H     H_    0.941128 0.483221 0.358904 0.220028
H28   H     H_    0.547893 0.967996 0.356927 0.218284
H29   H     H_    0.054922 0.480661 0.641729 0.217417
H30   H     H_    0.463113 0.957279 0.644108 0.215337
H31   H     H_    0.939066 0.514810 0.641809 0.225464
H32   H     H_    0.525092 0.060417 0.640554 0.211375
C97   C     C_R   0.525861 0.023172 0.898640 0.245399
C98   C     C_R   0.990075 0.535055 0.898999 0.243828
C99   C     C_R   0.471196 0.979674 0.898413 0.242976
C100  C     C_R   0.014513 0.470030 0.898588 0.236976
C101  C     C_R   0.529838 0.983285 0.102155 0.247690
C102  C     C_R   0.984653 0.471441 0.101402 0.241332
C103  C     C_R   0.470445 0.019822 0.100858 0.247726
C104  C     C_R   0.011673 0.535479 0.100926 0.244459
C105  C     C_R   0.032170 0.512762 0.398583 0.241085
C106  C     C_R   0.477843 0.030634 0.399165 0.245893
C107  C     C_R   0.968361 0.485356 0.399075 0.241991
C108  C     C_R   0.525110 0.979553 0.398065 0.249520
C109  C     C_R   0.029107 0.485160 0.601204 0.241194
C110  C     C_R   0.478490 0.975104 0.602209 0.250564
C111  C     C_R   0.965555 0.513185 0.601121 0.244704
C112  C     C_R   0.516298 0.033338 0.600528 0.256295
C113  C     C_R   0.499181 0.000454 0.913749 -0.260666
C114  C     C_R   0.000638 0.501715 0.913858 -0.266491
C115  C     C_R   0.500110 0.000552 0.086356 -0.264778
C116  C     C_R   0.999617 0.502520 0.086128 -0.264548
C117  C     C_R   0.000181 0.499611 0.413914 -0.266555
C118  C     C_R   0.500532 0.003572 0.413768 -0.258761
C119  C     C_R   0.997891 0.500007 0.586113 -0.265327
C120  C     C_R   0.499300 0.002285 0.586369 -0.256433
C121  C     C_R   0.496707 0.003954 0.854004 0.158785
C122  C     C_R   0.004772 0.503742 0.854267 0.151556
C123  C     C_R   0.498656 0.002543 0.145911 0.156576
C124  C     C_R   0.995741 0.504975 0.145764 0.152469
C125  C     C_R   0.999310 0.499573 0.354333 0.153569
C126  C     C_R   0.501521 0.006454 0.354179 0.159783
C127  C     C_R   0.996950 0.498249 0.645728 0.153368
C128  C     C_R   0.494299 0.008822 0.645615 0.159166
C129  C     C_R   0.826643 0.020806 0.019852 0.098955
C130  C     C_R   0.979984 0.827151 0.021356 0.099609
C131  C     C_R   0.172842 0.984789 0.024490 0.099571
C132  C     C_R   0.023796 0.172197 0.020149 0.100305
C133  C     C_R   0.827324 0.982735 0.976706 0.098216
C134  C     C_R   0.975836 0.173178 0.982989 0.099993
C135  C     C_R   0.173824 0.005076 0.975100 0.102349
C136  C     C_R   0.019598 0.826905 0.978986 0.099997
C137  C     C_R   0.327046 0.521804 0.519658 0.099520
C138  C     C_R   0.484497 0.326752 0.523049 0.101387
C139  C     C_R   0.672781 0.476739 0.519042 0.099186
C140  C     C_R   0.520867 0.672938 0.520549 0.097768
C141  C     C_R   0.327354 0.477969 0.479679 0.099057
C142  C     C_R   0.478929 0.672855 0.479523 0.097073
C143  C     C_R   0.672815 0.522973 0.480684 0.099174
C144  C     C_R   0.517259 0.326727 0.477512 0.103681
C145  C     C_R   0.865993 0.019061 0.020807 -0.213239
C146  C     C_R   0.980844 0.866518 0.021390 -0.209193
C147  C     C_R   0.133534 0.986978 0.024374 -0.210539
C148  C     C_R   0.023295 0.132857 0.019505 -0.208358
C149  C     C_R   0.866679 0.982279 0.977594 -0.207347
C150  C     C_R   0.976907 0.133821 0.981912 -0.212082
C151  C     C_R   0.134462 0.006780 0.975321 -0.205783
C152  C     C_R   0.018733 0.866275 0.978716 -0.210060
C153  C     C_R   0.366415 0.521059 0.519963 -0.212192
C154  C     C_R   0.484745 0.366145 0.522883 -0.205462
C155  C     C_R   0.633405 0.477553 0.519276 -0.211644
C156  C     C_R   0.520004 0.633569 0.520742 -0.213988
C157  C     C_R   0.366716 0.478605 0.479766 -0.209621
C158  C     C_R   0.479710 0.633483 0.479392 -0.211545
C159  C     C_R   0.633438 0.522261 0.480557 -0.212322
C160  C     C_R   0.516520 0.366118 0.477469 -0.211832
H33   H     H_    0.881131 0.033379 0.037558 0.162099
H34   H     H_    0.966038 0.882046 0.037717 0.161827
H35   H     H_    0.117957 0.979597 0.043272 0.168772
H36   H     H_    0.041449 0.116976 0.033537 0.157259
H37   H     H_    0.882346 0.967578 0.961290 0.162473
H38   H     H_    0.958811 0.118699 0.967350 0.156610
H39   H     H_    0.119605 0.015262 0.956372 0.168325
H40   H     H_    0.033579 0.881612 0.962327 0.161055
H41   H     H_    0.381771 0.537781 0.535300 0.158956
H42   H     H_    0.472219 0.381505 0.540326 0.164829
H43   H     H_    0.617900 0.460067 0.534030 0.157481
H44   H     H_    0.535786 0.618144 0.536563 0.160535
H45   H     H_    0.382299 0.461942 0.464510 0.159786
H46   H     H_    0.463869 0.617988 0.463615 0.160586
H47   H     H_    0.617963 0.539789 0.465843 0.157909
H48   H     H_    0.528994 0.381450 0.460014 0.164717
C161  C     C_R   0.885933 0.000101 0.999662 -0.080491
C162  C     C_R   0.999816 0.885984 0.000010 -0.079866
C163  C     C_R   0.114301 0.998114 0.999940 -0.089618
C164  C     C_R   0.000230 0.113836 0.000311 -0.073339
C165  C     C_R   0.386102 0.499810 0.499959 -0.075971
C166  C     C_R   0.500367 0.385796 0.500070 -0.085743
C167  C     C_R   0.613890 0.499940 0.499946 -0.074065
C168  C     C_R   0.499904 0.613960 0.500045 -0.076794
O49   O     O_R   0.000020 0.055270 0.976310 -0.609114
O50   O     O_R   0.944730 0.000020 0.976310 -0.614502
O51   O     O_R   0.999980 0.944730 0.976310 -0.614425
O52   O     O_R   0.055270 0.999980 0.976310 -0.617336
O53   O     O_R   0.000020 0.944730 0.023690 -0.613005
O54   O     O_R   0.944730 0.999980 0.023690 -0.613072
O55   O     O_R   0.999980 0.055270 0.023690 -0.612036
O56   O     O_R   0.055270 0.000020 0.023690 -0.616963
O57   O     O_R   0.500020 0.555270 0.476310 -0.612825
O58   O     O_R   0.444730 0.500020 0.476310 -0.612567
O59   O     O_R   0.499980 0.444730 0.476310 -0.613896
O60   O     O_R   0.555270 0.499980 0.476310 -0.611418
O61   O     O_R   0.500020 0.444730 0.523690 -0.615616
O62   O     O_R   0.444730 0.499980 0.523690 -0.611957
O63   O     O_R   0.499980 0.555270 0.523690 -0.613237
O64   O     O_R   0.555270 0.500020 0.523690 -0.611986
C169  C     C_R   0.807427 0.002102 0.997934 0.088798
C170  C     C_R   0.999810 0.807477 0.000238 0.089307
C171  C     C_R   0.192850 0.994522 0.999916 0.089850
C172  C     C_R   0.999680 0.192241 0.001995 0.087536
C173  C     C_R   0.307649 0.499864 0.499596 0.089590
C174  C     C_R   0.500749 0.307198 0.500220 0.085420
C175  C     C_R   0.692370 0.499837 0.499840 0.086011
C176  C     C_R   0.500060 0.692471 0.499942 0.087030
C177  C     C_1   0.767172 0.002291 0.997533 0.059505
C178  C     C_1   0.999895 0.767244 0.000394 0.059924
C179  C     C_1   0.233034 0.995065 0.000552 0.054321
C180  C     C_1   0.999613 0.232465 0.002618 0.060690
C181  C     C_1   0.267431 0.499847 0.499416 0.064068
C182  C     C_1   0.499947 0.266980 0.499795 0.046750
C183  C     C_1   0.732627 0.499812 0.499806 0.058576
C184  C     C_1   0.500393 0.732739 0.499734 0.060977
C185  C     C_1   0.733458 0.002174 0.997573 0.197572
C186  C     C_1   0.000000 0.733546 0.000495 0.197576
C187  C     C_1   0.266647 0.996482 0.001311 0.194985
C188  C     C_1   0.999575 0.266161 0.002752 0.197562
C189  C     C_1   0.233742 0.499852 0.499278 0.200935
C190  C     C_1   0.499072 0.233328 0.499228 0.191512
C191  C     C_1   0.766342 0.499822 0.499812 0.197217
C192  C     C_1   0.500675 0.766464 0.499559 0.197093
C193  C     C_R   0.673707 0.025795 0.016756 0.227117
C194  C     C_R   0.973923 0.673661 0.017327 0.227198
C195  C     C_R   0.327092 0.975506 0.020674 0.219748
C196  C     C_R   0.027771 0.326383 0.016993 0.225545
C197  C     C_R   0.673556 0.976926 0.980136 0.228353
C198  C     C_R   0.971630 0.325533 0.986947 0.226490
C199  C     C_R   0.325429 0.022979 0.983079 0.227834
C200  C     C_R   0.026503 0.673802 0.983728 0.227233
C201  C     C_R   0.174112 0.527934 0.514567 0.224744
C202  C     C_R   0.474914 0.173644 0.517730 0.229677
C203  C     C_R   0.826188 0.474517 0.517340 0.227903
C204  C     C_R   0.524496 0.826435 0.518283 0.225626
C205  C     C_R   0.173798 0.472318 0.483813 0.224862
C206  C     C_R   0.477354 0.826310 0.480526 0.227354
C207  C     C_R   0.826199 0.525628 0.482618 0.225608
C208  C     C_R   0.522276 0.173625 0.479981 0.218481
C209  C     C_R   0.634192 0.024995 0.017396 0.196815
C210  C     C_R   0.973942 0.634154 0.017252 0.202350
C211  C     C_R   0.366599 0.974979 0.019171 0.205735
C212  C     C_R   0.028353 0.365860 0.015803 0.203443
C213  C     C_R   0.634077 0.975695 0.981079 0.200339
C214  C     C_R   0.971711 0.365013 0.986161 0.202552
C215  C     C_R   0.364952 0.023676 0.982427 0.199056
C216  C     C_R   0.026380 0.634304 0.983526 0.202925
C217  C     C_R   0.134620 0.528192 0.514574 0.204164
C218  C     C_R   0.475918 0.134164 0.518505 0.195590
C219  C     C_R   0.865700 0.474336 0.517183 0.198520
C220  C     C_R   0.524717 0.865949 0.518047 0.197361
C221  C     C_R   0.134264 0.472407 0.483985 0.201639
C222  C     C_R   0.476262 0.865797 0.481177 0.195714
C223  C     C_R   0.865700 0.526299 0.483081 0.203506
C224  C     C_R   0.523763 0.134125 0.481079 0.207894
C225  C     C_R   0.614432 0.000064 0.999519 -0.325950
C226  C     C_R   0.000071 0.614499 0.000247 -0.319443
C227  C     C_R   0.385474 0.999404 0.000298 -0.322563
C228  C     C_R   0.000080 0.385290 0.000605 -0.320958
C229  C     C_R   0.114643 0.500178 0.499534 -0.319375
C230  C     C_R   0.500216 0.114461 0.500090 -0.322817
C231  C     C_R   0.885472 0.500200 0.500040 -0.319837
C232  C     C_R   0.500171 0.885591 0.499817 -0.330871
C233  C     C_R   0.693151 0.001815 0.998033 -0.210382
C234  C     C_R   0.000155 0.693250 0.000533 -0.209032
C235  C     C_R   0.306800 0.998923 0.002173 -0.200464
C236  C     C_R   0.999575 0.306448 0.002388 -0.210265
C237  C     C_R   0.193465 0.500001 0.499219 -0.209518
C238  C     C_R   0.498080 0.193094 0.498510 -0.198821
C239  C     C_R   0.806658 0.499918 0.499865 -0.211426
C240  C     C_R   0.500910 0.806806 0.499430 -0.211806
Zn9   Zn    Zn3+2 0.000000 0.000000 0.968380 1.005463
Zn10  Zn    Zn3+2 1.000000 0.000000 0.031620 1.005687
Zn11  Zn    Zn3+2 0.500000 0.500000 0.468380 1.008483
Zn12  Zn    Zn3+2 0.500000 0.500000 0.531620 1.006709
N9    N     N_R   0.557930 0.041620 0.911579 0.244568
O65   O     O_R   0.581332 0.060794 0.896049 -0.313533
O66   O     O_R   0.567311 0.035272 0.937770 -0.354136
N10   N     N_R   0.974356 0.568167 0.912633 0.248287
O67   O     O_R   0.966536 0.597956 0.897672 -0.307033
O68   O     O_R   0.964311 0.568244 0.938978 -0.362990
N11   N     N_R   0.440098 0.959846 0.911702 0.245164
O69   O     O_R   0.414966 0.942931 0.896058 -0.312696
O70   O     O_R   0.433351 0.962323 0.938696 -0.350489
N12   N     N_R   0.030593 0.437107 0.911984 0.241114
O71   O     O_R   0.052885 0.415022 0.897690 -0.306094
O72   O     O_R   0.023301 0.428443 0.938074 -0.370628
N13   N     N_R   0.562090 0.964544 0.089472 0.247874
O73   O     O_R   0.588909 0.951417 0.105408 -0.314866
O74   O     O_R   0.565740 0.960355 0.062322 -0.347915
N14   N     N_R   0.967381 0.439299 0.087983 0.237122
O75   O     O_R   0.941453 0.420374 0.101297 -0.304865
O76   O     O_R   0.978363 0.427626 0.063227 -0.372831
N15   N     N_R   0.440862 0.040549 0.086672 0.244976
O77   O     O_R   0.421231 0.065432 0.100526 -0.309489
O78   O     O_R   0.431170 0.033289 0.060758 -0.360857
N16   N     N_R   0.028453 0.568009 0.087245 0.247943
O79   O     O_R   0.038943 0.596914 0.102277 -0.307780
O80   O     O_R   0.036042 0.568568 0.060376 -0.362846
N17   N     N_R   0.065021 0.529501 0.411778 0.244688
O81   O     O_R   0.089783 0.547216 0.396363 -0.307127
O82   O     O_R   0.070489 0.528331 0.438910 -0.371271
N18   N     N_R   0.457854 0.061288 0.412922 0.246135
O83   O     O_R   0.442441 0.087642 0.397572 -0.306795
O84   O     O_R   0.459587 0.066747 0.440069 -0.351284
N19   N     N_R   0.937403 0.465925 0.412589 0.241480
O85   O     O_R   0.917548 0.441732 0.398222 -0.303503
O86   O     O_R   0.928707 0.471589 0.438916 -0.367949
N20   N     N_R   0.547117 0.949852 0.410977 0.244014
O87   O     O_R   0.574621 0.934306 0.396962 -0.317916
O88   O     O_R   0.535847 0.933430 0.434030 -0.338552
N21   N     N_R   0.060513 0.466757 0.587646 0.237072
O89   O     O_R   0.078632 0.440249 0.600886 -0.303549
O90   O     O_R   0.072429 0.477237 0.562869 -0.369739
N22   N     N_R   0.458457 0.943849 0.589447 0.243901
O91   O     O_R   0.434017 0.924824 0.604198 -0.316246
O92   O     O_R   0.465885 0.932240 0.563999 -0.347631
N23   N     N_R   0.932991 0.530112 0.587601 0.248226
O93   O     O_R   0.904963 0.542176 0.602892 -0.308412
O94   O     O_R   0.931531 0.536180 0.560579 -0.362135
N24   N     N_R   0.535506 0.063141 0.585709 0.228921
O95   O     O_R   0.532173 0.097711 0.594567 -0.306357
O96   O     O_R   0.562027 0.055479 0.567646 -0.320966
N25   N     N_3   0.806093 0.041755 0.040821 -0.390096
H49   H     H_    0.824522 0.052621 0.056052 0.204262
H50   H     H_    0.794417 0.065083 0.030597 0.242046
N26   N     N_3   0.959167 0.807058 0.042647 -0.395062
H51   H     H_    0.947226 0.825972 0.057113 0.204139
H52   H     H_    0.936571 0.793865 0.032519 0.242603
N27   N     N_3   0.192622 0.972930 0.049454 -0.377206
H53   H     H_    0.173601 0.966484 0.065644 0.203295
H54   H     H_    0.206448 0.947737 0.044566 0.230812
N28   N     N_3   0.048637 0.191870 0.039078 -0.391402
H55   H     H_    0.063127 0.172712 0.051904 0.204480
H56   H     H_    0.069114 0.205042 0.026654 0.244118
N29   N     N_3   0.807484 0.964007 0.954233 -0.395613
H57   H     H_    0.826563 0.952307 0.939793 0.204493
H58   H     H_    0.792960 0.941362 0.963185 0.244267
N30   N     N_3   0.950636 0.193898 0.965018 -0.391441
H59   H     H_    0.936179 0.175541 0.951510 0.205240
H60   H     H_    0.930194 0.206052 0.978069 0.241454
N31   N     N_3   0.194581 0.013553 0.949772 -0.409471
H61   H     H_    0.176183 0.019475 0.933108 0.204797
H62   H     H_    0.209953 0.038178 0.953435 0.245757
N32   N     N_3   0.040496 0.806559 0.957857 -0.395733
H63   H     H_    0.052266 0.825285 0.943198 0.203462
H64   H     H_    0.063207 0.793760 0.968088 0.242748
N33   N     N_3   0.306673 0.544823 0.539469 -0.394729
H65   H     H_    0.325294 0.557630 0.553692 0.203961
H66   H     H_    0.294381 0.566716 0.527969 0.243389
N34   N     N_3   0.468208 0.306505 0.546383 -0.401336
H67   H     H_    0.456817 0.325290 0.561163 0.204257
H68   H     H_    0.445515 0.290909 0.538574 0.245151
N35   N     N_3   0.692977 0.452584 0.538117 -0.387717
H69   H     H_    0.674172 0.438321 0.551405 0.203882
H70   H     H_    0.706049 0.431858 0.525850 0.241013
N36   N     N_3   0.542833 0.693168 0.541085 -0.388177
H71   H     H_    0.554306 0.674474 0.555875 0.204127
H72   H     H_    0.565697 0.704945 0.530317 0.241363
N37   N     N_3   0.307280 0.455282 0.459500 -0.394744
H73   H     H_    0.326094 0.442794 0.445250 0.205110
H74   H     H_    0.294783 0.433182 0.470678 0.243805
N38   N     N_3   0.456717 0.693008 0.459129 -0.384983
H75   H     H_    0.443789 0.674136 0.445124 0.204481
H76   H     H_    0.434816 0.706031 0.470223 0.240456
N39   N     N_3   0.693042 0.547104 0.461572 -0.387701
H77   H     H_    0.674275 0.561140 0.448153 0.204302
H78   H     H_    0.705877 0.568007 0.473800 0.241679
N40   N     N_3   0.534306 0.306403 0.454504 -0.372989
H79   H     H_    0.545953 0.325131 0.439830 0.204473
H80   H     H_    0.556875 0.290997 0.462735 0.226066
N41   N     N_R   0.693968 0.050386 0.035595 0.248033
O97   O     O_R   0.684366 0.052895 0.062059 -0.269309
O98   O     O_R   0.720851 0.071799 0.026017 -0.365628
N42   N     N_R   0.947817 0.693778 0.035057 0.246503
O99   O     O_R   0.943524 0.684311 0.061406 -0.270782
O100  O     O_R   0.926508 0.720000 0.024421 -0.362566
N43   N     N_R   0.307694 0.952915 0.041446 0.235717
O101  O     O_R   0.318275 0.918527 0.046563 -0.272727
O102  O     O_R   0.280570 0.967453 0.056385 -0.351203
N44   N     N_R   0.055420 0.306767 0.033668 0.248856
O103  O     O_R   0.063532 0.318324 0.059024 -0.269860
O104  O     O_R   0.074163 0.278670 0.022937 -0.364464
N45   N     N_R   0.693598 0.953551 0.960381 0.247234
O105  O     O_R   0.683776 0.952864 0.933908 -0.267971
O106  O     O_R   0.720001 0.931026 0.969153 -0.363229
N46   N     N_R   0.943526 0.304870 0.971520 0.246123
O107  O     O_R   0.936736 0.312848 0.945173 -0.274003
O108  O     O_R   0.922871 0.279849 0.984287 -0.360197
N47   N     N_R   0.304228 0.045771 0.963666 0.242655
O109  O     O_R   0.312343 0.045556 0.936866 -0.276101
O110  O     O_R   0.277061 0.067185 0.972792 -0.357031
N48   N     N_R   0.052981 0.694058 0.966396 0.245594
O111  O     O_R   0.058285 0.684399 0.940173 -0.270311
O112  O     O_R   0.073817 0.720460 0.977366 -0.363888
N49   N     N_R   0.194417 0.555685 0.530722 0.246409
O113  O     O_R   0.184284 0.563569 0.556475 -0.272649
O114  O     O_R   0.221610 0.574830 0.519129 -0.365856
N50   N     N_R   0.451047 0.194003 0.536949 0.243939
O115  O     O_R   0.451471 0.186338 0.563818 -0.273486
O116  O     O_R   0.427738 0.219255 0.527454 -0.357078
N51   N     N_R   0.806033 0.449530 0.535893 0.248981
O117  O     O_R   0.815656 0.446664 0.562316 -0.269770
O118  O     O_R   0.779501 0.427924 0.526036 -0.364531
N52   N     N_R   0.547858 0.806434 0.538118 0.248942
O119  O     O_R   0.549698 0.817284 0.564315 -0.270998
O120  O     O_R   0.569239 0.778875 0.529581 -0.364436
N53   N     N_R   0.193829 0.444530 0.467485 0.247298
O121  O     O_R   0.183461 0.436759 0.441777 -0.270369
O122  O     O_R   0.221221 0.425443 0.478803 -0.365359
N54   N     N_R   0.455543 0.806231 0.459803 0.250156
O123  O     O_R   0.456632 0.816338 0.433409 -0.267607
O124  O     O_R   0.432845 0.779341 0.467498 -0.363191
N55   N     N_R   0.806097 0.550546 0.464011 0.249311
O125  O     O_R   0.816317 0.553916 0.437735 -0.273403
O126  O     O_R   0.779145 0.571752 0.473734 -0.363386
N56   N     N_R   0.544216 0.193867 0.459380 0.233220
O127  O     O_R   0.580197 0.187783 0.456869 -0.280264
O128  O     O_R   0.528221 0.218858 0.443268 -0.338588
N57   N     N_R   0.614127 0.049618 0.036249 0.257052
O129  O     O_R   0.618870 0.085890 0.034664 -0.273236
O130  O     O_R   0.591338 0.035859 0.055112 -0.338496
N58   N     N_R   0.947257 0.614081 0.034450 0.258378
O131  O     O_R   0.911306 0.619849 0.031277 -0.271579
O132  O     O_R   0.958833 0.590783 0.053743 -0.340734
N59   N     N_R   0.387578 0.950975 0.037628 0.251881
O133  O     O_R   0.394959 0.916469 0.030213 -0.280456
O134  O     O_R   0.399423 0.963645 0.061952 -0.311325
N60   N     N_R   0.058219 0.385959 0.029702 0.259279
O135  O     O_R   0.093096 0.379706 0.022582 -0.275312
O136  O     O_R   0.050879 0.408385 0.050711 -0.305371
N61   N     N_R   0.614185 0.949229 0.963536 0.256872
O137  O     O_R   0.622794 0.913620 0.964378 -0.271945
O138  O     O_R   0.588830 0.960783 0.945743 -0.326847
N62   N     N_R   0.942654 0.384328 0.970802 0.258179
O139  O     O_R   0.907410 0.378634 0.977085 -0.273056
O140  O     O_R   0.951199 0.405720 0.949466 -0.308786
N63   N     N_R   0.384054 0.049184 0.963638 0.256677
O141  O     O_R   0.375154 0.084725 0.963405 -0.269838
O142  O     O_R   0.409165 0.036782 0.945911 -0.333111
N64   N     N_R   0.053246 0.614367 0.966403 0.258858
O143  O     O_R   0.089177 0.619284 0.970438 -0.272117
O144  O     O_R   0.041885 0.591815 0.946517 -0.337566
N65   N     N_R   0.114994 0.557464 0.529522 0.258992
O145  O     O_R   0.120107 0.592544 0.522531 -0.274617
O146  O     O_R   0.094002 0.549358 0.551193 -0.306899
N66   N     N_R   0.452236 0.114128 0.538032 0.258051
O147  O     O_R   0.416180 0.120549 0.538706 -0.266763
O148  O     O_R   0.466641 0.089569 0.555261 -0.360405
N67   N     N_R   0.885630 0.447809 0.534560 0.257510
O149  O     O_R   0.878963 0.411912 0.532109 -0.272505
O150  O     O_R   0.909210 0.459513 0.553641 -0.339581
N68   N     N_R   0.550439 0.886004 0.536059 0.257836
O151  O     O_R   0.586462 0.879696 0.534243 -0.273108
O152  O     O_R   0.537995 0.909844 0.554697 -0.321907
N69   N     N_R   0.114138 0.444085 0.468396 0.259197
O153  O     O_R   0.118988 0.408622 0.474275 -0.273625
O154  O     O_R   0.091823 0.453587 0.447842 -0.322073
N70   N     N_R   0.450641 0.885575 0.462914 0.256209
O155  O     O_R   0.415079 0.876669 0.462624 -0.273694
O156  O     O_R   0.462958 0.911198 0.445618 -0.325205
N71   N     N_R   0.885461 0.554216 0.466768 0.258452
O157  O     O_R   0.877695 0.589763 0.470139 -0.273406
O158  O     O_R   0.909461 0.544221 0.447424 -0.324199
N72   N     N_R   0.547723 0.113951 0.461846 0.254192
O159  O     O_R   0.583740 0.111895 0.466767 -0.271820
O160  O     O_R   0.533006 0.093559 0.441882 -0.336319

loop_
_geom_bond_atom_site_label_1
_geom_bond_atom_site_label_2
_geom_bond_distance
_ccdc_geom_bond_type
C185  C233  1.431529 S    
N27   H53   1.046505 S    
C81   C121  1.402728 A    
O25   C13   1.278999 A    
N37   H73   1.047301 S    
C95   C111  1.400193 A    
O53   Zn10  1.998115 S    
C138  C154  1.399099 A    
C7    C231  1.463198 S    
N41   O97   1.300966 A    
C20   N2    1.379547 A    
C142  C158  1.398573 A    
O31   C15   1.281282 A    
C38   C62   1.404428 A    
C140  C156  1.398548 A    
C99   C113  1.434897 A    
O18   Zn2   2.019801 S    
C25   C43   1.399458 A    
N69   O153  1.301678 A    
C169  C177  1.429617 S    
O24   Zn4   2.019798 S    
C107  N19   1.446666 S    
C73   O49   1.286567 A    
O19   Zn3   2.019105 S    
N51   O118  1.301408 A    
C13   C117  1.457465 S    
C17   C35   1.400221 A    
O3    C3    1.284166 A    
N36   H72   1.045613 S    
C131  C147  1.398060 A    
C75   O53   1.286423 A    
C11   C115  1.465735 S    
C89   H25   1.081204 S    
C19   N1    1.374813 A    
C188  C236  1.430891 S    
C44   C54   1.406282 A    
C32   C46   1.398922 A    
C46   C56   1.404329 A    
C23   C37   1.400617 A    
O25   Zn5   2.019828 S    
C34   C50   1.402102 A    
C194  C234  1.408128 A    
C200  C216  1.402796 A    
N70   O156  1.300081 A    
C215  C227  1.411665 A    
C41   C65   1.405199 A    
C18   O34   1.349664 S    
N53   O122  1.301904 A    
N39   H77   1.047736 S    
C178  C186  1.196789 T    
O17   C9    1.282575 A    
N57   O130  1.300006 A    
C78   C165  1.452588 S    
C47   C71   1.405493 A    
N69   O154  1.300299 A    
C22   C40   1.400166 A    
N2    C127  1.450721 S    
C216  N64   1.437515 S    
C74   C161  1.456623 S    
C86   C102  1.395747 A    
C201  N49   1.440508 S    
C101  C115  1.432703 A    
O49   Zn9   1.998111 S    
N6    C123  1.443745 S    
N43   O102  1.301035 A    
O62   Zn12  1.998567 S    
C190  C238  1.429704 S    
N39   H78   1.045599 S    
C141  N37   1.438362 S    
N72   O159  1.302297 A    
O13   C5    1.281717 A    
N47   O110  1.301837 A    
C215  N63   1.439366 S    
C88   C124  1.401927 A    
C44   C68   1.405079 A    
O7    Zn1   2.003776 S    
C96   H32   1.083514 S    
N38   H76   1.045740 S    
O26   Zn6   2.019801 S    
O7    C3    1.279417 A    
C48   C56   1.404410 A    
C218  N66   1.437820 S    
N20   O88   1.300541 A    
C74   O50   1.285248 A    
C205  N53   1.440605 S    
N48   O111  1.301073 A    
C78   O58   1.285528 A    
C81   H17   1.085211 S    
O27   C13   1.282278 A    
C155  H43   1.084618 S    
O6    C4    1.282347 A    
N30   H59   1.047355 S    
C175  C183  1.429543 S    
C176  C184  1.430195 S    
C220  N68   1.438150 S    
C143  N39   1.438256 S    
C41   C53   1.401886 A    
C107  C117  1.423647 A    
C135  C151  1.399118 A    
C79   O61   1.287238 A    
C29   C47   1.401510 A    
C197  N45   1.437997 S    
C194  N42   1.439482 S    
C31   C45   1.399743 A    
C203  C239  1.407893 A    
C207  C239  1.407716 A    
N66   O147  1.300947 A    
C96   C112  1.396715 A    
C80   O64   1.285883 A    
N17   O82   1.299767 A    
C6    C230  1.462032 S    
O50   Zn9   1.997873 S    
C105  N17   1.450674 S    
N34   H67   1.047346 S    
O9    C5    1.283312 A    
O64   Zn12  1.997869 S    
C209  C225  1.411238 A    
O11   C7    1.280236 A    
C213  N61   1.439103 S    
C42   C66   1.404628 A    
C75   O51   1.286912 A    
N33   H65   1.047538 S    
N28   H56   1.045428 S    
C90   C106  1.399120 A    
N16   O79   1.302912 A    
O4    C4    1.283477 A    
O5    C1    1.281731 A    
N62   O139  1.301873 A    
N58   O132  1.300042 A    
N40   H79   1.046928 S    
C208  C238  1.408364 A    
C30   O46   1.350056 S    
C207  N55   1.439330 S    
O5    Zn3   2.003772 S    
C69   H13   1.083008 S    
C186  C234  1.431149 S    
N21   O89   1.302108 A    
C151  H39   1.084061 S    
N13   O74   1.299965 A    
C79   O59   1.288402 A    
C99   N11   1.452575 S    
C144  C174  1.407175 A    
C209  N57   1.437549 S    
N25   H49   1.047460 S    
C224  C230  1.412812 A    
C86   H22   1.082708 S    
N44   O104  1.302190 A    
C149  H37   1.084606 S    
C45   C55   1.402143 A    
C31   N7    1.380344 A    
N27   H54   1.046361 S    
O23   C11   1.285120 A    
C3    C227  1.463254 S    
N22   O91   1.302542 A    
N31   H62   1.045167 S    
N68   O151  1.301478 A    
C141  C173  1.407480 A    
C192  C240  1.432782 S    
C194  C210  1.403078 A    
C65   H9    1.083038 S    
C137  N33   1.438355 S    
C70   H14   1.083571 S    
C78   O62   1.286296 A    
O14   C8    1.280157 A    
C42   C54   1.406594 A    
C21   C39   1.398741 A    
C224  N72   1.436586 S    
C90   C126  1.399791 A    
C193  C209  1.403780 A    
N71   O157  1.301971 A    
C153  C165  1.397386 A    
N14   O75   1.302246 A    
C73   O55   1.284587 A    
N23   O94   1.298438 A    
C57   C72   1.394535 A    
O28   C14   1.284357 A    
N36   H71   1.048157 S    
O26   C14   1.280654 A    
O29   C15   1.280756 A    
C102  C116  1.422598 A    
O8    Zn4   2.003717 S    
C59   C70   1.393064 A    
O30   C16   1.284906 A    
C63   H7    1.083502 S    
C132  N28   1.438353 S    
C133  C149  1.398246 A    
C137  C173  1.408075 A    
C91   C107  1.395128 A    
C210  C226  1.412121 A    
C221  N69   1.437324 S    
C220  C232  1.412138 A    
C45   C69   1.404947 A    
C43   C53   1.402281 A    
C75   C162  1.455490 S    
C80   O60   1.285815 A    
C87   C123  1.393757 A    
N46   O107  1.301977 A    
C91   C125  1.400912 A    
N10   O68   1.296766 A    
N45   O105  1.301303 A    
N24   O96   1.300105 A    
C193  C233  1.409036 A    
C24   N4    1.378887 A    
C33   C57   1.405085 A    
C144  C160  1.399235 A    
C130  C170  1.407402 A    
O56   Zn10  1.997869 S    
N42   O99   1.300936 A    
N8    C121  1.451886 S    
C106  N18   1.453089 S    
C26   C44   1.400835 A    
C2    C226  1.462901 S    
O32   Zn8   2.019798 S    
C130  N26   1.439122 S    
C15   C119  1.459587 S    
C136  C152  1.398661 A    
C28   O44   1.350358 S    
C30   C48   1.400625 A    
O16   Zn8   2.003717 S    
C193  N41   1.440394 S    
N65   O145  1.302008 A    
C37   C51   1.405421 A    
C98   C114  1.428245 A    
C136  N32   1.439000 S    
C28   C42   1.399670 A    
C204  C240  1.408386 A    
N50   O116  1.301376 A    
N61   O137  1.301874 A    
C81   C97   1.399692 A    
O6    Zn2   2.003721 S    
C157  C165  1.397879 A    
C204  C220  1.403410 A    
C143  C175  1.408107 A    
C83   C121  1.398102 A    
N26   H51   1.048185 S    
C200  C234  1.408297 A    
C140  N36   1.438429 S    
N60   O136  1.299756 A    
C29   N7    1.379617 A    
C179  C187  1.195202 T    
C133  N29   1.438752 S    
N55   O125  1.300955 A    
C198  C214  1.402656 A    
C147  C163  1.401144 A    
C214  C228  1.414449 A    
C18   N2    1.379651 A    
C136  C170  1.407665 A    
O21   Zn3   2.019821 S    
N15   O78   1.299902 A    
C95   C127  1.401320 A    
C96   C128  1.396617 A    
C217  C229  1.413825 A    
C60   C69   1.394723 A    
C204  N52   1.441411 S    
C219  C231  1.412466 A    
N18   O83   1.306167 A    
C134  C150  1.399171 A    
C202  C238  1.407468 A    
C206  C240  1.408293 A    
N59   O133  1.301127 A    
C84   C100  1.395534 A    
C142  C176  1.407911 A    
N4    C125  1.450820 S    
O12   C8    1.281553 A    
O1    C1    1.280525 A    
C138  N34   1.439346 S    
C5    C229  1.465879 S    
C202  C218  1.403091 A    
C139  N35   1.438320 S    
N56   O127  1.301216 A    
C100  C114  1.424673 A    
C32   N8    1.378599 A    
N17   O81   1.304107 A    
C83   H19   1.081066 S    
C46   C70   1.403883 A    
C195  C235  1.407473 A    
C131  C171  1.405859 A    
C23   N3    1.377108 A    
C135  N31   1.438847 S    
C52   C53   1.406204 A    
C74   O54   1.288614 A    
C34   C58   1.404851 A    
C191  C239  1.431628 S    
N44   O103  1.300645 A    
C95   H31   1.080090 S    
C155  C167  1.397375 A    
C82   H18   1.081023 S    
C131  N27   1.438702 S    
C85   C123  1.395907 A    
C57   H1    1.083505 S    
N35   H69   1.047745 S    
O29   Zn7   2.019821 S    
C142  N38   1.438603 S    
N47   O109  1.300661 A    
C148  C164  1.397279 A    
C223  N71   1.439279 S    
C61   H5    1.083628 S    
C196  C236  1.407596 A    
C152  H40   1.084589 S    
N32   H63   1.048156 S    
O60   Zn11  1.998565 S    
C59   H3    1.083434 S    
N54   O123  1.300813 A    
C82   C122  1.401830 A    
C217  N65   1.437135 S    
N12   O71   1.303141 A    
C58   C71   1.396401 A    
C132  C172  1.407716 A    
C206  N54   1.438849 S    
N67   O149  1.301675 A    
C22   N4    1.379430 A    
C104  N16   1.452356 S    
C137  C153  1.398338 A    
N11   O69   1.305990 A    
O61   Zn12  1.998115 S    
O10   C6    1.279528 A    
C219  N67   1.438135 S    
N64   O143  1.301978 A    
C139  C175  1.408124 A    
C154  C166  1.400388 A    
C141  C157  1.397941 A    
C198  N46   1.437865 S    
C37   C61   1.404103 A    
N9    O66   1.303944 A    
N57   O129  1.301322 A    
C39   C63   1.403992 A    
C129  C145  1.399483 A    
C50   C55   1.407003 A    
O15   Zn5   2.003776 S    
C67   H11   1.082999 S    
C177  C185  1.197180 T    
C145  C161  1.397979 A    
C92   C108  1.397090 A    
C97   N9    1.449504 S    
C218  C230  1.411340 A    
C61   C68   1.393797 A    
C158  C168  1.397789 A    
C156  H44   1.084847 S    
N3    C126  1.448414 S    
C157  H45   1.084712 S    
N29   H58   1.045098 S    
C183  C191  1.197218 T    
N72   O160  1.300006 A    
C184  C192  1.197832 T    
O59   Zn11  1.998841 S    
C4    C228  1.467585 S    
C38   C52   1.402333 A    
C150  H38   1.084601 S    
O22   Zn2   2.019107 S    
C189  C237  1.430264 S    
N49   O113  1.300948 A    
O21   C11   1.281047 A    
C28   N6    1.374424 A    
N37   H74   1.045477 S    
O22   C12   1.281733 A    
N48   O112  1.302097 A    
O23   Zn1   2.019102 S    
C140  C176  1.407779 A    
C24   C38   1.398375 A    
N30   H60   1.045868 S    
N52   O120  1.302683 A    
N41   O98   1.301698 A    
C19   O35   1.350133 S    
C26   N6    1.375007 A    
N12   O72   1.298855 A    
O57   Zn11  1.998111 S    
C208  C224  1.404869 A    
C30   N8    1.378635 A    
C212  C228  1.415850 A    
C25   N5    1.380798 A    
C154  H42   1.084321 S    
C221  C229  1.413546 A    
C68   H12   1.083555 S    
C197  C233  1.407938 A    
C94   C110  1.400441 A    
O8    C2    1.281548 A    
C205  C221  1.403908 A    
C196  C212  1.403371 A    
N31   H61   1.046249 S    
C152  C162  1.398165 A    
O28   Zn8   2.019113 S    
C85   C101  1.401855 A    
C27   N5    1.380011 A    
O30   Zn6   2.019107 S    
C83   C99   1.400005 A    
C90   H26   1.082564 S    
C111  C119  1.428414 A    
C138  C174  1.407397 A    
C147  H35   1.083679 S    
C105  C117  1.426113 A    
C40   C52   1.402891 A    
N16   O80   1.300033 A    
C94   H30   1.082762 S    
C199  N47   1.438652 S    
C8    C232  1.460853 S    
C22   O38   1.349447 S    
N62   O140  1.300015 A    
N40   H80   1.046351 S    
O9    Zn5   2.003468 S    
C93   C127  1.402155 A    
C86   C124  1.403783 A    
O11   Zn7   2.003471 S    
N70   O155  1.301755 A    
C101  N13   1.453853 S    
N13   O73   1.302247 A    
C84   C122  1.400763 A    
O2    Zn2   2.004022 S    
N52   O119  1.299910 A    
O3    Zn3   2.003471 S    
C88   C104  1.400887 A    
C196  N44   1.440653 S    
C19   C33   1.401631 A    
C25   O41   1.349516 S    
C212  N60   1.437672 S    
C134  N30   1.438454 S    
C77   O63   1.286268 A    
N22   O92   1.299682 A    
C156  C168  1.397782 A    
C36   C50   1.402307 A    
N68   O152  1.299436 A    
N59   O134  1.305720 A    
C187  C235  1.429049 S    
C171  C179  1.427411 S    
O31   Zn5   2.019102 S    
C206  C222  1.403218 A    
C150  C164  1.396890 A    
C36   C60   1.404271 A    
C43   C67   1.405028 A    
C63   C66   1.392817 A    
O18   C10   1.278801 A    
C134  C172  1.408711 A    
C108  C118  1.428281 A    
O17   Zn1   2.019828 S    
C148  H36   1.084746 S    
C49   C56   1.408063 A    
C213  C225  1.412613 A    
C76   O52   1.288314 A    
C89   C105  1.398221 A    
C40   C64   1.405107 A    
C112  N24   1.441392 S    
C51   C54   1.407135 A    
N38   H75   1.048306 S    
C109  C119  1.421206 A    
C14   C118  1.464387 S    
N14   O76   1.302128 A    
C35   C49   1.406132 A    
C146  C162  1.398508 A    
C195  N43   1.443893 S    
N20   O87   1.302830 A    
C93   C109  1.394678 A    
C109  N21   1.442650 S    
C62   C67   1.394818 A    
C200  N48   1.440053 S    
C216  C226  1.411809 A    
N66   O148  1.300034 A    
N35   H70   1.045637 S    
C135  C171  1.406938 A    
C16   C120  1.467430 S    
C195  C211  1.404762 A    
C199  C235  1.408675 A    
N55   O126  1.301573 A    
O2    C2    1.281291 A    
N19   O85   1.302746 A    
C139  C155  1.398613 A    
O16   C6    1.282822 A    
N46   O108  1.300970 A    
N15   O77   1.302099 A    
N71   O158  1.299573 A    
N49   O114  1.301946 A    
C159  H47   1.084635 S    
C21   N3    1.377276 A    
C160  H48   1.084171 S    
N53   O121  1.301015 A    
C104  C116  1.429214 A    
C145  H33   1.084464 S    
O4    Zn4   2.004025 S    
N63   O142  1.300561 A    
C160  C166  1.399871 A    
N67   O150  1.300026 A    
N11   O70   1.302743 A    
N42   O100  1.302131 A    
C31   O47   1.349305 S    
C32   O48   1.350028 S    
C153  H41   1.084773 S    
N51   O117  1.301038 A    
C27   C41   1.399696 A    
C129  C169  1.408148 A    
C130  C146  1.398446 A    
C149  C161  1.399666 A    
C84   H20   1.081876 S    
O20   C10   1.283612 A    
C62   H6    1.083293 S    
O32   C16   1.281086 A    
N28   H55   1.047835 S    
C76   C163  1.462704 S    
N19   O86   1.299117 A    
N61   O138  1.300307 A    
C20   C34   1.399881 A    
C89   C125  1.401249 A    
N58   O131  1.301904 A    
C88   H24   1.079970 S    
C132  C148  1.397576 A    
N63   O141  1.301390 A    
C133  C169  1.407062 A    
N21   O90   1.301121 A    
C180  C188  1.196740 T    
C146  H34   1.084645 S    
C108  N20   1.449063 S    
C9    C113  1.462261 S    
C172  C180  1.428823 S    
O15   C7    1.283283 A    
C173  C181  1.428181 S    
C82   C98   1.399387 A    
C112  C120  1.424258 A    
C211  C227  1.414125 A    
C202  N50   1.437553 S    
C80   C167  1.452409 S    
C181  C189  1.196350 T    
C64   C65   1.395953 A    
C223  C231  1.414106 A    
C39   C51   1.404507 A    
C71   H15   1.083125 S    
C87   H23   1.082663 S    
C72   H16   1.083672 S    
C47   C55   1.402583 A    
O27   Zn7   2.019105 S    
C77   O57   1.286337 A    
C203  N51   1.439009 S    
C66   H10   1.083257 S    
N18   O84   1.300887 A    
N43   O101  1.300981 A    
C60   H4    1.083028 S    
N7    C122  1.453230 S    
C182  C190  1.195806 T    
C24   O40   1.349688 S    
O58   Zn11  1.997873 S    
C1    C225  1.461168 S    
C93   H29   1.082767 S    
C158  H46   1.084779 S    
C106  C118  1.433049 A    
C144  N40   1.439150 S    
C12   C116  1.460349 S    
C214  N62   1.437636 S    
N56   O128  1.301775 A    
C207  C223  1.403081 A    
C18   C36   1.398971 A    
O19   C9    1.281975 A    
C97   C113  1.435030 A    
N23   O93   1.302437 A    
C174  C182  1.428747 S    
O24   C12   1.280448 A    
C222  C232  1.411803 A    
C94   C128  1.397546 A    
C98   N10   1.452398 S    
C205  C237  1.408928 A    
C110  N22   1.449802 S    
O12   Zn8   2.004025 S    
C170  C178  1.428891 S    
C199  C215  1.404001 A    
O51   Zn9   1.998841 S    
O14   Zn6   2.003721 S    
C58   H2    1.083145 S    
O63   Zn12  1.998838 S    
C111  N23   1.452896 S    
C210  N58   1.438048 S    
C20   O36   1.349765 S    
N32   H64   1.045500 S    
C76   O56   1.288805 A    
C197  C213  1.403229 A    
N10   O67   1.303846 A    
N54   O124  1.301487 A    
N24   O95   1.302372 A    
O54   Zn10  1.998567 S    
C110  C120  1.428262 A    
C29   O45   1.349407 S    
O55   Zn10  1.998838 S    
N1    C128  1.443466 S    
C159  C167  1.397292 A    
C17   N1    1.375009 A    
C48   C72   1.404186 A    
C87   C103  1.397573 A    
C27   O43   1.349739 S    
O13   Zn7   2.003772 S    
N5    C124  1.453133 S    
C201  C237  1.407974 A    
C151  C163  1.401551 A    
C203  C219  1.403115 A    
N33   H66   1.045461 S    
N64   O144  1.299728 A    
C91   H27   1.082138 S    
C85   H21   1.083180 S    
C102  N14   1.442721 S    
C64   H8    1.083302 S    
C211  N59   1.431181 S    
C10   C114  1.459849 S    
C201  C217  1.402383 A    
N65   O146  1.299923 A    
C198  C236  1.407586 A    
N9    O65   1.301568 A    
C77   C168  1.454249 S    
C143  C159  1.398502 A    
O20   Zn4   2.019113 S    
C129  N25   1.438357 S    
C33   C49   1.406445 A    
C92   H28   1.082283 S    
N26   H52   1.045537 S    
N50   O115  1.301006 A    
N45   O106  1.301301 A    
C35   C59   1.404684 A    
C73   C164  1.451390 S    
C103  C115  1.430927 A    
C103  N15   1.448899 S    
O10   Zn6   2.004022 S    
N34   H68   1.045262 S    
O52   Zn9   1.998565 S    
C17   O33   1.350297 S    
C100  N12   1.448458 S    
C208  N56   1.440232 S    
N25   H50   1.045932 S    
N29   H57   1.047684 S    
C92   C126  1.398497 A    
C79   C166  1.459873 S    
N60   O135  1.302324 A    
C21   O37   1.350070 S    
C222  N70   1.439371 S    
O1    Zn1   2.003468 S    
C23   O39   1.349884 S    
C26   O42   1.350304 S    
