data_mof_unit_11188.cif
_audit_creation_date              2013-03-05T16:03:50-0500
_audit_creation_method            fapswitch 2.2
_symmetry_space_group_name_H-M    P1
_symmetry_Int_Tables_number       1
_space_group_crystal_system       triclinic
_cell_length_a                    6.955989
_cell_length_b                    17.686888
_cell_length_c                    19.553598
_cell_angle_alpha                 109.040935
_cell_angle_beta                  90.077961
_cell_angle_gamma                 90.991836
_cell_volume                      2273.64724157

loop_
_atom_site_label
_atom_site_type_symbol
_atom_site_description
_atom_site_fract_x
_atom_site_fract_y
_atom_site_fract_z
_atom_type_partial_charge
O1    O     O_R   0.505700 0.440210 0.561730 -0.603469
O2    O     O_R   0.169350 0.406300 0.412660 -0.593777
O3    O     O_R   0.005650 0.559790 0.438270 -0.600079
C1    C     C_R   0.337767 0.382819 0.384983 0.941117
O4    O     O_R   0.175560 0.430650 0.559600 -0.597025
O5    O     O_R   0.011900 0.584320 0.586250 -0.584084
C2    C     C_R   0.344135 0.415704 0.581217 0.910978
O6    O     O_R   0.499450 0.415680 0.413750 -0.587322
O7    O     O_3   0.341370 0.550390 0.508570 -0.273425
V1    V     V_3+5 0.063940 0.490650 0.498410 1.153573
O8    O     O_R   0.682570 0.593700 0.587340 -0.596634
C3    C     C_R   0.853433 0.618413 0.613728 0.967997
O9    O     O_R   0.676370 0.569350 0.440400 -0.587181
C4    C     C_R   0.845657 0.583493 0.418537 0.928899
V2    V     V_3+5 0.564750 0.509350 0.501590 1.159306
O10   O     O_3   0.837190 0.449610 0.491430 -0.277900
C5    C     C_R   0.969328 0.644627 0.254929 0.073975
C6    C     C_R   0.960826 0.602070 0.304296 -0.204462
H1    H     H_    0.028560 0.544745 0.290672 0.106292
C7    C     C_R   0.858870 0.631198 0.369057 -0.120458
C8    C     C_R   0.772313 0.705898 0.385998 -0.185604
H2    H     H_    0.691829 0.729618 0.435549 0.120831
C9    C     C_R   0.793596 0.751802 0.340086 -0.048049
H3    H     H_    0.731900 0.810752 0.356241 0.137132
C10   C     C_R   0.886232 0.721035 0.272775 0.196022
C11   C     C_R   0.720411 0.803703 0.205642 0.233471
C12   C     C_R   0.728823 0.848508 0.157365 0.254881
C13   C     C_R   0.906489 0.861614 0.126821 -0.357795
C14   C     C_R   0.066732 0.822187 0.140211 -0.111019
H4    H     H_    0.198710 0.824987 0.113465 0.231869
C15   C     C_R   0.057428 0.775948 0.185718 -0.100336
H5    H     H_    0.184210 0.746071 0.193127 0.218656
C16   C     C_R   0.887686 0.767806 0.221011 -0.116601
H6    H     H_    0.592994 0.653066 0.924303 0.135640
C17   C     C_R   0.074007 0.897894 0.754817 -0.187363
C18   C     C_R   0.152988 0.909047 0.693928 -0.180347
C19   C     C_R   0.138409 0.849030 0.627217 0.062197
C20   C     C_R   0.042516 0.776182 0.621495 -0.018609
C21   C     C_R   0.965338 0.761758 0.684293 0.084575
C22   C     C_R   0.982503 0.824873 0.752069 0.104882
C23   C     C_R   0.869162 0.688176 0.681891 -0.308032
C24   C     C_R   0.793825 0.679418 0.746644 0.117264
C25   C     C_R   0.811338 0.743173 0.813377 0.101423
C26   C     C_R   0.905272 0.815658 0.816008 -0.291735
C27   C     C_R   0.704437 0.606703 0.746807 -0.167609
C28   C     C_R   0.631736 0.597879 0.810149 -0.135428
C29   C     C_R   0.648249 0.660370 0.875056 -0.086948
C30   C     C_R   0.738020 0.732020 0.877071 -0.139322
H7    H     H_    0.085565 0.948255 0.804152 0.133136
H8    H     H_    0.223287 0.965728 0.698771 0.128572
H9    H     H_    0.690870 0.555266 0.698433 0.117360
H10   H     H_    0.563691 0.541905 0.808888 0.125038
H11   H     H_    0.750968 0.778002 0.929356 0.131345
H12   H     H_    0.964999 0.426095 0.186252 0.111638
C31   C     C_R   0.548082 0.240657 0.380336 -0.144217
C32   C     C_R   0.664038 0.176999 0.379563 -0.121945
C33   C     C_R   0.702286 0.117414 0.314762 -0.085352
C34   C     C_R   0.623596 0.120660 0.250296 -0.118565
C35   C     C_R   0.506073 0.184768 0.249009 0.103595
C36   C     C_R   0.469403 0.246884 0.315541 0.122242
C37   C     C_R   0.421692 0.186741 0.183445 -0.336415
C38   C     C_R   0.303504 0.252001 0.184773 0.119865
C39   C     C_R   0.265102 0.313594 0.251361 0.127047
C40   C     C_R   0.351426 0.312351 0.316887 -0.326632
C41   C     C_R   0.224507 0.258040 0.119922 -0.146363
C42   C     C_R   0.103209 0.320078 0.120870 -0.104324
C43   C     C_R   0.060690 0.378411 0.185859 -0.128189
C44   C     C_R   0.142569 0.376149 0.250206 -0.177389
H13   H     H_    0.518235 0.283906 0.432609 0.113399
H14   H     H_    0.723185 0.173565 0.429686 0.120316
H15   H     H_    0.791806 0.067833 0.314470 0.131921
H16   H     H_    0.656319 0.072042 0.201894 0.155027
H17   H     H_    0.256923 0.215576 0.067527 0.104837
H18   H     H_    0.042457 0.323026 0.070815 0.113258
H19   H     H_    0.107317 0.423784 0.298796 0.127528
C45   C     C_R   0.538313 0.319437 0.714582 -0.157414
H20   H     H_    0.672088 0.321172 0.743421 0.104233
C46   C     C_R   0.526649 0.364552 0.667749 -0.161645
H21   H     H_    0.652573 0.398489 0.661462 0.126132
C47   C     C_R   0.354681 0.366922 0.630525 -0.126061
C48   C     C_R   0.194680 0.322538 0.641260 -0.155127
H22   H     H_    0.060213 0.322595 0.613285 0.127721
C49   C     C_R   0.207085 0.276400 0.687406 -0.149966
H23   H     H_    0.081942 0.241559 0.692662 0.099348
C50   C     C_R   0.379117 0.274228 0.725026 0.112177
C51   C     C_R   0.231203 0.214156 0.814306 -0.153980
H24   H     H_    0.095350 0.241255 0.810049 0.102444
C52   C     C_R   0.243262 0.168639 0.860819 -0.169967
H25   H     H_    0.115692 0.161274 0.889892 0.129952
C53   C     C_R   0.417592 0.134014 0.870433 -0.119988
C54   C     C_R   0.579507 0.145856 0.831926 -0.153880
H26   H     H_    0.715579 0.119438 0.837400 0.123840
C55   C     C_R   0.566860 0.190505 0.784558 -0.153988
H27   H     H_    0.693715 0.196281 0.754537 0.099310
C56   C     C_R   0.392503 0.225632 0.775075 0.110874
O11   O     O_R   0.273230 0.084330 0.086440 -0.584424
O12   O     O_R   0.596660 0.069390 0.940470 -0.603800
O13   O     O_R   0.760270 0.915710 0.913690 -0.591462
C57   C     C_R   0.428013 0.084611 0.919163 0.892764
O14   O     O_R   0.603330 0.093680 0.087390 -0.602024
O15   O     O_R   0.766990 0.940160 0.061660 -0.550964
C58   C     C_R   0.435107 0.116685 0.115329 0.978817
O16   O     O_R   0.266510 0.059870 0.938470 -0.612622
O17   O     O_3   0.431050 0.949630 0.991510 -0.217107
V3    V     V_3+5 0.708490 0.009340 0.001580 1.195544
O18   O     O_R   0.096270 0.930570 0.059390 -0.557932
C59   C     C_R   0.925150 0.913671 0.079653 0.988233
O19   O     O_R   0.089600 0.906290 0.912460 -0.595740
C60   C     C_R   0.919277 0.883011 0.885445 0.920307
V4    V     V_3+5 0.207670 0.990600 0.998190 1.217004
O20   O     O_3   0.935250 0.050360 0.008480 -0.295349
N1    N     N_3   0.054973 0.608304 0.185619 -0.217128
H28   H     H_    0.978859 0.555263 0.159282 0.100116
H29   H     H_    0.195889 0.593350 0.193881 0.151048
N2    N     N_3   0.218528 0.861563 0.563917 -0.216184
H30   H     H_    0.304630 0.913512 0.578332 0.108369
H31   H     H_    0.104350 0.871320 0.533173 0.108854
N3    N     N_3   0.020327 0.718725 0.550937 -0.203686
H32   H     H_    0.156682 0.704331 0.528479 0.155214
H33   H     H_    0.943966 0.745323 0.519203 0.073570
N4    N     N_R   0.539046 0.790017 0.234650 0.216223
O21   O     O_R   0.488941 0.718187 0.233056 -0.462905
O22   O     O_R   0.436282 0.850431 0.271163 -0.399200
N5    N     N_R   0.553133 0.869847 0.131427 0.237073
O23   O     O_R   0.501504 0.833188 0.064586 -0.439470
O24   O     O_R   0.462567 0.933166 0.169816 -0.404254

loop_
_geom_bond_atom_site_label_1
_geom_bond_atom_site_label_2
_geom_bond_distance
_ccdc_geom_bond_type
O15   C59   1.295370 A    
C57   O16   1.299228 A    
C31   C32   1.392428 A    
C55   H27   1.082167 S    
O11   C58   1.295966 A    
C23   C24   1.424320 A    
C17   C18   1.381868 A    
C1    O6    1.296695 A    
N1    H29   1.045612 S    
C48   H22   1.083101 S    
C53   C54   1.405815 A    
C21   C23   1.439935 A    
C27   C28   1.392558 A    
C32   C33   1.387911 A    
C44   H19   1.076182 S    
C31   C36   1.417088 A    
O14   V3    1.995895 S    
C38   C39   1.427918 A    
O13   V3    1.997745 S    
O16   V4    1.987364 S    
C13   C14   1.393742 A    
C19   C20   1.411933 A    
C45   C46   1.400257 A    
O5    C3    1.296369 A    
C20   C21   1.436155 A    
C46   C47   1.407733 A    
O18   C59   1.315062 A    
C27   H9    1.080079 S    
C13   C59   1.505162 S    
V2    O10   2.163481 S    
C42   H18   1.082680 S    
C28   H10   1.082849 S    
C41   H17   1.081186 S    
O19   C60   1.300665 A    
C6    H1    1.077763 S    
N3    H32   1.045859 S    
O17   V3    2.161297 S    
C48   C49   1.403648 A    
V4    O20   2.163358 S    
O8    V2    2.007622 S    
C29   C30   1.391897 A    
N2    H31   1.045511 S    
C17   H7    1.080347 S    
C9    H3    1.082603 S    
C15   C16   1.397227 A    
O1    V2    1.992293 S    
C11   N4    1.432780 S    
O7    V1    2.161349 S    
C6    C7    1.400489 A    
O12   V3    2.003785 S    
C26   C60   1.487392 S    
C42   C43   1.386678 A    
V3    O20   1.711290 S    
C35   C36   1.429180 A    
C55   C56   1.411382 A    
O13   C60   1.295472 A    
O1    C2    1.299291 A    
O9    C4    1.301125 A    
N1    H28   1.045200 S    
O12   C57   1.305767 A    
O15   V3    1.999172 S    
C30   H11   1.081418 S    
C35   C37   1.420267 A    
C43   C44   1.393120 A    
C4    C7    1.478726 S    
C45   H20   1.082188 S    
C54   H26   1.083211 S    
O4    C2    1.306075 A    
C51   H24   1.082194 S    
H12   C43   1.081502 S    
C34   C35   1.416064 A    
O11   V4    2.009746 S    
C24   C27   1.419753 A    
O2    C1    1.307555 A    
C25   C26   1.414602 A    
C14   H4    1.065547 S    
C54   C55   1.403092 A    
C11   C16   1.412942 A    
C49   H23   1.082153 S    
C12   N5    1.425620 S    
C7    C8    1.400129 A    
O14   C58   1.306321 A    
C5    C6    1.405193 A    
C11   C12   1.417444 A    
C33   H15   1.082790 S    
N4    O21   1.302031 A    
C31   H13   1.081151 S    
O3    C4    1.297589 A    
C49   C50   1.411459 A    
C52   C53   1.407510 A    
O6    V2    2.004073 S    
C32   H14   1.082636 S    
C8    C9    1.399578 A    
C24   C25   1.422609 A    
O2    V1    1.995943 S    
C5    N1    1.432376 S    
C53   C57   1.490617 S    
C21   C22   1.430524 A    
C18   H8    1.083537 S    
C3    C23   1.494250 S    
N5    O24   1.300666 A    
C25   C30   1.417278 A    
C1    C40   1.502332 S    
C28   C29   1.387637 A    
C18   C19   1.389633 A    
C38   C41   1.417691 A    
C46   H21   1.082998 S    
C15   H5    1.069445 S    
C47   C48   1.406021 A    
O5    V1    1.997912 S    
O8    C3    1.305012 A    
C19   N2    1.438175 S    
C39   C44   1.414203 A    
C36   C40   1.424068 A    
C5    C10   1.414959 A    
O9    V2    1.990745 S    
C17   C22   1.414980 A    
O7    V2    1.713149 S    
O4    V1    2.003763 S    
C14   C15   1.392108 A    
O3    V1    1.999213 S    
V1    O10   1.711267 S    
O17   V4    1.712983 S    
C50   C56   1.502174 S    
C34   H16   1.078576 S    
C33   C34   1.392224 A    
O19   V4    2.007746 S    
C37   C58   1.498504 S    
C51   C52   1.400795 A    
C9    C10   1.410934 A    
C37   C38   1.422032 A    
N3    H33   1.042446 S    
N4    O22   1.300981 A    
C51   C56   1.408750 A    
C39   C40   1.421080 A    
C20   N3    1.427999 S    
C22   C26   1.417742 A    
C52   H25   1.083173 S    
O18   V4    1.990698 S    
C41   C42   1.391068 A    
C12   C13   1.421325 A    
N5    O23   1.302045 A    
H6    C29   1.082662 S    
C8    H2    1.082872 S    
C45   C50   1.408483 A    
N2    H30   1.045900 S    
C10   C16   1.501676 S    
C2    C47   1.491374 S    
