data_mof_unit_44362.cif
_audit_creation_date              2012-12-10T20:36:39-0500
_audit_creation_method            fapswitch 2.2
_symmetry_space_group_name_H-M    P1
_symmetry_Int_Tables_number       1
_space_group_crystal_system       triclinic
_cell_length_a                    10.499919
_cell_length_b                    10.672411
_cell_length_c                    9.872654
_cell_angle_alpha                 89.980914
_cell_angle_beta                  89.438149
_cell_angle_gamma                 90.033394
_cell_volume                      1106.27074413

loop_
_atom_site_label
_atom_site_type_symbol
_atom_type_description
_atom_site_fract_x
_atom_site_fract_y
_atom_site_fract_z
_atom_type_partial_charge
C1    C     C_R   0.503725 0.259993 0.500044 0.885399
C2    C     C_R   0.518354 0.936055 0.623082 0.124576
C3    C     C_3   0.422451 0.928617 0.735779 -0.481771
C4    C     C_R   0.257371 0.500296 0.500657 0.885993
C5    C     C_3   0.422028 0.070630 0.735632 -0.506527
C6    C     C_R   0.439984 0.406634 0.071912 0.219799
C7    C     C_R   0.568704 0.585593 0.071193 -0.137255
C8    C     C_R   0.568677 0.585636 0.927252 -0.127392
C9    C     C_R   0.439865 0.406715 0.929414 0.231926
C10   C     C_3   0.301432 0.375908 0.925742 -0.540346
C11   C     C_3   0.301810 0.375133 0.079484 -0.507728
C12   C     C_3   0.961582 0.497900 0.369781 -0.200661
C13   C     C_R   0.503930 0.739992 0.499966 0.870417
C14   C     C_R   0.742636 0.499769 0.499267 0.906555
C15   C     C_3   0.038659 0.503169 0.630226 -0.232228
C16   C     C_3   0.958521 0.400222 0.564223 0.599861
C17   C     C_3   0.877597 0.500169 0.497573 -0.046441
C18   C     C_3   0.956736 0.604691 0.561241 -0.247657
C19   C     C_3   0.043450 0.602370 0.433717 -0.143593
C20   C     C_3   0.999744 0.221917 0.686599 -0.338367
C21   C     C_3   0.043609 0.395472 0.437170 -0.275541
C22   C     C_3   0.122485 0.500277 0.501847 -0.043200
C23   C     C_R   0.518110 0.063815 0.623088 0.169385
C24   C     C_R   0.523467 0.128583 0.500812 -0.096899
C25   C     C_R   0.552779 0.064886 0.380239 -0.223324
C26   C     C_R   0.552969 0.935275 0.380220 -0.232680
C27   C     C_R   0.523805 0.871405 0.500767 -0.106039
H1    H     H_    0.463337 0.887722 0.829366 0.204030
H2    H     H_    0.072706 0.505484 0.736121 0.139451
H3    H     H_    0.916486 0.689688 0.610312 0.148192
H4    H     H_    0.083724 0.685277 0.380491 0.138261
H5    H     H_    0.926089 0.496614 0.264220 0.161679
H6    H     H_    0.083767 0.310580 0.387794 0.137497
H7    H     H_    0.566915 0.114094 0.285267 0.170996
H8    H     H_    0.567230 0.886175 0.285248 0.166401
H9    H     H_    0.330487 0.886914 0.703527 0.202047
H10   H     H_    0.051542 0.273741 0.766748 0.161839
H11   H     H_    0.067462 0.187546 0.607621 0.149850
H12   H     H_    0.329857 0.111580 0.703024 0.188279
H13   H     H_    0.955223 0.138621 0.734812 0.196901
H14   H     H_    0.462522 0.111857 0.829230 0.208974
H15   H     H_    0.622233 0.656200 0.124871 0.141282
H16   H     H_    0.622145 0.656300 0.872419 0.143568
H17   H     H_    0.243723 0.453246 0.882908 0.214427
H18   H     H_    0.283223 0.282147 0.881177 0.193374
H19   H     H_    0.243428 0.451428 0.125044 0.224878
H20   H     H_    0.284999 0.280650 0.123597 0.197782
N1    N     N_R   0.499140 0.499140 0.142800 -0.107348
N2    N     N_R   0.499140 0.499180 0.857150 -0.105417
O1    O     O_R   0.500020 0.316790 0.614690 -0.607570
O2    O     O_R   0.500000 0.316760 0.385350 -0.627372
O3    O     O_R   0.313960 0.499990 0.614650 -0.630305
O4    O     O_R   0.313940 0.499950 0.385310 -0.619297
O5    O     O_R   0.500000 0.683240 0.614650 -0.624286
O6    O     O_R   0.499980 0.683210 0.385310 -0.627426
O7    O     O_R   0.686060 0.500050 0.614690 -0.600474
O8    O     O_R   0.686040 0.500010 0.385350 -0.633303
O9    O     O_3   0.902894 0.296145 0.630153 -0.606343
Zn1   Zn    Zn3+2 0.500010 0.500020 0.653130 0.954638
Zn2   Zn    Zn3+2 0.499990 0.499980 0.346870 0.938533

loop_
_geom_bond_atom_site_label_1
_geom_bond_atom_site_label_2
_ccdc_geom_bond_type
C12   C17   S    
C15   C18   S    
C14   O7    A    
C23   C24   A    
C8    H16   S    
N1    Zn2   S    
C2    C27   A    
C18   H3    S    
O3    Zn1   S    
C4    O4    A    
C20   H11   S    
C9    C10   S    
C13   O5    A    
C11   H20   S    
N2    Zn1   S    
O7    Zn1   S    
C25   H7    S    
C19   H4    S    
C7    N1    A    
C10   H18   S    
C6    C9    A    
C2    C3    S    
C9    N2    A    
C7    C8    A    
C16   O9    S    
O6    Zn2   S    
C12   H5    S    
C20   H10   S    
C1    O2    A    
C14   C17   S    
C26   C27   A    
C16   C21   S    
C6    N1    A    
C3    H9    S    
C4    O3    A    
O1    Zn1   S    
C12   C21   S    
C12   C19   S    
C3    H1    S    
O4    Zn2   S    
C15   H2    S    
O5    Zn1   S    
C5    H12   S    
C20   H13   S    
C21   H6    S    
C10   C11   S    
C10   H17   S    
C15   C16   S    
C3    C5    S    
C26   H8    S    
C6    C11   S    
C19   C22   S    
C4    C22   S    
C24   C25   A    
C1    C24   S    
C17   C18   S    
C18   C19   S    
C1    O1    A    
C7    H15   S    
C2    C23   A    
C14   O8    A    
C5    H14   S    
C13   C27   S    
O8    Zn2   S    
O2    Zn2   S    
C13   O6    A    
C25   C26   A    
C21   C22   S    
C20   O9    S    
C8    N2    A    
C15   C22   S    
C16   C17   S    
C11   H19   S    
C5    C23   S    
