data_mof_unit_54320.cif
_audit_creation_date              2012-12-10T18:34:35-0500
_audit_creation_method            fapswitch 2.2
_symmetry_space_group_name_H-M    P1
_symmetry_Int_Tables_number       1
_space_group_crystal_system       triclinic
_cell_length_a                    14.875667
_cell_length_b                    14.998459
_cell_length_c                    15.752382
_cell_angle_alpha                 90.174749
_cell_angle_beta                  104.054769
_cell_angle_gamma                 81.381171
_cell_volume                      3368.79675249

loop_
_atom_site_label
_atom_site_type_symbol
_atom_type_description
_atom_site_fract_x
_atom_site_fract_y
_atom_site_fract_z
_atom_type_partial_charge
C1    C     C_R   0.440802 0.664268 0.486483 0.850968
C2    C     C_R   0.543881 0.103790 0.591878 0.064410
C3    C     C_R   0.334025 0.944385 0.509974 -0.041374
C4    C     C_R   0.632837 0.072064 0.647727 0.015505
C5    C     C_R   0.491557 0.960470 0.598979 -0.013012
C6    C     C_R   0.469513 0.053264 0.581603 -0.028325
C7    C     C_R   0.373497 0.092916 0.557640 -0.079998
C8    C     C_R   0.577795 0.926052 0.659345 -0.065174
C9    C     C_R   0.304624 0.037223 0.523890 -0.068764
C10   C     C_R   0.649896 0.980841 0.681278 -0.061941
C11   C     C_R   0.851200 0.606283 0.656896 -0.226849
C12   C     C_R   0.558837 0.336597 0.520427 0.844548
C13   C     C_R   0.162089 0.356911 0.368490 -0.185862
C14   C     C_R   0.757218 0.601612 0.621078 0.047492
C15   C     C_R   0.248129 0.387309 0.387023 0.059656
C16   C     C_R   0.500762 0.499962 0.662000 0.876122
C17   C     C_R   0.499365 0.499625 0.338006 0.897771
C18   C     C_R   0.795223 0.509015 0.508582 0.027699
C19   C     C_R   0.206733 0.479299 0.498496 0.048578
C20   C     C_R   0.892353 0.504462 0.545980 0.030107
C21   C     C_R   0.121598 0.444790 0.488165 0.041127
C22   C     C_R   0.919238 0.557077 0.620184 0.125976
C23   C     C_R   0.274388 0.889136 0.455462 -0.047567
C24   C     C_R   0.098111 0.386127 0.418557 0.155199
C25   C     C_R   0.963106 0.453184 0.510787 0.006600
C26   C     C_R   0.057488 0.470254 0.541186 0.013654
C27   C     C_R   0.083482 0.511581 0.623379 -0.048355
C28   C     C_R   0.944967 0.385944 0.446821 -0.062542
C29   C     C_R   0.013666 0.557178 0.659706 -0.199168
C30   C     C_R   0.012286 0.355032 0.400908 -0.167040
C31   C     C_3   0.415428 0.532489 0.006712 -0.065654
C32   C     C_3   0.587194 0.462308 0.993457 -0.054998
C33   C     C_3   0.479174 0.582865 0.965874 -0.289663
C34   C     C_R   0.697901 0.135030 0.670564 -0.018410
C35   C     C_3   0.523578 0.411881 0.034475 -0.219356
C36   C     C_1   0.502601 0.498838 0.751145 -0.134127
C37   C     C_1   0.498229 0.498623 0.248942 -0.105798
C38   C     C_3   0.439363 0.447218 0.957163 -0.044257
C39   C     C_3   0.563429 0.547559 0.043135 -0.060574
C40   C     C_3   0.503193 0.496567 0.917227 0.086136
C41   C     C_3   0.499430 0.498237 0.083149 0.080979
C42   C     C_1   0.503267 0.497601 0.826440 0.074025
C43   C     C_1   0.498315 0.498128 0.173766 0.109547
C44   C     C_R   0.402075 0.761139 0.486428 -0.159477
C45   C     C_R   0.308119 0.796952 0.445268 -0.074023
C46   C     C_R   0.593536 0.244694 0.560804 -0.161593
C47   C     C_2   0.180736 0.496290 0.679908 0.882804
C48   C     C_2   0.864981 0.334915 0.435274 0.904801
C49   C     C_2   0.318632 0.572620 0.012582 0.907560
C50   C     C_2   0.683787 0.422169 0.987007 0.927110
C51   C     C_2   0.633611 0.604638 0.089184 0.471831
C52   C     C_2   0.370907 0.390211 0.908123 0.424455
C53   C     C_2   0.203711 0.072938 0.511853 0.515626
C54   C     C_2   0.744037 0.938417 0.731409 0.525351
C55   C     C_2   0.731420 0.295087 0.666667 0.476681
C56   C     C_R   0.675950 0.222981 0.629564 -0.114895
C57   C     C_2   0.248926 0.740247 0.384665 0.453168
C58   C     C_2   0.182474 0.929022 0.398502 0.953552
C59   C     C_2   0.779034 0.117130 0.747678 0.945925
C60   C     C_2   0.347975 0.187567 0.584012 0.443167
C61   C     C_2   0.584982 0.838792 0.708207 0.328575
C62   C     C_R   0.460905 0.817159 0.533780 -0.231857
C63   C     C_R   0.531146 0.183055 0.541667 -0.224431
C64   C     C_R   0.428121 0.906064 0.550652 0.089305
H1    H     H_    0.461221 0.652547 0.936801 0.179569
H2    H     H_    0.534643 0.790861 0.555951 0.182806
H3    H     H_    0.033075 0.590943 0.721004 0.194151
H4    H     H_    0.998327 0.304708 0.351728 0.196599
H5    H     H_    0.304281 0.413039 0.716879 0.358063
H6    H     H_    0.780332 0.275469 0.491688 0.356614
H7    H     H_    0.229520 0.608410 0.089239 0.357495
H8    H     H_    0.771623 0.384573 0.909488 0.361584
H9    H     H_    0.674098 0.635917 0.052331 0.069183
H10   H     H_    0.296195 0.411637 0.899247 0.107552
H11   H     H_    0.163079 0.042623 0.549293 0.083219
H12   H     H_    0.541526 0.342176 0.063481 0.187375
H13   H     H_    0.755053 0.916401 0.799208 0.107770
H14   H     H_    0.695814 0.360457 0.679150 0.092424
H15   H     H_    0.280030 0.694015 0.342839 0.076691
H16   H     H_    0.041684 0.948479 0.377781 0.368594
H17   H     H_    0.823888 0.099188 0.878786 0.360573
H18   H     H_    0.396178 0.215614 0.636689 0.092889
H19   H     H_    0.521392 0.815863 0.715679 0.096083
H20   H     H_    0.225452 0.531471 0.543688 0.129440
H21   H     H_    0.768058 0.477443 0.448368 0.140299
H22   H     H_    0.299553 0.362647 0.350957 0.139638
H23   H     H_    0.704498 0.634012 0.652496 0.181205
H24   H     H_    0.870701 0.645339 0.714664 0.182782
H25   H     H_    0.146309 0.309979 0.316472 0.168982
H26   H     H_    0.468343 0.199211 0.489050 0.176609
N1    N     N_R   0.731710 0.552730 0.549140 -0.119557
N2    N     N_R   0.268290 0.447270 0.450860 -0.109851
O1    O     O_R   0.383110 0.605620 0.475230 -0.616608
O2    O     O_R   0.239152 0.414534 0.677412 -0.756219
O3    O     O_2   0.827491 0.311323 0.362478 -0.596526
O4    O     O_R   0.834444 0.311133 0.508003 -0.739120
O5    O     O_2   0.259017 0.598654 0.945717 -0.579666
O6    O     O_R   0.296988 0.580254 0.094023 -0.805274
O7    O     O_2   0.744201 0.397519 0.053735 -0.581883
O8    O     O_R   0.704270 0.412826 0.905153 -0.800671
O9    O     O_2   0.645722 0.616177 0.167601 -0.535762
O10   O     O_2   0.398927 0.320088 0.876813 -0.544393
O11   O     O_2   0.164360 0.132122 0.456545 -0.495783
O12   O     O_R   0.616890 0.394380 0.524770 -0.615498
O13   O     O_2   0.809143 0.925644 0.696060 -0.512672
O14   O     O_2   0.816937 0.282510 0.683463 -0.475988
O15   O     O_2   0.166023 0.742683 0.382501 -0.516904
O16   O     O_2   0.179556 0.972004 0.331814 -0.576572
O17   O     O_R   0.099769 0.917774 0.421571 -0.739866
O18   O     O_2   0.858975 0.106329 0.737885 -0.498955
O19   O     O_R   0.763374 0.112071 0.831373 -0.816779
O20   O     O_2   0.275719 0.235907 0.547023 -0.497849
O21   O     O_2   0.659833 0.790582 0.737911 -0.592626
O22   O     O_R   0.531900 0.639510 0.506760 -0.598646
O23   O     O_R   0.468100 0.360490 0.493240 -0.601031
O24   O     O_R   0.425620 0.483070 0.607460 -0.599077
O25   O     O_R   0.574380 0.516930 0.392540 -0.589993
O26   O     O_R   0.574400 0.516960 0.638990 -0.624209
O27   O     O_R   0.425600 0.483040 0.361010 -0.620090
O28   O     O_2   0.209114 0.554117 0.730006 -0.597915
Zn1   Zn    Zn3+2 0.400660 0.477370 0.478940 0.977652
Zn2   Zn    Zn3+2 0.599340 0.522630 0.521060 0.979217

loop_
_geom_bond_atom_site_label_1
_geom_bond_atom_site_label_2
_ccdc_geom_bond_type
C23   C58   S    
C39   C51   S    
C55   C56   S    
C34   C56   A    
C23   C45   A    
C48   O3    D    
C27   C29   A    
C58   O17   S    
C57   H15   S    
C3    C23   A    
C21   C26   A    
C33   H1    S    
C39   C41   S    
C2    C6    A    
C3    C64   A    
C44   C45   A    
C25   C28   A    
C52   O10   D    
C26   C27   A    
C33   C39   S    
O23   Zn1   S    
C18   N1    A    
C22   C29   A    
O1    Zn1   S    
C14   H23   S    
C12   O12   A    
C52   H10   S    
C5    C6    A    
C11   C14   A    
C38   C52   S    
C20   C25   A    
C59   O18   D    
O26   Zn2   S    
C32   C39   S    
C62   C64   A    
C19   N2    A    
C49   O6    S    
C29   H3    S    
C60   H18   S    
H6    O4    S    
H17   O19   S    
N1    Zn2   S    
H16   O17   S    
C59   O19   S    
C31   C33   S    
C48   O4    S    
C58   O16   D    
C17   O25   A    
C8    C61   S    
C54   H13   S    
C13   H25   S    
C40   C42   S    
C15   N2    A    
C41   C43   S    
C53   H11   S    
C31   C49   S    
C35   C41   S    
C16   O24   A    
O27   Zn1   S    
H7    O6    S    
C4    C34   A    
C35   H12   S    
C33   C40   S    
O24   Zn1   S    
C62   H2    S    
C55   O14   D    
C18   H21   S    
C32   C35   S    
C35   C38   S    
C12   C46   S    
H5    O2    S    
C61   H19   S    
C55   H14   S    
C44   C62   A    
C25   C26   A    
C5    C64   A    
C37   C43   T    
C2    C4    A    
O25   Zn2   S    
C3    C9    A    
C16   O26   A    
C1    C44   S    
C11   H24   S    
C45   C57   S    
C50   O7    D    
C17   C37   S    
C32   C50   S    
C15   H22   S    
C1    O1    A    
C47   O28   D    
C57   O15   D    
C20   C22   A    
C13   C15   A    
C61   O21   D    
C34   C59   S    
C9    C53   S    
C1    O22   A    
C4    C10   A    
C19   H20   S    
C7    C60   S    
C2    C63   A    
H8    O8    S    
C27   C47   S    
C7    C9    A    
C28   C48   S    
C60   O20   D    
C31   C41   S    
C54   O13   D    
C19   C21   A    
C51   H9    S    
C36   C42   T    
C5    C8    A    
C6    C7    A    
C51   O9    D    
C11   C22   A    
C50   O8    S    
C31   C38   S    
C46   C63   A    
C12   O23   A    
C28   C30   A    
N2    Zn1   S    
C16   C36   S    
C38   C40   S    
C53   O11   D    
C63   H26   S    
C47   O2    S    
C18   C20   A    
C32   C40   S    
C10   C54   S    
C24   C30   A    
C14   N1    A    
C17   O27   A    
C49   O5    D    
O22   Zn2   S    
O12   Zn2   S    
C13   C24   A    
C8    C10   A    
C21   C24   A    
C46   C56   A    
C30   H4    S    
