data_mof_unit_33611.cif
_audit_creation_date              2013-03-05T15:47:08-0500
_audit_creation_method            fapswitch 2.2
_symmetry_space_group_name_H-M    P1
_symmetry_Int_Tables_number       1
_space_group_crystal_system       triclinic
_cell_length_a                    10.188235
_cell_length_b                    10.828358
_cell_length_c                    13.753072
_cell_angle_alpha                 92.292155
_cell_angle_beta                  100.40831
_cell_angle_gamma                 95.955648
_cell_volume                      1481.56535836

loop_
_atom_site_label
_atom_site_type_symbol
_atom_site_description
_atom_site_fract_x
_atom_site_fract_y
_atom_site_fract_z
_atom_type_partial_charge
O1    O     O_R   0.935190 0.693030 0.507870 -0.618863
O2    O     O_R   0.064810 0.306970 0.492130 -0.622001
O3    O     O_R   0.142080 0.658430 0.482770 -0.587233
O4    O     O_R   0.857920 0.341570 0.517230 -0.590603
C1    C     C_R   0.051971 0.732083 0.490900 0.950845
C2    C     C_R   0.945561 0.267409 0.503743 0.945001
O5    O     O_R   0.969700 0.527180 0.651960 -0.602745
O6    O     O_R   0.030300 0.472820 0.348040 -0.554774
O7    O     O_R   0.176600 0.492580 0.626860 -0.607241
O8    O     O_R   0.823400 0.507420 0.373140 -0.631546
C3    C     C_R   0.095180 0.517079 0.685298 0.895997
C4    C     C_R   0.906411 0.487474 0.314696 0.901098
Zn1   Zn    Zn3+2 0.861850 0.523100 0.516760 0.973004
Zn2   Zn    Zn3+2 0.138150 0.476900 0.483240 1.008740
C5    C     C_R   0.146722 0.526562 0.791828 -0.060411
C6    C     C_R   0.853113 0.468075 0.209135 -0.016162
C7    C     C_R   0.111002 0.533666 0.961003 -0.146470
C8    C     C_R   0.844869 0.355707 0.052517 -0.185328
C9    C     C_R   0.059669 0.528921 0.859813 -0.221304
C10   C     C_R   0.909865 0.389440 0.149222 -0.222164
C11   C     C_R   0.284872 0.526447 0.825716 0.062733
C12   C     C_R   0.733958 0.516442 0.171408 0.045797
C13   C     C_R   0.330400 0.502016 0.924670 0.038718
C14   C     C_R   0.654905 0.462131 0.082470 0.036727
C15   C     C_R   0.247830 0.522586 0.995043 0.019145
C16   C     C_R   0.715197 0.388642 0.018431 0.016926
C17   C     C_R   0.457666 0.462075 0.955277 0.008267
C18   C     C_R   0.518525 0.480577 0.055041 0.014274
C19   C     C_R   0.438728 0.507175 0.125351 -0.296703
C20   C     C_R   0.518859 0.392599 0.890696 -0.290346
C21   C     C_R   0.304183 0.527671 0.096712 0.299119
C22   C     C_R   0.644334 0.351757 0.922114 0.302650
H1    H     H_    0.004157 0.353947 0.177108 0.193069
H2    H     H_    0.952671 0.530020 0.835015 0.187755
H3    H     H_    0.041810 0.540615 0.011336 0.199920
H4    H     H_    0.895647 0.301303 0.006474 0.204604
H5    H     H_    0.477797 0.505069 0.203415 0.181288
H6    H     H_    0.463724 0.358329 0.818476 0.186345
H7    H     H_    0.091468 0.102247 0.449128 0.192406
H8    H     H_    0.873766 0.890503 0.475480 0.191999
C23   C     C_2   0.077608 0.863076 0.477111 -0.335109
C24   C     C_2   0.910624 0.134470 0.497383 -0.346735
C25   C     C_2   0.974818 0.931062 0.471480 -0.132383
C26   C     C_2   0.997611 0.063190 0.468746 -0.149165
H9    H     H_    0.817068 0.094994 0.517062 0.169253
H10   H     H_    0.178429 0.904071 0.473199 0.159480
H11   H     H_    0.578530 0.414681 0.438585 0.163147
H12   H     H_    0.420987 0.590920 0.556006 0.161079
N1    N     N_2   0.322180 0.446120 0.460900 -0.153282
N2    N     N_2   0.677820 0.553880 0.539100 -0.184815
C27   C     C_2   0.430610 0.513769 0.505954 -0.096986
C28   C     C_2   0.569137 0.489080 0.491272 -0.108189
H13   H     H_    0.664844 0.623778 0.588409 0.169195
H14   H     H_    0.335574 0.372654 0.415060 0.185958
N3    N     N_R   0.229778 0.559274 0.171716 0.188310
O9    O     O_R   0.253752 0.511021 0.257228 -0.421180
O10   O     O_R   0.160403 0.653892 0.162842 -0.398801
N4    N     N_R   0.697345 0.273969 0.854986 0.195698
O11   O     O_R   0.683011 0.297448 0.761807 -0.403668
O12   O     O_R   0.737722 0.168366 0.882417 -0.391751
N5    N     N_3   0.709728 0.634040 0.214019 -0.442191
H15   H     H_    0.656653 0.684973 0.160267 0.209664
H16   H     H_    0.656405 0.620441 0.271437 0.206901
N6    N     N_3   0.377938 0.576694 0.765862 -0.451338
H17   H     H_    0.460982 0.628649 0.810400 0.201153
H18   H     H_    0.410492 0.505558 0.726137 0.203221

loop_
_geom_bond_atom_site_label_1
_geom_bond_atom_site_label_2
_geom_bond_distance
_ccdc_geom_bond_type
C15   C21   1.408900 A    
N2    C28   1.299923 D    
C23   H10   1.087341 S    
C9    H2    1.083291 S    
C16   C22   1.409880 A    
H11   C28   1.085177 S    
C13   C17   1.406833 A    
O7    C3    1.293801 A    
C8    C16   1.407016 A    
C6    C10   1.398750 A    
C22   N4    1.437319 S    
O6    C4    1.291079 A    
C7    C15   1.407223 A    
N6    H17   1.045920 S    
O3    C1    1.293559 A    
N3    O9    1.299076 A    
C11   C13   1.401215 A    
C19   C21   1.399451 A    
C13   C15   1.417694 A    
C12   N5    1.443501 S    
C20   C22   1.396264 A    
C23   C25   1.334143 D    
O2    C2    1.285561 A    
O3    Zn2   1.962214 S    
C24   C26   1.334187 D    
O1    C1    1.285579 A    
C10   H1    1.083038 S    
O8    C4    1.295231 A    
C3    C5    1.460016 S    
C18   C19   1.410423 A    
C7    C9    1.392347 A    
C14   C16   1.423770 A    
O5    C3    1.295297 A    
C8    C10   1.390518 A    
N3    O10   1.301271 A    
C25   C26   1.428582 S    
N5    H15   1.045524 S    
O2    Zn2   1.929972 S    
C12   C14   1.406742 A    
C5    C11   1.400600 A    
H12   C27   1.084789 S    
Zn2   N1    2.012590 S    
O1    Zn1   1.929971 S    
H7    C26   1.088338 S    
N4    O12   1.302005 A    
C27   C28   1.510320 S    
N2    H13   1.030698 S    
C4    C6    1.453886 S    
O5    Zn1   1.977844 S    
Zn1   N2    2.012591 S    
C20   H6    1.079555 S    
C14   C18   1.409634 A    
O4    C2    1.293554 A    
C2    C24   1.441838 S    
N1    C27   1.299755 D    
C19   H5    1.077526 S    
C17   C18   1.397142 A    
N5    H16   1.043141 S    
O7    Zn2   1.939990 S    
C1    C23   1.441772 S    
C11   N6    1.443427 S    
O6    Zn2   1.977844 S    
C7    H3    1.079328 S    
C21   N3    1.436654 S    
N4    O11   1.301666 A    
C5    C9    1.401399 A    
C8    H4    1.080475 S    
C24   H9    1.087386 S    
H8    C25   1.088311 S    
N1    H14   1.030730 S    
O4    Zn1   1.962214 S    
C6    C12   1.394033 A    
C17   C20   1.409781 A    
O8    Zn1   1.939989 S    
N6    H18   1.042430 S    
