data_mof_unit_49502.cif
_audit_creation_date              2013-03-05T15:54:37-0500
_audit_creation_method            fapswitch 2.2
_symmetry_space_group_name_H-M    P1
_symmetry_Int_Tables_number       1
_space_group_crystal_system       triclinic
_cell_length_a                    17.369324
_cell_length_b                    24.153405
_cell_length_c                    15.003658
_cell_angle_alpha                 89.709467
_cell_angle_beta                  125.543043
_cell_angle_gamma                 90.271696
_cell_volume                      5121.59137818

loop_
_atom_site_label
_atom_site_type_symbol
_atom_site_description
_atom_site_fract_x
_atom_site_fract_y
_atom_site_fract_z
_atom_type_partial_charge
C1    C     C_R   0.808780 0.624511 0.906065 -0.112890
C2    C     C_R   0.150983 0.652314 0.093125 -0.153877
C3    C     C_R   0.309214 0.126356 0.908667 -0.104291
C4    C     C_R   0.651145 0.152291 0.093256 -0.155476
H1    H     H_    0.749449 0.627035 0.821197 0.116045
H2    H     H_    0.185937 0.666724 0.176294 0.099892
H3    H     H_    0.249655 0.132372 0.824441 0.105552
H4    H     H_    0.685810 0.166698 0.176354 0.100405
N1    N     N_R   0.892620 0.603790 0.941770 -0.046764
N2    N     N_R   0.107380 0.603790 0.058230 -0.038316
N3    N     N_R   0.392620 0.103790 0.941770 -0.045453
N4    N     N_R   0.607380 0.103790 0.058230 -0.038327
C5    C     C_R   0.898650 0.382635 0.091123 -0.152206
C6    C     C_R   0.056502 0.347185 0.911353 -0.168222
C7    C     C_R   0.398548 0.882824 0.091036 -0.153010
C8    C     C_R   0.551463 0.847158 0.909941 -0.145879
H5    H     H_    0.917760 0.385920 0.172976 0.108183
H6    H     H_    0.012540 0.331628 0.830006 0.118233
H7    H     H_    0.417295 0.886015 0.172729 0.109317
H8    H     H_    0.498938 0.830266 0.830624 0.097252
N5    N     N_R   0.952270 0.397640 0.058010 -0.040903
N6    N     N_R   0.047730 0.397640 0.941990 -0.044976
N7    N     N_R   0.452270 0.897640 0.058010 -0.041325
N8    N     N_R   0.547730 0.897640 0.941990 -0.046395
C9    C     C_R   0.052479 0.547798 0.302902 -0.207995
C10   C     C_R   0.013603 0.548421 0.747096 -0.206603
C11   C     C_R   0.552900 0.047327 0.303623 -0.213076
C12   C     C_R   0.518097 0.048350 0.752286 -0.211803
H9    H     H_    0.065596 0.590861 0.327137 0.117181
H10   H     H_    0.024969 0.591541 0.738801 0.132995
H11   H     H_    0.568893 0.090119 0.329390 0.116860
H12   H     H_    0.533326 0.091232 0.748727 0.136881
N9    N     N_R   0.026310 0.529110 0.206760 -0.049768
N10   N     N_R   0.973690 0.529110 0.793240 -0.056551
N11   N     N_R   0.526310 0.029110 0.206760 -0.050073
N12   N     N_R   0.473690 0.029110 0.793240 -0.056300
C13   C     C_R   0.745872 0.454466 0.695857 -0.085778
C14   C     C_R   0.268706 0.454756 0.248468 -0.116120
C15   C     C_R   0.246504 0.954201 0.696030 -0.086675
C16   C     C_R   0.769317 0.955260 0.249510 -0.111370
H13   H     H_    0.732422 0.411703 0.670288 0.071546
H14   H     H_    0.289233 0.412030 0.257379 0.149060
H15   H     H_    0.233955 0.911357 0.671332 0.069315
H16   H     H_    0.791101 0.912766 0.258866 0.146397
N13   N     N_R   0.818570 0.472310 0.793020 -0.037714
N14   N     N_R   0.181430 0.472310 0.206980 -0.042681
N15   N     N_R   0.318570 0.972310 0.793020 -0.038403
N16   N     N_R   0.681430 0.972310 0.206980 -0.043320
C17   C     C_R   0.057014 0.455931 0.308666 0.205045
C18   C     C_R   0.000932 0.455901 0.730402 0.208961
C19   C     C_R   0.555792 0.955468 0.308053 0.216448
C20   C     C_R   0.503995 0.956268 0.732985 0.215214
N17   N     N_R   0.026930 0.472300 0.207330 -0.058087
N18   N     N_R   0.973070 0.472300 0.792670 -0.073511
N19   N     N_R   0.526930 0.972300 0.207330 -0.056934
N20   N     N_R   0.473070 0.972300 0.792670 -0.072052
C21   C     C_R   0.745749 0.546287 0.693964 -0.060764
C22   C     C_R   0.269063 0.547056 0.249343 -0.132980
C23   C     C_R   0.245869 0.046050 0.693689 -0.059020
C24   C     C_R   0.769068 0.047627 0.252267 -0.120738
H17   H     H_    0.732289 0.588771 0.665788 0.068422
H18   H     H_    0.289166 0.589850 0.258237 0.092441
H19   H     H_    0.231941 0.088539 0.665675 0.075547
H20   H     H_    0.788494 0.090569 0.263360 0.087941
N21   N     N_R   0.817960 0.529130 0.792460 -0.038652
N22   N     N_R   0.182040 0.529130 0.207540 -0.038074
N23   N     N_R   0.317960 0.029130 0.792460 -0.038105
N24   N     N_R   0.682040 0.029130 0.207540 -0.038492
C25   C     C_R   0.810462 0.375983 0.909422 -0.121753
C26   C     C_R   0.144962 0.348248 0.092124 -0.154734
C27   C     C_R   0.310350 0.876103 0.909426 -0.117786
C28   C     C_R   0.648861 0.848496 0.090795 -0.163095
H21   H     H_    0.753736 0.367775 0.825012 0.098254
H22   H     H_    0.179307 0.334562 0.175815 0.110330
H23   H     H_    0.253392 0.867894 0.825079 0.096749
H24   H     H_    0.693000 0.835940 0.175653 0.104424
N25   N     N_R   0.894850 0.397640 0.943830 -0.040074
N26   N     N_R   0.105150 0.397640 0.056170 -0.040164
N27   N     N_R   0.394850 0.897640 0.943830 -0.039998
N28   N     N_R   0.605150 0.897640 0.056170 -0.039112
C29   C     C_R   0.901000 0.626607 0.089906 -0.132893
C30   C     C_R   0.060588 0.653218 0.910969 -0.141507
C31   C     C_R   0.402855 0.124386 0.092459 -0.142351
C32   C     C_R   0.560568 0.153263 0.911161 -0.144960
H25   H     H_    0.927000 0.632951 0.174265 0.093939
H26   H     H_    0.015418 0.668482 0.827779 0.092401
H27   H     H_    0.429439 0.126830 0.177473 0.108827
H28   H     H_    0.515130 0.168556 0.828025 0.092248
N29   N     N_R   0.950040 0.603780 0.055950 -0.039274
N30   N     N_R   0.049960 0.603780 0.944050 -0.037354
N31   N     N_R   0.450040 0.103780 0.055950 -0.040919
N32   N     N_R   0.549960 0.103780 0.944050 -0.037790
C33   C     C_R   0.811840 0.639835 0.996837 0.092120
C34   C     C_R   0.123980 0.684206 0.003158 0.092883
C35   C     C_R   0.314597 0.139565 0.002757 0.095914
C36   C     C_R   0.624152 0.184227 0.003352 0.095137
C37   C     C_R   0.810694 0.366991 0.001288 0.078206
C38   C     C_R   0.115687 0.315191 0.003533 0.096727
C39   C     C_R   0.310772 0.867168 0.001360 0.075807
C40   C     C_R   0.614121 0.815422 0.999973 0.087813
C41   C     C_R   0.072110 0.503157 0.368604 0.037543
C42   C     C_R   0.033072 0.503489 0.708490 0.044715
C43   C     C_R   0.570428 0.002499 0.368685 0.032404
C44   C     C_R   0.538989 0.003842 0.714372 0.041716
C45   C     C_R   0.701153 0.500136 0.632179 0.111702
C46   C     C_R   0.325703 0.501054 0.278317 0.100676
C47   C     C_R   0.201736 0.999625 0.631962 0.110113
C48   C     C_R   0.825927 0.001944 0.281061 0.097305
Ni1   Ni    Ni4+2 0.934160 0.565860 0.869070 0.203632
Ni2   Ni    Ni4+2 0.065840 0.565860 0.130930 0.212976
Ni3   Ni    Ni4+2 0.434160 0.065860 0.869070 0.204611
Ni4   Ni    Ni4+2 0.565840 0.065860 0.130930 0.212186
Ni5   Ni    Ni4+2 0.067260 0.435560 0.132230 0.212764
Ni6   Ni    Ni4+2 0.932740 0.435560 0.867770 0.199977
Ni7   Ni    Ni4+2 0.567260 0.935560 0.132230 0.212571
Ni8   Ni    Ni4+2 0.432740 0.935560 0.867770 0.200486
C49   C     C_3   0.524076 0.500476 0.539268 0.284457
C50   C     C_3   0.476184 0.455734 0.451912 0.213404
C51   C     C_3   0.026121 0.008332 0.539571 0.277290
C52   C     C_3   0.972944 0.960770 0.460267 0.224190
C53   C     C_3   0.477996 0.546401 0.453260 0.139325
C54   C     C_3   0.559306 0.455110 0.441966 0.132010
C55   C     C_3   0.983670 0.050373 0.446127 0.135064
C56   C     C_3   0.054454 0.951119 0.449608 0.133692
C57   C     C_3   0.427571 0.501252 0.363474 -0.113757
C58   C     C_3   0.607785 0.499942 0.531002 -0.138018
C59   C     C_3   0.927885 0.002385 0.364600 -0.118216
C60   C     C_3   0.108489 0.998914 0.530671 -0.138405
C61   C     C_3   0.510752 0.501041 0.352319 -0.166207
C62   C     C_3   0.561855 0.546082 0.443538 -0.215303
C63   C     C_3   0.009508 0.992994 0.352600 -0.166948
C64   C     C_3   0.066176 0.040924 0.435689 -0.209366
H29   H     H_    0.503262 0.502016 0.273664 0.141645
H30   H     H_    0.599220 0.582943 0.441455 0.136943
H31   H     H_    0.000612 0.987655 0.273674 0.141036
H32   H     H_    0.106880 0.073330 0.426860 0.136966
C65   C     C_R   0.772183 0.310401 0.107649 0.143026
C66   C     C_R   0.227076 0.240105 0.108551 0.095368
C67   C     C_R   0.275070 0.808838 0.107774 0.140526
C68   C     C_R   0.618839 0.740407 0.894977 0.147608
C69   C     C_R   0.740328 0.338218 0.009489 -0.044342
C70   C     C_R   0.142319 0.256828 0.011595 -0.056872
C71   C     C_R   0.241466 0.837799 0.010303 -0.042339
C72   C     C_R   0.632876 0.757137 0.992635 -0.071171
C73   C     C_R   0.646489 0.327138 0.917544 0.145365
C74   C     C_R   0.096922 0.218754 0.922478 0.194387
C75   C     C_R   0.146682 0.827851 0.919723 0.146404
C76   C     C_R   0.678683 0.719603 0.082590 0.212883
C77   C     C_R   0.102941 0.777957 0.918056 -0.238716
C78   C     C_R   0.734812 0.677284 0.082771 -0.240032
C79   C     C_R   0.603403 0.277113 0.916308 -0.236860
C80   C     C_R   0.151559 0.175551 0.922449 -0.229090
H33   H     H_    0.035332 0.766182 0.844438 0.139491
H34   H     H_    0.780846 0.652911 0.156090 0.137121
H35   H     H_    0.537274 0.264366 0.841796 0.139818
H36   H     H_    0.121925 0.149312 0.851205 0.167988
C81   C     C_R   0.150182 0.742151 0.009260 -0.003800
C82   C     C_R   0.736604 0.669841 0.990978 -0.004023
C83   C     C_R   0.649513 0.242341 0.008942 -0.005438
C84   C     C_R   0.246584 0.169231 0.011595 -0.001109
C85   C     C_R   0.229390 0.762263 0.107319 0.157852
C86   C     C_R   0.669627 0.697433 0.894138 0.184941
C87   C     C_R   0.726661 0.263691 0.107371 0.158334
C88   C     C_R   0.278165 0.197001 0.108709 0.132566
C89   C     C_3   0.319597 0.733753 0.192661 -0.510328
C90   C     C_3   0.681040 0.726207 0.813701 -0.525833
C91   C     C_3   0.816643 0.236379 0.196404 -0.512944
C92   C     C_3   0.370761 0.224941 0.190161 -0.507507
C93   C     C_3   0.867306 0.287230 0.196535 -0.499343
C94   C     C_3   0.314637 0.272241 0.190212 -0.417069
C95   C     C_3   0.370429 0.784557 0.192935 -0.498606
C96   C     C_3   0.624218 0.773041 0.813398 -0.507759
H37   H     H_    0.333680 0.696273 0.161484 0.202363
H38   H     H_    0.643984 0.704629 0.733845 0.200080
H39   H     H_    0.833266 0.198544 0.168678 0.199885
H40   H     H_    0.410503 0.236600 0.155576 0.200875
H41   H     H_    0.326935 0.727879 0.270819 0.186495
H42   H     H_    0.755576 0.738059 0.849230 0.200749
H43   H     H_    0.821451 0.231504 0.273229 0.189148
H44   H     H_    0.412739 0.202775 0.270016 0.186872
H45   H     H_    0.913047 0.278220 0.168856 0.201245
H46   H     H_    0.322639 0.311121 0.156199 0.196308
H47   H     H_    0.413766 0.775982 0.161849 0.204245
H48   H     H_    0.553829 0.777509 0.733730 0.191509
H49   H     H_    0.901985 0.311180 0.273958 0.188556
H50   H     H_    0.324008 0.276694 0.269692 0.224983
H51   H     H_    0.407685 0.807493 0.271713 0.187862
H52   H     H_    0.665940 0.811956 0.847380 0.200709
C97   C     C_R   0.015018 0.549453 0.555116 0.100469
C98   C     C_R   0.021313 0.546658 0.469130 -0.001057
C99   C     C_R   0.536314 0.054667 0.572955 0.102507
C100  C     C_R   0.539030 0.051277 0.484196 -0.000803
C101  C     C_R   0.061843 0.510064 0.638019 0.041023
C102  C     C_R   0.080933 0.508439 0.468700 0.046910
C103  C     C_R   0.572559 0.010958 0.647820 0.036890
C104  C     C_R   0.586345 0.008223 0.473556 0.055091
C105  C     C_R   0.131710 0.476449 0.647401 -0.190146
C106  C     C_R   0.142431 0.476258 0.562288 -0.177494
C107  C     C_R   0.633541 0.972561 0.649360 -0.187011
C108  C     C_R   0.641805 0.971784 0.562210 -0.177352
H53   H     H_    0.172237 0.447985 0.715498 0.135785
H54   H     H_    0.193294 0.448620 0.567128 0.161630
H55   H     H_    0.667642 0.940730 0.711891 0.132034
H56   H     H_    0.685411 0.940451 0.561809 0.161463
C109  C     C_3   0.917990 0.559647 0.385241 -0.038215
C110  C     C_3   0.911541 0.564103 0.482400 -0.035706
C111  C     C_3   0.441370 0.075136 0.406430 -0.043652
C112  C     C_3   0.438738 0.079953 0.506145 -0.037335
H57   H     H_    0.907663 0.599154 0.341282 0.140403
H58   H     H_    0.866711 0.531643 0.483936 0.122450
H59   H     H_    0.443307 0.115248 0.371163 0.138206
H60   H     H_    0.385617 0.052440 0.503105 0.123054
N33   N     N_R   0.524893 0.501028 0.637343 0.248089
O1    O     O_R   0.445829 0.507762 0.627073 -0.404656
O2    O     O_R   0.603864 0.500102 0.734822 -0.431868
N34   N     N_R   0.434710 0.405338 0.462112 0.226913
O3    O     O_R   0.422439 0.400978 0.539393 -0.412424
O4    O     O_R   0.426473 0.361166 0.408063 -0.468149
N35   N     N_R   0.029039 0.017009 0.638053 0.250114
O5    O     O_R   0.952885 0.032614 0.628298 -0.393977
O6    O     O_R   0.104917 0.006428 0.735048 -0.426714
N36   N     N_R   0.926929 0.916134 0.479573 0.228145
O7    O     O_R   0.917395 0.920119 0.558957 -0.408145
O8    O     O_R   0.912609 0.868292 0.432940 -0.463633
C113  C     C_3   0.592181 0.366287 0.821170 -0.345320
C114  C     C_3   0.501398 0.385803 0.805461 -0.724017
H61   H     H_    0.451163 0.350863 0.781067 0.224607
H62   H     H_    0.517941 0.404395 0.882383 0.233822
H63   H     H_    0.466323 0.417634 0.740063 0.310876
H64   H     H_    0.634489 0.403837 0.834535 0.236012
H65   H     H_    0.574599 0.345385 0.745622 0.210762
C115  C     C_3   0.992481 0.221110 0.830629 -0.350624
C116  C     C_3   0.974284 0.231972 0.719338 -0.917379
H66   H     H_    0.019276 0.266242 0.723959 0.253993
H67   H     H_    0.989524 0.194135 0.690661 0.271665
H68   H     H_    0.898802 0.242956 0.658299 0.254539
H69   H     H_    0.959837 0.180722 0.827036 0.203485
H70   H     H_    0.955597 0.252351 0.847002 0.179798
C117  C     C_3   0.091813 0.868578 0.826171 -0.341870
C118  C     C_3   0.005796 0.890235 0.819000 -0.732108
H71   H     H_    0.952184 0.856987 0.791832 0.228743
H72   H     H_    0.027470 0.906019 0.899984 0.231325
H73   H     H_    0.972948 0.924886 0.759388 0.306569
H74   H     H_    0.135754 0.905125 0.838305 0.230437
H75   H     H_    0.068700 0.848448 0.747813 0.211573
C119  C     C_3   0.672119 0.724677 0.178616 -0.366223
C120  C     C_3   0.637035 0.671194 0.198701 -0.917648
H76   H     H_    0.569211 0.657768 0.122495 0.270827
H77   H     H_    0.690180 0.637924 0.227462 0.257291
H78   H     H_    0.625312 0.678182 0.263083 0.249074
H79   H     H_    0.742601 0.735761 0.253627 0.201793
H80   H     H_    0.620381 0.756934 0.162833 0.194730
C121  C     C_3   0.859792 0.511147 0.307383 -0.349484
C122  C     C_3   0.753844 0.522872 0.237822 -0.906040
H81   H     H_    0.729714 0.532604 0.290154 0.255081
H82   H     H_    0.737229 0.557953 0.181331 0.262158
H83   H     H_    0.714675 0.485834 0.187865 0.259665
H84   H     H_    0.880021 0.504413 0.250511 0.207095
H85   H     H_    0.873998 0.472232 0.354231 0.197086
C123  C     C_3   0.886391 0.622443 0.500192 -0.364165
C124  C     C_3   0.958946 0.667949 0.527975 -0.861682
H86   H     H_    0.027945 0.658588 0.606399 0.249509
H87   H     H_    0.969155 0.672788 0.461929 0.250303
H88   H     H_    0.933125 0.707959 0.537295 0.258027
H89   H     H_    0.816915 0.634719 0.425158 0.203657
H90   H     H_    0.877193 0.620098 0.567429 0.182849
C125  C     C_3   0.366554 0.034605 0.319236 -0.346769
C126  C     C_3   0.267381 0.059309 0.257646 -0.898005
H91   H     H_    0.246916 0.066854 0.314208 0.251382
H92   H     H_    0.264503 0.098954 0.218002 0.260138
H93   H     H_    0.215621 0.030065 0.193163 0.257892
H94   H     H_    0.381380 0.025762 0.258188 0.208046
H95   H     H_    0.368051 0.994677 0.357381 0.195052
C127  C     C_3   0.431102 0.140368 0.534256 -0.356157
C128  C     C_3   0.518760 0.176444 0.576642 -0.862376
H96   H     H_    0.580579 0.159904 0.655382 0.249516
H97   H     H_    0.535877 0.178613 0.516052 0.251562
H98   H     H_    0.504870 0.219107 0.591167 0.259096
H99   H     H_    0.369180 0.160172 0.459818 0.202936
H100  H     H_    0.415811 0.139963 0.596520 0.176546
C129  C     C_3   0.096400 0.399230 0.356149 -0.522469
C130  C     C_3   0.203049 0.396399 0.412267 -0.697899
H101  H     H_    0.238763 0.436235 0.451576 0.271358
H102  H     H_    0.234091 0.363307 0.475587 0.245662
H103  H     H_    0.217289 0.385738 0.351429 0.246305
H104  H     H_    0.079523 0.388291 0.414988 0.195374
H105  H     H_    0.064120 0.366978 0.292039 0.200189
C131  C     C_3   0.974058 0.401165 0.671519 -0.387801
C132  C     C_3   0.916434 0.406803 0.547083 -0.938423
H106  H     H_    0.886851 0.365752 0.508954 0.255931
H107  H     H_    0.856629 0.435889 0.516481 0.254516
H108  H     H_    0.961473 0.420837 0.521310 0.264475
H109  H     H_    0.038570 0.376269 0.702189 0.189160
H110  H     H_    0.926685 0.379215 0.686905 0.190807
C133  C     C_3   0.594625 0.898420 0.353835 -0.538998
C134  C     C_3   0.701260 0.895647 0.410508 -0.686008
H111  H     H_    0.715939 0.885588 0.349803 0.249143
H112  H     H_    0.736366 0.935488 0.450406 0.276131
H113  H     H_    0.732139 0.862273 0.473249 0.245630
H114  H     H_    0.576487 0.886342 0.411035 0.195434
H115  H     H_    0.563107 0.866746 0.288671 0.202855
C135  C     C_3   0.475151 0.902958 0.669588 -0.393709
C136  C     C_3   0.412268 0.912397 0.545631 -0.928168
H116  H     H_    0.353677 0.941295 0.522316 0.256024
H117  H     H_    0.453553 0.929075 0.516575 0.263995
H118  H     H_    0.381077 0.872330 0.503435 0.252349
H119  H     H_    0.538790 0.878900 0.693688 0.188115
H120  H     H_    0.431151 0.878870 0.687150 0.187097
C137  C     C_3   0.439818 0.600900 0.465554 -0.319243
C138  C     C_3   0.514228 0.632491 0.568825 -0.886049
H121  H     H_    0.537316 0.608631 0.643728 0.297900
H122  H     H_    0.576619 0.641920 0.568387 0.236433
H123  H     H_    0.483575 0.672190 0.571361 0.242471
H124  H     H_    0.418196 0.628204 0.394981 0.173085
H125  H     H_    0.377712 0.592216 0.466999 0.213668
C139  C     C_3   0.609716 0.404411 0.437449 -0.307277
C140  C     C_3   0.558455 0.381027 0.321778 -0.836620
H126  H     H_    0.482690 0.373215 0.285591 0.283599
H127  H     H_    0.563728 0.410412 0.268385 0.236080
H128  H     H_    0.591921 0.341408 0.324469 0.240690
H129  H     H_    0.682520 0.416454 0.466115 0.173744
H130  H     H_    0.615003 0.371892 0.493311 0.205093
C141  C     C_3   0.952627 0.109246 0.449668 -0.320123
C142  C     C_3   0.033440 0.143394 0.543302 -0.904992
H131  H     H_    0.060109 0.124375 0.623810 0.278104
H132  H     H_    0.092409 0.147159 0.534477 0.245265
H133  H     H_    0.007577 0.185703 0.540829 0.249163
H134  H     H_    0.928416 0.130848 0.372038 0.177629
H135  H     H_    0.893601 0.107216 0.458706 0.212627
C143  C     C_3   0.097479 0.895535 0.451094 -0.312127
C144  C     C_3   0.040658 0.867320 0.339268 -0.838342
H136  H     H_    0.964684 0.864292 0.306076 0.283351
H137  H     H_    0.047514 0.890901 0.280484 0.235907
H138  H     H_    0.068520 0.824936 0.347195 0.240033
H139  H     H_    0.170563 0.902668 0.475398 0.174784
H140  H     H_    0.101013 0.867797 0.512615 0.204820

loop_
_geom_bond_atom_site_label_1
_geom_bond_atom_site_label_2
_geom_bond_distance
_ccdc_geom_bond_type
C111  C125  1.543684 S    
C30   C34   1.384839 A    
C70   C74   1.426550 A    
C31   H27   1.076750 S    
C136  H117  1.107016 S    
C55   C141  1.535230 S    
C130  H101  1.110485 S    
C95   H47   1.112500 S    
C135  H120  1.104705 S    
C127  C128  1.532706 S    
C77   H33   1.082546 S    
C122  H82   1.109177 S    
C4    C36   1.375463 A    
C121  H84   1.108401 S    
C80   H36   1.083185 S    
C56   C143  1.533381 S    
C142  H131  1.109275 S    
C26   H22   1.081029 S    
C67   C95   1.503688 S    
C141  H135  1.110408 S    
C79   H35   1.082195 S    
C4    N4    1.326532 A    
C49   C58   1.529511 S    
C69   C73   1.420115 A    
C51   C60   1.530338 S    
C112  C127  1.548530 S    
C139  H130  1.110128 S    
C107  C108  1.396124 A    
C62   H30   1.110258 S    
N17   Ni5   1.865881 S    
N33   O2    1.299457 A    
C9    H9    1.082236 S    
N15   Ni8   1.843660 S    
C138  H122  1.110055 S    
C90   H38   1.108145 S    
C143  C144  1.527582 S    
C11   H11   1.082298 S    
C99   C100  1.362547 A    
C12   H12   1.076514 S    
N6    N26   1.393928 A    
C40   C72   1.465507 S    
C21   N21   1.331358 A    
C11   N11   1.320292 A    
C92   H44   1.111449 S    
C27   C39   1.390866 A    
C139  C140  1.527192 S    
C140  H128  1.110334 S    
C125  H94   1.107989 S    
C12   C44   1.364139 A    
C136  H116  1.111574 S    
C97   C110  1.506057 S    
C112  H60   1.113827 S    
N12   Ni3   1.864937 S    
N20   Ni8   1.857267 S    
C5    N5    1.333606 A    
C104  C108  1.406514 A    
N22   Ni2   1.868495 S    
C49   N33   1.463419 S    
C61   H29   1.109668 S    
C134  H111  1.107432 S    
C126  H92   1.110547 S    
N10   N18   1.372177 A    
C34   C81   1.456414 S    
C115  H70   1.108870 S    
N26   Ni5   1.861122 S    
C43   C104  1.437844 S    
C13   N13   1.329082 A    
C100  C104  1.394490 A    
C41   C102  1.424552 S    
C15   N15   1.326379 A    
C120  H78   1.110723 S    
C39   C71   1.465958 S    
C129  H104  1.110340 S    
C16   N16   1.333366 A    
C125  H95   1.111580 S    
C52   N36   1.463855 S    
C32   H28   1.081091 S    
N32   Ni3   1.874110 S    
C21   H17   1.081340 S    
C51   C55   1.526814 S    
C31   N31   1.322144 A    
C23   H19   1.080824 S    
C113  H64   1.107708 S    
C24   H20   1.072597 S    
C24   N24   1.323703 A    
C10   C42   1.365724 A    
C20   N20   1.343538 A    
C142  H133  1.109987 S    
C17   N17   1.346552 A    
N18   Ni6   1.857267 S    
C44   C103  1.428558 S    
C19   N19   1.347312 A    
C5    C37   1.378081 A    
C59   C63   1.547264 S    
C3    N3    1.345628 A    
C57   C61   1.548112 S    
C1    C33   1.383982 A    
C3    C35   1.397931 A    
C85   C89   1.495811 S    
C89   C95   1.506937 S    
C90   C96   1.503009 S    
C55   C64   1.547495 S    
C89   H41   1.111838 S    
C25   N25   1.343248 A    
C53   C62   1.545980 S    
C27   N27   1.343830 A    
C137  H125  1.110466 S    
C52   C59   1.539418 S    
C91   C93   1.506859 S    
C53   C57   1.550860 S    
C46   C57   1.461101 S    
N19   Ni7   1.865882 S    
N34   O4    1.299530 A    
C124  H86   1.110097 S    
C68   C86   1.370210 A    
C50   C54   1.535468 S    
C23   N23   1.331303 A    
C37   C69   1.468971 S    
C67   C71   1.403477 A    
N13   Ni6   1.843660 S    
C134  H113  1.110393 S    
C106  H54   1.077929 S    
C109  H57   1.111500 S    
C116  H66   1.110014 S    
C108  H56   1.075749 S    
C31   C35   1.377457 A    
C94   H46   1.112648 S    
C111  H59   1.111285 S    
C6    C38   1.382198 A    
C103  C107  1.401168 A    
C119  H79   1.111348 S    
C127  H99   1.111676 S    
C2    C34   1.375577 A    
C128  H98   1.110530 S    
N5    Ni5   1.864205 S    
C65   C87   1.373233 A    
C8    C40   1.372918 A    
C122  H83   1.110469 S    
N29   Ni2   1.877852 S    
C23   C47   1.371012 A    
C79   C83   1.406727 A    
N31   Ni4   1.877852 S    
C13   C45   1.366609 A    
N3    N31   1.393929 A    
C116  H67   1.108642 S    
C110  H58   1.111953 S    
C55   C59   1.550593 S    
C64   H32   1.110247 S    
C132  H106  1.110661 S    
N36   O8    1.299955 A    
N2    N30   1.393929 A    
N8    Ni8   1.867961 S    
C131  H110  1.107645 S    
C143  H139  1.111059 S    
N13   N21   1.372431 A    
C115  H69   1.111656 S    
C100  C111  1.507392 S    
C134  H112  1.109974 S    
N4    Ni4   1.856952 S    
C109  C121  1.545469 S    
C91   H39   1.112445 S    
C61   C62   1.561440 S    
C92   H40   1.112729 S    
C119  C120  1.527413 S    
N14   Ni5   1.840078 S    
N4    N32   1.393929 A    
C123  C124  1.533212 S    
C124  H88   1.110412 S    
C125  C126  1.526671 S    
C10   H10   1.079123 S    
C75   C117  1.511856 S    
C130  H102  1.110390 S    
C133  H115  1.105521 S    
N25   Ni6   1.852333 S    
C6    N6    1.344809 A    
C28   N28   1.341271 A    
C49   C50   1.521823 S    
C102  C106  1.403501 A    
C17   C129  1.511128 S    
C118  H71   1.110435 S    
C13   H13   1.079841 S    
C105  C106  1.393550 A    
C116  H68   1.110356 S    
C99   C103  1.394518 A    
C14   N14   1.331022 A    
C97   C101  1.390304 A    
N6    Ni6   1.867961 S    
C36   C83   1.457295 S    
C130  H103  1.107316 S    
C142  H132  1.109758 S    
C114  H61   1.110122 S    
C50   N34   1.463555 S    
N9    Ni2   1.856328 S    
C32   N32   1.342958 A    
N30   Ni1   1.874110 S    
C29   H25   1.079888 S    
N11   Ni4   1.856328 S    
C9    N9    1.316616 A    
C25   C37   1.391928 A    
C22   H18   1.073271 S    
C91   H43   1.111874 S    
C117  C118  1.528850 S    
N33   O1    1.300745 A    
C7    H7    1.072854 S    
C18   N18   1.339825 A    
C1    H1    1.077623 S    
C84   C88   1.396784 A    
C75   C77   1.414108 A    
N14   N22   1.372415 A    
C3    H3    1.080701 S    
C17   C41   1.382747 A    
C66   C94   1.499565 S    
C58   C62   1.541731 S    
C19   C43   1.386151 A    
C132  H108  1.106471 S    
C140  H127  1.110308 S    
C86   C90   1.499051 S    
C25   H21   1.078861 S    
C90   H42   1.112602 S    
C50   C57   1.540694 S    
C54   C61   1.557567 S    
C24   C48   1.374387 A    
C72   C76   1.422121 A    
C56   C60   1.539358 S    
C29   N29   1.341999 A    
C92   C94   1.505638 S    
C107  H55   1.083083 S    
C136  H118  1.110553 S    
C120  H77   1.106553 S    
N1    Ni1   1.865765 S    
N3    Ni3   1.865765 S    
C111  C112  1.528140 S    
C20   C135  1.505328 S    
C67   C85   1.371271 A    
C1    N1    1.324889 A    
C66   C70   1.398721 A    
N1    N29   1.393929 A    
N35   O5    1.300855 A    
C119  H80   1.108177 S    
C109  C110  1.529937 S    
C135  H119  1.108818 S    
C118  H73   1.108878 S    
C141  C142  1.527183 S    
C15   C47   1.364087 A    
C144  H136  1.109108 S    
C122  H81   1.110304 S    
N12   N20   1.372177 A    
C121  H85   1.110074 S    
C98   C109  1.509479 S    
N28   Ni7   1.861122 S    
C88   C92   1.499516 S    
C14   C46   1.382122 A    
C94   H50   1.111562 S    
C76   C119  1.515466 S    
C131  H109  1.110424 S    
N16   N24   1.372415 A    
N21   Ni1   1.864939 S    
N23   Ni3   1.864939 S    
C139  H129  1.110916 S    
C18   C42   1.394398 A    
C63   C64   1.562152 S    
C42   C101  1.415887 S    
C81   C85   1.393180 A    
C133  C134  1.525654 S    
C65   C69   1.404524 A    
C138  H121  1.107952 S    
C20   C44   1.398306 A    
C78   C82   1.408002 A    
C18   C131  1.507571 S    
C68   C72   1.399772 A    
C76   C78   1.414792 A    
C51   C52   1.521398 S    
C133  H114  1.109880 S    
C5    H5    1.073066 S    
C30   N30   1.343392 A    
C117  H75   1.111266 S    
C30   H26   1.081164 S    
C140  H126  1.109138 S    
C9    C41   1.361080 A    
C121  C122  1.524779 S    
C73   C113  1.511133 S    
C11   C43   1.365597 A    
C115  C116  1.529569 S    
N2    Ni2   1.856952 S    
C97   C98   1.358613 A    
C16   C48   1.384241 A    
C126  H91   1.110238 S    
C12   N12   1.316497 A    
C123  H89   1.109988 S    
C77   C81   1.408190 A    
C138  H123  1.110462 S    
C129  H105  1.105821 S    
C21   C45   1.367233 A    
C80   C84   1.403631 A    
C26   N26   1.326657 A    
C6    H6    1.064086 S    
C4    H4    1.080610 S    
C74   C115  1.512240 S    
C137  C138  1.525714 S    
C71   C75   1.418941 A    
C113  H65   1.111234 S    
C45   C58   1.439538 S    
C127  H100  1.109806 S    
C128  H97   1.109582 S    
C47   C60   1.439239 S    
C14   H14   1.075476 S    
C63   H31   1.109701 S    
N24   Ni4   1.868495 S    
C89   H37   1.112476 S    
C141  H134  1.110016 S    
C32   C36   1.385242 A    
C49   C53   1.526230 S    
N8    N28   1.393928 A    
C10   N10   1.314968 A    
C105  H53   1.083212 S    
C117  H74   1.108413 S    
C19   C133  1.511947 S    
C8    H8    1.074290 S    
C7    N7    1.332996 A    
C8    N8    1.328579 A    
C143  H140  1.110344 S    
N27   Ni8   1.852333 S    
C51   N35   1.464821 S    
C2    H2    1.080943 S    
C60   C64   1.541201 S    
N15   N23   1.372431 A    
C144  H138  1.110371 S    
C22   N22   1.326622 A    
N9    N17   1.372195 A    
N11   N19   1.372193 A    
C35   C84   1.455229 S    
N34   O3    1.298779 A    
C124  H87   1.109038 S    
C98   C102  1.393372 A    
C15   H15   1.078674 S    
C129  C130  1.527209 S    
C56   C63   1.556388 S    
C22   C46   1.378273 A    
C54   C58   1.537628 S    
C87   C91   1.495269 S    
N35   O6    1.299872 A    
C29   C33   1.391489 A    
C96   H48   1.111780 S    
C126  H93   1.110356 S    
C16   H16   1.075538 S    
C93   H45   1.112297 S    
C118  H72   1.111296 S    
C113  C114  1.529055 S    
C28   H24   1.078967 S    
C144  H137  1.110321 S    
C73   C79   1.412747 A    
N16   Ni7   1.840078 S    
C74   C80   1.413989 A    
C53   C137  1.536033 S    
C128  H96   1.110270 S    
C114  H62   1.111165 S    
C83   C87   1.393886 A    
C33   C82   1.454461 S    
C2    N2    1.325941 A    
C28   C40   1.381877 A    
C110  C123  1.546889 S    
C135  C136  1.529767 S    
C65   C93   1.503674 S    
C7    C39   1.375682 A    
C120  H76   1.111033 S    
C114  H63   1.107621 S    
C54   C139  1.533236 S    
C95   H51   1.112061 S    
C131  C132  1.527132 S    
C93   H49   1.112139 S    
C137  H124  1.109096 S    
C27   H23   1.079188 S    
C96   H52   1.112392 S    
C101  C105  1.400460 A    
C132  H107  1.110182 S    
C99   C112  1.509537 S    
C48   C59   1.458290 S    
N36   O7    1.298418 A    
C82   C86   1.393171 A    
N7    Ni7   1.864205 S    
C26   C38   1.372553 A    
C68   C96   1.500211 S    
C78   H34   1.082251 S    
N5    N25   1.393929 A    
N10   Ni1   1.864937 S    
C66   C88   1.370286 A    
N7    N27   1.393929 A    
C123  H90   1.110473 S    
C38   C70   1.468053 S    
C52   C56   1.533327 S    
