data_mof_unit_68139.cif
_audit_creation_date              2012-12-11T16:11:43-0500
_audit_creation_method            fapswitch 2.2
_symmetry_space_group_name_H-M    P1
_symmetry_Int_Tables_number       1
_space_group_crystal_system       triclinic
_cell_length_a                    7.031706
_cell_length_b                    14.165694
_cell_length_c                    16.122919
_cell_angle_alpha                 89.892505
_cell_angle_beta                  89.682836
_cell_angle_gamma                 88.86731
_cell_volume                      1605.64684243

loop_
_atom_site_label
_atom_site_type_symbol
_atom_type_description
_atom_site_fract_x
_atom_site_fract_y
_atom_site_fract_z
_atom_type_partial_charge
O1    O     O_R   0.638960 0.835150 0.161940 -0.536464
O2    O     O_R   0.361040 0.164850 0.838060 -0.536464
O3    O     O_R   0.309170 0.846340 0.337470 -0.518356
O4    O     O_R   0.690830 0.153660 0.662530 -0.518355
O5    O     O_R   0.138810 0.664830 0.338070 -0.521726
O6    O     O_R   0.861190 0.335170 0.661930 -0.521726
C1    C     C_R   0.475993 0.867168 0.367439 0.810616
C2    C     C_R   0.524007 0.132832 0.632560 0.810616
O7    O     O_R   0.309250 0.846350 0.162570 -0.527703
O8    O     O_R   0.690750 0.153650 0.837430 -0.527703
O9    O     O_R   0.138880 0.664840 0.161920 -0.536706
O10   O     O_R   0.861120 0.335160 0.838080 -0.536706
C3    C     C_R   0.477114 0.868616 0.133826 0.701187
C4    C     C_R   0.522886 0.131384 0.866174 0.701187
O11   O     O_R   0.638880 0.835150 0.338090 -0.532424
O12   O     O_R   0.361120 0.164850 0.661910 -0.532424
O13   O     O_3   0.472380 0.690440 0.250000 -0.374830
O14   O     O_3   0.527620 0.309560 0.750000 -0.374830
V1    V     V_3+5 0.197550 0.761040 0.250010 1.587131
V2    V     V_3+5 0.802450 0.238960 0.749990 1.587131
O15   O     O_R   0.809160 0.653640 0.162540 -0.550495
O16   O     O_R   0.190840 0.346360 0.837460 -0.550495
C5    C     C_R   0.978843 0.631949 0.133526 0.726950
C6    C     C_R   0.021157 0.368051 0.866474 0.726951
O17   O     O_R   0.809090 0.653640 0.337440 -0.536624
O18   O     O_R   0.190910 0.346360 0.662560 -0.536624
C7    C     C_R   0.977781 0.632121 0.366520 0.725712
C8    C     C_R   0.022219 0.367879 0.633480 0.725712
V3    V     V_3+5 0.697540 0.738950 0.250000 1.531884
V4    V     V_3+5 0.302460 0.261050 0.750000 1.531884
O19   O     O_3   0.972580 0.809550 0.250010 -0.350506
O20   O     O_3   0.027420 0.190450 0.749990 -0.350506
C9    C     C_3   0.912716 0.578493 0.526636 -0.089425
C10   C     C_3   0.087284 0.421507 0.473364 -0.089425
C11   C     C_3   0.826608 0.479340 0.526964 0.017185
C12   C     C_3   0.173392 0.520660 0.473036 0.017186
C13   C     C_3   0.013028 0.437858 0.562616 -0.149293
C14   C     C_3   0.986972 0.562142 0.437384 -0.149293
C15   C     C_3   0.100737 0.537636 0.563004 -0.125220
C16   C     C_3   0.899263 0.462364 0.436996 -0.125220
H1    H     H_    0.184035 0.568693 0.614078 0.180400
H2    H     H_    0.815965 0.431307 0.385922 0.180400
C17   C     C_3   0.829763 0.459000 0.990626 -0.186717
C18   C     C_3   0.170237 0.541000 0.009374 -0.186717
C19   C     C_3   0.953039 0.455198 0.070364 0.213596
C20   C     C_3   0.046961 0.544802 0.929636 0.213596
H3    H     H_    0.689034 0.425966 0.983112 0.151882
H4    H     H_    0.310966 0.574034 0.016888 0.151882
C21   C     C_3   0.990051 0.561999 0.062593 -0.179738
C22   C     C_3   0.009948 0.438001 0.937407 -0.179738
C23   C     C_3   0.868597 0.565855 0.983279 -0.063890
C24   C     C_3   0.131403 0.434144 0.016721 -0.063890
C25   C     C_3   0.672658 0.973423 0.472434 0.130037
C26   C     C_3   0.327342 0.026577 0.527566 0.130037
C27   C     C_3   0.591263 0.076197 0.471117 0.143978
C28   C     C_3   0.408737 0.923803 0.528883 0.143978
C29   C     C_3   0.516836 0.063405 0.560893 -0.260713
C30   C     C_3   0.483164 0.936595 0.439107 -0.260713
C31   C     C_3   0.598260 0.961324 0.562295 0.103454
C32   C     C_3   0.401740 0.038676 0.437705 0.103454
C33   C     C_3   0.669553 0.957953 0.013489 0.260370
C34   C     C_3   0.330447 0.042047 0.986510 0.260369
C35   C     C_3   0.555483 0.954574 0.932254 -0.107909
C36   C     C_3   0.444517 0.045426 0.067746 -0.107908
C37   C     C_3   0.513512 0.061485 0.937200 -0.152315
C38   C     C_3   0.486488 0.938515 0.062800 -0.152315
C39   C     C_3   0.627475 0.066122 0.018963 -0.211885
C40   C     C_3   0.372525 0.933878 0.981037 -0.211884
H5    H     H_    0.716657 0.124467 0.040569 0.181629
H6    H     H_    0.283343 0.875533 0.959430 0.181629
C41   C     C_2   0.634179 0.455853 0.560526 0.391542
H7    H     H_    0.559949 0.504540 0.601841 0.092944
O21   O     O_2   0.563212 0.380307 0.544223 -0.540955
C42   C     C_2   0.365821 0.544147 0.439474 0.391542
H8    H     H_    0.440051 0.495460 0.398159 0.092944
O22   O     O_2   0.436788 0.619693 0.455777 -0.540955
C43   C     C_2   0.602003 0.899006 0.856354 0.522698
H9    H     H_    0.504249 0.901601 0.804622 0.067971
O23   O     O_2   0.744363 0.848535 0.853208 -0.458994
C44   C     C_2   0.397996 0.100994 0.143646 0.522698
H10   H     H_    0.495751 0.098399 0.195378 0.067971
O24   O     O_2   0.255637 0.151465 0.146792 -0.458994
I1    I     I_    0.927187 0.879917 0.033439 -0.328862
I2    I     I_    0.072813 0.120082 0.966561 -0.328861
C45   C     C_2   0.811249 0.664731 0.558272 0.530156
H11   H     H_    0.781573 0.723692 0.517102 0.075928
O25   O     O_2   0.759199 0.668223 0.630511 -0.473952
C46   C     C_2   0.188751 0.335269 0.441728 0.530157
H12   H     H_    0.218427 0.276308 0.482898 0.075928
O26   O     O_2   0.240800 0.331777 0.369489 -0.473952
I3    I     I_    0.875843 0.382231 0.181439 -0.199817
I4    I     I_    0.124157 0.617769 0.818561 -0.199817
C47   C     C_2   0.717015 0.637920 0.963289 0.488673
H13   H     H_    0.680916 0.693379 0.007161 0.037817
O27   O     O_2   0.631591 0.633803 0.897786 -0.481436
C48   C     C_2   0.282985 0.362080 0.036711 0.488673
H14   H     H_    0.319083 0.306620 0.992839 0.037817
O28   O     O_2   0.368409 0.366198 0.102214 -0.481436
I5    I     I_    0.714914 0.199378 0.417790 -0.225916
I6    I     I_    0.285086 0.800622 0.582210 -0.225916
I7    I     I_    0.938677 0.912412 0.432283 -0.260550
I8    I     I_    0.061323 0.087587 0.567717 -0.260550
I9    I     I_    0.766016 0.899150 0.658231 -0.190318
I10   I     I_    0.233984 0.100850 0.341769 -0.190319

loop_
_geom_bond_atom_site_label_1
_geom_bond_atom_site_label_2
_ccdc_geom_bond_type
C18   C21   S    
C38   C40   S    
C35   C37   S    
C47   H13   S    
C10   C13   S    
O13   V3    S    
C25   C27   S    
O4    C2    A    
V1    O19   S    
C25   C31   S    
C15   H1    S    
C26   C32   S    
C43   H9    S    
O9    V1    S    
C9    C15   S    
C42   O22   D    
C10   C16   S    
C11   C13   S    
O3    C1    A    
V2    O20   S    
C29   C31   S    
C20   I4    S    
C7    C14   S    
C30   C32   S    
O10   C6    A    
C33   C35   S    
O7    C3    A    
C34   C36   S    
C9    C11   S    
O5    C7    A    
C33   C38   S    
O7    V1    S    
O6    C8    A    
C25   I7    S    
C21   C23   S    
C48   O28   D    
C22   C24   S    
O3    V1    S    
O14   V4    S    
V4    O20   S    
C1    C30   S    
C10   C12   S    
C18   C24   S    
C43   O23   D    
C11   C41   S    
C2    O12   A    
C27   C32   S    
O17   V3    S    
C36   C44   S    
C19   I3    S    
C18   C20   S    
O11   V3    S    
C3    C38   S    
C45   O25   D    
C6    C22   S    
C13   C15   S    
C26   C28   S    
C42   H8    S    
C36   C39   S    
C44   O24   D    
O8    C4    A    
O8    V2    S    
C41   O21   D    
C1    O11   A    
C19   C24   S    
C37   C39   S    
C45   H11   S    
O15   V3    S    
C20   C23   S    
C39   H5    S    
C36   C38   S    
C2    C29   S    
C33   C39   S    
C16   H2    S    
C19   C21   S    
C48   H14   S    
O10   V2    S    
O1    V3    S    
C10   C46   S    
C17   C19   S    
C12   C42   S    
C23   C47   S    
C46   O26   D    
O18   V4    S    
C27   C29   S    
C33   I1    S    
O16   C6    A    
O1    C3    A    
C28   I6    S    
C12   C14   S    
C35   C43   S    
C34   I2    S    
C35   C40   S    
C9    C45   S    
O16   V4    S    
C34   C37   S    
C26   I8    S    
C12   C15   S    
C44   H10   S    
C25   C30   S    
C17   C22   S    
O5    V1    S    
O17   C7    A    
O6    V2    S    
C20   C22   S    
O18   C8    A    
C9    C14   S    
C28   C31   S    
C34   C40   S    
O2    V4    S    
C31   I9    S    
O15   C5    A    
C11   C16   S    
C41   H7    S    
V3    O19   S    
C14   C16   S    
C17   C23   S    
C47   O27   D    
C17   H3    S    
C8    C13   S    
O9    C5    A    
O13   V1    S    
C4    C37   S    
C28   C30   S    
C24   C48   S    
O14   V2    S    
O2    C4    A    
C5    C21   S    
O4    V2    S    
C46   H12   S    
C40   H6    S    
C27   I5    S    
C32   I10   S    
O12   V4    S    
C18   H4    S    
C26   C29   S    
