data_mof_unit_54800.cif
_audit_creation_date              2012-12-10T16:38:02-0500
_audit_creation_method            fapswitch 2.2
_symmetry_space_group_name_H-M    P1
_symmetry_Int_Tables_number       1
_space_group_crystal_system       triclinic
_cell_length_a                    28.215394
_cell_length_b                    18.498713
_cell_length_c                    16.8267
_cell_angle_alpha                 89.716378
_cell_angle_beta                  60.976106
_cell_angle_gamma                 89.49048
_cell_volume                      7679.41459277

loop_
_atom_site_label
_atom_site_type_symbol
_atom_type_description
_atom_site_fract_x
_atom_site_fract_y
_atom_site_fract_z
_atom_type_partial_charge
C1    C     C_R   0.700176 0.264330 0.677564 0.917622
C2    C     C_R   0.098397 0.499645 0.500724 0.066245
C3    C     C_R   0.185762 0.225544 0.913898 0.058553
C4    C     C_R   0.617337 0.330709 0.050541 -0.183808
C5    C     C_R   0.381437 0.667649 0.950290 -0.183837
C6    C     C_R   0.379213 0.336598 0.951634 -0.183824
C7    C     C_R   0.620390 0.663939 0.048664 -0.185215
C8    C     C_R   0.117340 0.830714 0.050541 -0.183805
C9    C     C_R   0.881436 0.167650 0.950291 -0.183839
C10   C     C_R   0.879211 0.836599 0.951635 -0.183825
C11   C     C_R   0.120394 0.163933 0.048662 -0.185212
C12   C     C_R   0.648846 0.320560 0.092543 -0.222973
C13   C     C_R   0.420113 0.998728 0.436037 0.068830
C14   C     C_R   0.349640 0.677179 0.908744 -0.222845
C15   C     C_R   0.347457 0.326502 0.910269 -0.223952
C16   C     C_R   0.652059 0.674200 0.090167 -0.224261
C17   C     C_R   0.148850 0.820569 0.092540 -0.222970
C18   C     C_R   0.849640 0.177181 0.908744 -0.222847
C19   C     C_R   0.847456 0.826503 0.910271 -0.223954
C20   C     C_R   0.152065 0.174190 0.090163 -0.224262
C21   C     C_R   0.738865 0.184676 0.799601 0.012228
C22   C     C_R   0.260063 0.813926 0.201025 0.010127
C23   C     C_R   0.262702 0.185205 0.199522 0.015788
C24   C     C_R   0.598396 0.999644 0.500720 0.066239
C25   C     C_R   0.736995 0.815174 0.800659 0.015815
C26   C     C_R   0.238864 0.684675 0.799602 0.012227
C27   C     C_R   0.760058 0.313916 0.201031 0.010125
C28   C     C_R   0.762696 0.685215 0.199528 0.015794
C29   C     C_R   0.236995 0.315175 0.800659 0.015816
C30   C     C_R   0.771915 0.175010 0.839682 -0.259387
C31   C     C_R   0.226635 0.822890 0.161547 -0.268880
C32   C     C_R   0.229805 0.174859 0.159461 -0.257155
C33   C     C_R   0.769762 0.825736 0.840914 -0.257061
C34   C     C_R   0.271914 0.675007 0.839684 -0.259381
C35   C     C_R   0.079800 0.374065 0.548123 -0.235978
C36   C     C_R   0.726628 0.322876 0.161554 -0.268889
C37   C     C_R   0.729797 0.674874 0.159471 -0.257162
C38   C     C_R   0.269762 0.325737 0.840915 -0.257058
C39   C     C_R   0.073075 0.101642 0.935430 0.919899
C40   C     C_R   0.926867 0.898416 0.064618 0.919235
C41   C     C_R   0.927495 0.102422 0.063875 0.920774
C42   C     C_R   0.072329 0.897408 0.936262 0.921231
C43   C     C_R   0.573075 0.601643 0.935431 0.919897
C44   C     C_R   0.426867 0.398416 0.064617 0.919234
C45   C     C_R   0.427495 0.602422 0.063875 0.920773
C46   C     C_R   0.929676 0.627958 0.408282 -0.243678
C47   C     C_R   0.572329 0.397408 0.936262 0.921230
C48   C     C_R   0.572348 0.124456 0.431551 0.105044
C49   C     C_R   0.462261 0.868136 0.463590 0.106262
C50   C     C_R   0.478408 0.126918 0.412076 0.112756
C51   C     C_R   0.540820 0.871483 0.519897 0.109571
C52   C     C_R   0.072354 0.624451 0.431539 0.105042
C53   C     C_R   0.962241 0.368136 0.463655 0.106252
C54   C     C_R   0.978415 0.626915 0.412064 0.112761
C55   C     C_R   0.040798 0.371491 0.519964 0.109594
C56   C     C_R   0.557755 0.187271 0.400792 -0.202316
C57   C     C_R   0.922274 0.367835 0.438002 -0.240556
C58   C     C_R   0.478558 0.803897 0.488423 -0.203853
C59   C     C_R   0.510489 0.188957 0.393013 -0.206620
C60   C     C_R   0.515985 0.806056 0.520140 -0.204507
C61   C     C_R   0.057760 0.687265 0.400782 -0.202331
C62   C     C_R   0.978516 0.303901 0.488543 -0.203837
C63   C     C_R   0.010495 0.688953 0.393002 -0.206625
C64   C     C_R   0.015942 0.306065 0.520258 -0.204492
C65   C     C_R   0.495138 0.062771 0.436689 0.031622
C66   C     C_R   0.527181 0.934895 0.489088 0.029968
C67   C     C_R   0.540722 0.062308 0.450248 0.032785
C68   C     C_R   0.118001 0.622812 0.443763 -0.240834
C69   C     C_R   0.485422 0.933903 0.466361 0.031947
C70   C     C_R   0.995144 0.562769 0.436680 0.031627
C71   C     C_R   0.027172 0.434898 0.489121 0.029951
C72   C     C_R   0.040728 0.562306 0.450238 0.032792
C73   C     C_R   0.985413 0.433905 0.466396 0.031936
C74   C     C_R   0.967218 0.498479 0.445388 -0.051382
C75   C     C_R   0.055128 0.499164 0.480927 -0.050830
C76   C     C_R   0.467218 0.998479 0.445379 -0.051385
C77   C     C_R   0.555126 0.999163 0.480923 -0.050832
C78   C     C_R   0.894912 0.432732 0.438046 0.053549
C79   C     C_R   0.579815 0.874055 0.548071 -0.235966
C80   C     C_R   0.128916 0.562929 0.486235 0.051511
C81   C     C_R   0.112290 0.436061 0.532089 0.060471
C82   C     C_R   0.897544 0.564938 0.427765 0.055547
C83   C     C_R   0.394914 0.932732 0.438031 0.053545
C84   C     C_R   0.628913 0.062929 0.486238 0.051521
C85   C     C_R   0.612294 0.936056 0.532070 0.060471
C86   C     C_R   0.397542 0.064938 0.427765 0.055531
C87   C     C_R   0.842810 0.434520 0.443439 -0.118718
C88   C     C_R   0.169289 0.563173 0.514507 -0.110168
C89   C     C_R   0.159811 0.436163 0.542001 -0.116667
C90   C     C_R   0.429672 0.127959 0.408287 -0.243660
C91   C     C_R   0.843871 0.564854 0.439424 -0.119394
C92   C     C_R   0.342808 0.934520 0.443437 -0.118716
C93   C     C_R   0.669285 0.063172 0.514510 -0.110166
C94   C     C_R   0.659811 0.936161 0.541993 -0.116656
C95   C     C_R   0.343868 0.064853 0.439430 -0.119389
C96   C     C_R   0.819168 0.499934 0.441775 -0.270776
C97   C     C_R   0.183949 0.500360 0.541473 -0.288481
C98   C     C_R   0.319163 0.999933 0.441784 -0.270762
C99   C     C_R   0.683944 0.000358 0.541477 -0.288503
C100  C     C_1   0.738666 0.126647 0.742628 0.191755
C101  C     C_R   0.422282 0.867836 0.437963 -0.240566
C102  C     C_1   0.260463 0.872528 0.257144 0.190749
C103  C     C_1   0.264847 0.126847 0.255099 0.186654
C104  C     C_1   0.734932 0.873344 0.744793 0.186823
C105  C     C_1   0.238666 0.626647 0.742628 0.191756
C106  C     C_1   0.760456 0.372520 0.257147 0.190763
C107  C     C_1   0.764844 0.626853 0.255095 0.186660
C108  C     C_1   0.234933 0.373345 0.744793 0.186819
C109  C     C_R   0.299732 0.735504 0.322454 0.881760
C110  C     C_R   0.617997 0.122814 0.443768 -0.240826
C111  C     C_R   0.716392 0.258680 0.958957 0.019387
C112  C     C_R   0.282192 0.739165 0.042340 0.020161
C113  C     C_R   0.282392 0.261231 0.042232 0.020055
C114  C     C_R   0.717169 0.739410 0.958190 0.020003
C115  C     C_R   0.216394 0.758683 0.958956 0.019384
C116  C     C_R   0.782190 0.239161 0.042342 0.020166
C117  C     C_R   0.782388 0.761236 0.042235 0.020059
C118  C     C_R   0.217172 0.239405 0.958187 0.020000
C119  C     C_R   0.763545 0.215444 0.916215 0.028757
C120  C     C_R   0.299664 0.264754 0.322616 0.889982
C121  C     C_R   0.234940 0.782238 0.085211 0.029740
C122  C     C_R   0.236729 0.216005 0.083899 0.027679
C123  C     C_R   0.762804 0.784675 0.916558 0.027520
C124  C     C_R   0.263545 0.715444 0.916215 0.028758
C125  C     C_R   0.734936 0.282229 0.085215 0.029740
C126  C     C_R   0.736723 0.716015 0.083905 0.027679
C127  C     C_R   0.262806 0.284674 0.916556 0.027521
C128  C     C_R   0.797895 0.208670 0.955861 0.067146
C129  C     C_R   0.200577 0.788973 0.045569 0.068346
C130  C     C_R   0.202614 0.207997 0.043948 0.068211
C131  C     C_R   0.700313 0.735285 0.677391 0.895254
C132  C     C_R   0.796908 0.792707 0.956519 0.067724
C133  C     C_R   0.297896 0.708671 0.955861 0.067147
C134  C     C_R   0.700574 0.288965 0.045572 0.068346
C135  C     C_R   0.702609 0.708006 0.043953 0.068211
C136  C     C_R   0.296911 0.292705 0.956517 0.067724
C137  C     C_R   0.637651 0.314894 0.957355 0.081976
C138  C     C_R   0.361412 0.683835 0.043310 0.081832
C139  C     C_R   0.360261 0.318814 0.044135 0.083459
C140  C     C_R   0.639444 0.681585 0.956096 0.083980
C141  C     C_R   0.137652 0.814896 0.957355 0.081974
C142  C     C_R   0.200176 0.764330 0.677564 0.917622
C143  C     C_R   0.861411 0.183834 0.043311 0.081834
C144  C     C_R   0.860259 0.818817 0.044137 0.083462
C145  C     C_R   0.139446 0.181582 0.956094 0.083979
C146  C     C_R   0.612381 0.339075 0.905706 -0.138196
C147  C     C_R   0.387153 0.660396 0.094548 -0.138262
C148  C     C_R   0.386188 0.341406 0.095344 -0.134866
C149  C     C_R   0.613667 0.658761 0.904748 -0.135490
C150  C     C_R   0.112382 0.839075 0.905706 -0.138195
C151  C     C_R   0.887152 0.160395 0.094548 -0.138262
C152  C     C_R   0.886186 0.841408 0.095345 -0.134864
C153  C     C_R   0.799731 0.235503 0.322454 0.881769
C154  C     C_R   0.113668 0.158760 0.904748 -0.135489
C155  C     C_R   0.630730 0.314967 0.818216 -0.301100
C156  C     C_R   0.369045 0.684880 0.181790 -0.305685
C157  C     C_R   0.368375 0.316313 0.182346 -0.306589
C158  C     C_R   0.631569 0.683718 0.817658 -0.305560
C159  C     C_R   0.130730 0.814967 0.818217 -0.301100
C160  C     C_R   0.869044 0.184879 0.181790 -0.305685
C161  C     C_R   0.868374 0.816314 0.182346 -0.306592
C162  C     C_R   0.131569 0.183718 0.817659 -0.305563
C163  C     C_R   0.675094 0.269524 0.777142 -0.128311
C164  C     C_R   0.799664 0.764755 0.322616 0.889982
C165  C     C_R   0.324528 0.730021 0.222997 -0.117925
C166  C     C_R   0.324603 0.270679 0.223069 -0.122218
C167  C     C_R   0.675298 0.729434 0.776973 -0.124117
C168  C     C_R   0.175094 0.769524 0.777142 -0.128312
C169  C     C_R   0.824526 0.230018 0.222998 -0.117925
C170  C     C_R   0.824601 0.770683 0.223070 -0.122214
C171  C     C_R   0.175298 0.229434 0.776973 -0.124115
C172  C     C_R   0.700219 0.241938 0.828317 0.019697
C173  C     C_R   0.298934 0.756918 0.172227 0.018149
C174  C     C_R   0.299737 0.243554 0.171819 0.020387
C175  C     C_R   0.200312 0.235285 0.677391 0.895244
C176  C     C_R   0.700020 0.756763 0.828348 0.019784
C177  C     C_R   0.200219 0.741938 0.828318 0.019698
C178  C     C_R   0.798931 0.256912 0.172229 0.018148
C179  C     C_R   0.799733 0.743561 0.171822 0.020386
C180  C     C_R   0.200021 0.256763 0.828348 0.019787
C181  C     C_R   0.696517 0.127996 0.517449 0.914205
C182  C     C_R   0.308338 0.870780 0.465889 0.908538
C183  C     C_R   0.309018 0.129543 0.463661 0.896478
C184  C     C_R   0.691646 0.870967 0.532808 0.899467
C185  C     C_R   0.196518 0.627996 0.517447 0.914213
C186  C     C_R   0.920113 0.498728 0.436045 0.068828
C187  C     C_R   0.808338 0.370780 0.465890 0.908541
C188  C     C_R   0.809020 0.629543 0.463658 0.896472
C189  C     C_R   0.191645 0.370968 0.532811 0.899455
C190  C     C_R   0.684881 0.272020 0.914662 0.060124
C191  C     C_R   0.314016 0.726390 0.086220 0.058418
C192  C     C_R   0.313904 0.274924 0.086389 0.058167
C193  C     C_R   0.685760 0.725546 0.913900 0.058555
C194  C     C_R   0.184882 0.772022 0.914661 0.060122
C195  C     C_R   0.814014 0.226386 0.086222 0.058420
C196  C     C_R   0.813900 0.774930 0.086391 0.058166
H1    H     H_    0.026634 0.256378 0.542345 0.135863
H2    H     H_    0.217137 0.500584 0.556761 0.210245
H3    H     H_    0.278684 0.000373 0.449676 0.209695
H4    H     H_    0.717129 0.000583 0.556771 0.210244
H5    H     H_    0.083812 0.327137 0.582893 0.171260
H6    H     H_    0.918204 0.677645 0.387835 0.168825
H7    H     H_    0.913730 0.316051 0.419123 0.179742
H8    H     H_    0.144756 0.668430 0.417379 0.182663
H9    H     H_    0.583823 0.827120 0.582837 0.171277
H10   H     H_    0.418202 0.177647 0.387834 0.168822
H11   H     H_    0.413730 0.816055 0.419088 0.179738
H12   H     H_    0.999019 0.738706 0.372317 0.135777
H13   H     H_    0.644752 0.168432 0.417377 0.182656
H14   H     H_    0.612246 0.335924 0.779285 0.191197
H15   H     H_    0.387872 0.664481 0.220445 0.189962
H16   H     H_    0.386972 0.336388 0.221117 0.189168
H17   H     H_    0.613084 0.663465 0.778797 0.189753
H18   H     H_    0.112246 0.835923 0.779286 0.191196
H19   H     H_    0.887872 0.164480 0.220445 0.189963
H20   H     H_    0.886972 0.836388 0.221117 0.189168
H21   H     H_    0.113083 0.163466 0.778798 0.189751
H22   H     H_    0.576401 0.349075 0.094188 0.169304
H23   H     H_    0.960540 0.252663 0.487367 0.136310
H24   H     H_    0.422409 0.649628 0.906270 0.170495
H25   H     H_    0.419471 0.355938 0.907176 0.174990
H26   H     H_    0.580132 0.644527 0.093008 0.173740
H27   H     H_    0.076403 0.849079 0.094188 0.169305
H28   H     H_    0.922409 0.149630 0.906271 0.170493
H29   H     H_    0.919470 0.855938 0.907177 0.174990
H30   H     H_    0.080136 0.144520 0.093007 0.173742
H31   H     H_    0.630996 0.335234 0.163445 0.137648
H32   H     H_    0.367360 0.662284 0.837936 0.140648
H33   H     H_    0.364539 0.342556 0.839890 0.142239
H34   H     H_    0.081950 0.735734 0.385485 0.137941
H35   H     H_    0.634936 0.658219 0.160579 0.141336
H36   H     H_    0.131001 0.835246 0.163443 0.137648
H37   H     H_    0.867360 0.162288 0.837936 0.140647
H38   H     H_    0.864538 0.842554 0.839891 0.142240
H39   H     H_    0.134943 0.158206 0.160574 0.141337
H40   H     H_    0.801492 0.131535 0.814496 0.143292
H41   H     H_    0.196905 0.866182 0.186828 0.144059
H42   H     H_    0.201646 0.130301 0.183767 0.144085
H43   H     H_    0.797878 0.870338 0.816623 0.144235
H44   H     H_    0.301489 0.631530 0.814501 0.143292
H45   H     H_    0.526694 0.756366 0.542184 0.135875
H46   H     H_    0.696894 0.366160 0.186841 0.144061
H47   H     H_    0.701634 0.630323 0.183783 0.144086
H48   H     H_    0.297877 0.370342 0.816625 0.144233
H49   H     H_    0.499015 0.238709 0.372324 0.135773
H50   H     H_    0.460599 0.752661 0.487206 0.136312
H51   H     H_    0.581950 0.235741 0.385482 0.137927
H52   H     H_    0.778692 0.500373 0.449660 0.209694
N1    N     N_1   0.738490 0.080068 0.697187 -0.188017
N2    N     N_1   0.260797 0.919557 0.301899 -0.191311
N3    N     N_1   0.266673 0.079989 0.299316 -0.192793
N4    N     N_1   0.733167 0.920042 0.700330 -0.195597
N5    N     N_1   0.238490 0.580068 0.697185 -0.188015
N6    N     N_1   0.760789 0.419551 0.301900 -0.191313
N7    N     N_1   0.766674 0.579992 0.299304 -0.192802
N8    N     N_1   0.233169 0.420043 0.700329 -0.195598
O1    O     O_R   0.746490 0.236330 0.638080 -0.619799
O2    O     O_R   0.325830 0.813840 0.483730 -0.645974
O3    O     O_R   0.325830 0.186160 0.483730 -0.634981
O4    O     O_R   0.674170 0.813840 0.516270 -0.641392
O5    O     O_R   0.174170 0.686160 0.516270 -0.647422
O6    O     O_R   0.825830 0.313840 0.483730 -0.645977
O7    O     O_R   0.825830 0.686160 0.483730 -0.634979
O8    O     O_R   0.174170 0.313840 0.516270 -0.641370
O9    O     O_R   0.739960 0.127620 0.525000 -0.617552
O10   O     O_R   0.260040 0.872380 0.475000 -0.614590
O11   O     O_R   0.260040 0.127620 0.475000 -0.613437
O12   O     O_R   0.253510 0.763670 0.361920 -0.637546
O13   O     O_R   0.739960 0.872380 0.525000 -0.610198
O14   O     O_R   0.239960 0.627620 0.525000 -0.617557
O15   O     O_R   0.760040 0.372380 0.475000 -0.614587
O16   O     O_R   0.760040 0.627620 0.475000 -0.613431
O17   O     O_R   0.239960 0.372380 0.525000 -0.610200
O18   O     O_R   0.680700 0.294870 0.629350 -0.620581
O19   O     O_R   0.319300 0.705130 0.370650 -0.634866
O20   O     O_R   0.319300 0.294870 0.370650 -0.631867
O21   O     O_R   0.680700 0.705130 0.629350 -0.629341
O22   O     O_R   0.180700 0.794870 0.629350 -0.620580
O23   O     O_R   0.253510 0.236330 0.361920 -0.619156
O24   O     O_R   0.819300 0.205130 0.370650 -0.634863
O25   O     O_R   0.819300 0.794870 0.370650 -0.631869
O26   O     O_R   0.180700 0.205130 0.629350 -0.629343
O27   O     O_R   0.062020 0.072840 0.007170 -0.632449
O28   O     O_R   0.937980 0.927160 0.992830 -0.632610
O29   O     O_R   0.937980 0.072840 0.992830 -0.630031
O30   O     O_R   0.062020 0.927160 0.007170 -0.629638
O31   O     O_R   0.562020 0.572840 0.007170 -0.632446
O32   O     O_R   0.437980 0.427160 0.992830 -0.632610
O33   O     O_R   0.437980 0.572840 0.992830 -0.630031
O34   O     O_R   0.746490 0.763670 0.638080 -0.617837
O35   O     O_R   0.562020 0.427160 0.007170 -0.629636
O36   O     O_R   0.947860 0.073950 0.109290 -0.620199
O37   O     O_R   0.052140 0.926050 0.890710 -0.619051
O38   O     O_R   0.052140 0.073950 0.890710 -0.620263
O39   O     O_R   0.947860 0.926050 0.109290 -0.621048
O40   O     O_R   0.447860 0.573950 0.109290 -0.620201
O41   O     O_R   0.552140 0.426050 0.890710 -0.619050
O42   O     O_R   0.552140 0.573950 0.890710 -0.620262
O43   O     O_R   0.447860 0.426050 0.109290 -0.621048
O44   O     O_R   0.246490 0.736330 0.638080 -0.619796
O45   O     O_R   0.753510 0.263670 0.361920 -0.637547
O46   O     O_R   0.753510 0.736330 0.361920 -0.619161
O47   O     O_R   0.246490 0.263670 0.638080 -0.617837
O48   O     O_R   0.674170 0.186160 0.516270 -0.647418
Zn1   Zn    Zn3+2 0.792340 0.208750 0.507670 0.953588
Zn2   Zn    Zn3+2 0.494040 0.500000 0.919480 0.922280
Zn3   Zn    Zn3+2 0.005960 1.000000 0.080520 0.919675
Zn4   Zn    Zn3+2 0.994040 0.000000 0.919480 0.922279
Zn5   Zn    Zn3+2 0.207660 0.791250 0.492330 0.954645
Zn6   Zn    Zn3+2 0.207660 0.208750 0.492330 0.958813
Zn7   Zn    Zn3+2 0.792340 0.791250 0.507670 0.962577
Zn8   Zn    Zn3+2 0.292340 0.708750 0.507670 0.953593
Zn9   Zn    Zn3+2 0.707660 0.291250 0.492330 0.954647
Zn10  Zn    Zn3+2 0.707660 0.708750 0.492330 0.958800
Zn11  Zn    Zn3+2 0.292340 0.291250 0.507670 0.962576
Zn12  Zn    Zn3+2 0.505960 0.500000 0.080520 0.919675

loop_
_geom_bond_atom_site_label_1
_geom_bond_atom_site_label_2
_ccdc_geom_bond_type
O14   Zn8   S    
C91   C188  S    
C105  N5    T    
C47   O35   A    
C9    C143  A    
C120  C166  S    
C158  H17   S    
C60   H45   S    
C124  C133  A    
C37   H47   S    
C184  O13   A    
O5    Zn5   S    
C52   C61   A    
O38   Zn4   S    
C54   C63   A    
C58   C60   A    
C183  O11   A    
C61   C63   A    
C117  C132  A    
C62   C64   A    
C101  H11   S    
C91   C96   A    
C116  C195  A    
C93   C181  S    
C50   C90   A    
C23   C103  S    
C113  C122  A    
C70   C74   A    
C29   C108  S    
C78   C186  A    
C4    C12   A    
C34   H44   S    
C24   C85   A    
C88   C97   A    
C119  C128  A    
C143  C151  A    
C162  H21   S    
O34   Zn7   S    
C159  H18   S    
C49   C69   A    
O15   Zn9   S    
C109  O12   A    
C41   O29   A    
C26   C105  S    
C158  C167  A    
O22   Zn5   S    
C11   C20   A    
C166  C174  A    
C150  C159  A    
C39   C154  S    
C137  C146  A    
C127  C136  A    
C31   C121  A    
C139  C192  A    
C86   C90   A    
C71   C73   A    
C35   H5    S    
C12   H31   S    
C172  C190  A    
C160  H19   S    
C17   C129  A    
C173  C191  A    
C82   C91   A    
C51   C66   A    
C164  O46   A    
C52   C72   A    
C3    C118  A    
O44   Zn8   S    
O18   Zn9   S    
C54   C70   A    
C39   O38   A    
C61   H34   S    
C163  C172  A    
O32   Zn2   S    
C42   O30   A    
C8    H27   S    
C185  O14   A    
C63   H12   S    
C110  H13   S    
C50   C59   A    
C79   C85   A    
O23   Zn6   S    
C21   C100  S    
C66   C77   A    
C189  O17   A    
C34   C124  A    
C57   C78   A    
C41   C151  S    
C21   C172  A    
C8    C17   A    
C56   C59   A    
C103  N3    T    
C62   H23   S    
C80   C88   A    
C92   C182  S    
C112  C191  A    
C95   C183  S    
C11   H30   S    
C84   C93   A    
O6    Zn1   S    
C86   C95   A    
C142  C168  S    
C24   C77   A    
C45   O33   A    
C2    C81   A    
C55   C71   A    
C2    C75   A    
O29   Zn4   S    
C78   C87   A    
C48   C110  A    
O30   Zn3   S    
C104  N4    T    
C123  C132  A    
C68   H8    S    
C164  C170  S    
C138  C191  A    
C67   C77   A    
C27   C178  A    
O7    Zn7   S    
C23   C174  A    
C98   H3    S    
C153  O24   A    
C25   C104  S    
C40   C152  S    
C69   C76   A    
C111  C119  A    
C85   C94   A    
C6    C139  A    
O10   Zn5   S    
C18   C128  A    
C4    C137  A    
C46   C82   A    
C29   C38   A    
C13   C76   A    
C8    C141  A    
C176  C193  A    
C149  C158  A    
C152  C161  A    
C131  C167  S    
C48   C67   A    
C12   C134  A    
C87   C96   A    
C156  H15   S    
C72   C75   A    
C17   H36   S    
C141  C150  A    
C120  O20   A    
C182  O2    A    
C139  C148  A    
C162  C171  A    
C100  N1    T    
O8    Zn6   S    
C87   C187  S    
C15   C136  A    
C27   C106  S    
C155  C163  A    
C79   H9    S    
C175  O47   A    
C189  O8    A    
C3    C180  A    
C14   H32   S    
C107  N7    T    
C10   C144  A    
O20   Zn11  S    
C1    O18   A    
O36   Zn3   S    
O43   Zn12  S    
O17   Zn11  S    
C114  C123  A    
C88   C185  S    
C115  C194  A    
C3    C145  A    
C4    H22   S    
C116  C125  A    
C118  C127  A    
C145  C154  A    
C19   H38   S    
C22   C173  A    
C115  C129  A    
C37   C126  A    
C117  C126  A    
C26   C177  A    
C19   C132  A    
C113  C192  A    
C40   O28   A    
C83   C101  A    
C45   C147  S    
C154  C162  A    
C15   H33   S    
C111  C134  A    
C144  C196  A    
C14   C133  A    
C16   H35   S    
C170  C179  A    
C36   H46   S    
C112  C121  A    
C144  C152  A    
O28   Zn4   S    
C9    H28   S    
C28   C37   A    
C148  C157  A    
C50   C65   A    
C51   C79   A    
C47   C146  S    
O47   Zn11  S    
C137  C190  A    
C153  O45   A    
C9    C18   A    
O4    Zn10  S    
C51   C60   A    
C30   H40   S    
O1    Zn1   S    
C140  C149  A    
C108  N8    T    
C174  C192  A    
O3    Zn11  S    
C125  C134  A    
O39   Zn3   S    
O40   Zn12  S    
C73   C74   A    
C106  N6    T    
C142  O22   A    
O48   Zn9   S    
C188  O7    A    
O45   Zn9   S    
C184  O4    A    
C65   C76   A    
C82   C186  A    
C49   C101  A    
C7    C140  A    
C168  C177  A    
O24   Zn1   S    
C90   H10   S    
C146  C155  A    
C65   C67   A    
C10   H29   S    
C160  C169  A    
C175  O26   A    
C93   C99   A    
O12   Zn5   S    
C81   C89   A    
C187  O15   A    
C64   H1    S    
O46   Zn10  S    
C94   C184  S    
C1    O1    A    
C179  C196  A    
C56   H51   S    
C18   H37   S    
C177  C194  A    
C32   C122  A    
C58   H50   S    
O37   Zn4   S    
C53   C57   A    
C120  O23   A    
O33   Zn2   S    
C181  O48   A    
O35   Zn12  S    
C118  C130  A    
C10   C19   A    
C20   H39   S    
C143  C195  A    
C57   H7    S    
C59   H49   S    
O16   Zn10  S    
C147  C156  A    
C5    C14   A    
C109  C165  S    
C181  O9    A    
C7    C16   A    
C161  H20   S    
C126  C135  A    
C183  O3    A    
C45   O40   A    
C41   O36   A    
C115  C124  A    
C155  H14   S    
O25   Zn7   S    
C121  C129  A    
C27   C36   A    
C38   H48   S    
C21   C30   A    
C13   C83   A    
C187  O6    A    
C23   C32   A    
O21   Zn10  S    
C32   H42   S    
C156  C165  A    
C164  O25   A    
C28   C179  A    
C131  O21   A    
C5    H24   S    
C46   H6    S    
C1    C163  S    
C111  C190  A    
C142  O44   A    
C153  C169  S    
C89   C189  S    
C96   H52   S    
C74   C186  A    
O19   Zn8   S    
C68   C80   A    
C114  C193  A    
C36   C125  A    
C112  C133  A    
C38   C127  A    
C35   C81   A    
C95   C98   A    
C92   C98   A    
C5    C138  A    
C83   C92   A    
C47   O41   A    
C66   C69   A    
C30   C119  A    
C28   C107  S    
C165  C173  A    
C159  C168  A    
C6    C15   A    
C26   C34   A    
C39   O27   A    
C113  C136  A    
C13   C86   A    
C114  C135  A    
C52   C68   A    
C6    H25   S    
C31   H41   S    
C46   C54   A    
O26   Zn6   S    
O27   Zn3   S    
C43   O31   A    
C44   O32   A    
C22   C31   A    
C35   C55   A    
O9    Zn1   S    
C7    H26   S    
C11   C145  A    
C171  C175  S    
C29   C180  A    
C84   C110  A    
C49   C58   A    
C89   C97   A    
O31   Zn12  S    
C99   H4    S    
C33   H43   S    
C53   C62   A    
C42   O37   A    
C138  C147  A    
C55   C64   A    
C44   O43   A    
C109  O19   A    
O11   Zn6   S    
O42   Zn2   S    
C161  C170  A    
C171  C180  A    
O41   Zn2   S    
C140  C193  A    
C48   C56   A    
C131  O34   A    
C102  N2    T    
C97   H2    S    
C43   O42   A    
C53   C73   A    
C20   C130  A    
C43   C149  S    
C157  C166  A    
C178  C195  A    
C22   C102  S    
C151  C160  A    
C24   C84   A    
C117  C196  A    
O2    Zn8   S    
C71   C75   A    
C25   C176  A    
C185  O5    A    
C182  O10   A    
C94   C99   A    
C44   C148  S    
C141  C194  A    
C42   C150  S    
C2    C80   A    
C169  C178  A    
C157  H16   S    
C116  C128  A    
C25   C33   A    
C33   C123  A    
C40   O39   A    
C70   C72   A    
C16   C135  A    
C122  C130  A    
C188  O16   A    
C167  C176  A    
O13   Zn7   S    
