data_mof_unit_18530.cif
_audit_creation_date              2012-12-10T19:01:22-0500
_audit_creation_method            fapswitch 2.2
_symmetry_space_group_name_H-M    P1
_symmetry_Int_Tables_number       1
_space_group_crystal_system       triclinic
_cell_length_a                    9.581126
_cell_length_b                    10.864155
_cell_length_c                    15.548059
_cell_angle_alpha                 88.355432
_cell_angle_beta                  74.050315
_cell_angle_gamma                 88.781148
_cell_volume                      1555.31533421

loop_
_atom_site_label
_atom_site_type_symbol
_atom_type_description
_atom_site_fract_x
_atom_site_fract_y
_atom_site_fract_z
_atom_type_partial_charge
C1    C     C_R   0.001417 0.262441 0.499061 0.837663
C2    C     C_R   0.675161 0.486487 0.908869 0.084579
C3    C     C_R   0.770899 0.531776 0.955381 0.161835
C4    C     C_R   0.529086 0.458230 0.956719 0.057908
C5    C     C_R   0.476772 0.488413 0.048494 0.071474
C6    C     C_R   0.576246 0.534536 0.091701 -0.203543
C7    C     C_R   0.720424 0.554242 0.046278 -0.150843
C8    C     C_R   0.434648 0.398772 0.916350 -0.191678
C9    C     C_R   0.293154 0.371353 0.963629 -0.177583
C10   C     C_R   0.237754 0.402069 0.053523 0.067690
C11   C     C_R   0.328162 0.467114 0.095117 0.089339
C12   C     C_R   0.917844 0.500252 0.671974 0.818599
C13   C     C_R   0.093566 0.371082 0.102972 -0.021806
C14   C     C_R   0.040425 0.410247 0.191141 -0.241528
C15   C     C_R   0.267237 0.508500 0.182477 -0.240378
C16   C     C_R   0.132636 0.060826 0.473795 0.112559
C17   C     C_R   0.003999 0.129719 0.490532 -0.113220
C18   C     C_R   0.875740 0.069785 0.490008 -0.256026
C19   C     C_R   0.872456 0.941847 0.485510 -0.009294
C20   C     C_R   0.000153 0.871456 0.483873 -0.175095
C21   C     C_R   0.130536 0.934398 0.470228 0.116746
C22   C     C_3   0.251348 0.917570 0.513028 -0.471522
C23   C     C_R   0.999839 0.737734 0.496053 0.804988
C24   C     C_3   0.251532 0.056708 0.519094 -0.397004
C25   C     C_R   0.598996 0.570604 0.439224 0.333456
C26   C     C_R   0.548060 0.442524 0.566191 -0.112659
C27   C     C_R   0.399595 0.442338 0.567165 0.039278
C28   C     C_R   0.451889 0.571064 0.439448 0.234414
C29   C     C_3   0.491361 0.562919 0.340374 -0.531771
C30   C     C_3   0.649499 0.561824 0.340101 -0.469681
C31   C     C_R   0.081996 0.497254 0.328122 0.799662
C32   C     C_R   0.871693 0.503930 0.770104 -0.049891
C33   C     C_R   0.127459 0.476735 0.231369 -0.069451
C34   C     C_R   0.916235 0.555932 0.910239 -0.183305
C35   C     C_R   0.966353 0.542023 0.818123 -0.186680
C36   C     C_R   0.728115 0.475045 0.815544 -0.226938
Cu1   Cu    Cu3+1 0.140670 0.499980 0.500000 0.979166
Cu2   Cu    Cu3+1 0.859330 0.500020 0.500000 0.973314
H1    H     H_    0.792846 0.588124 0.082702 0.154366
H2    H     H_    0.775864 0.121854 0.495779 0.180606
H3    H     H_    0.217373 0.869504 0.579468 0.210163
H4    H     H_    0.351020 0.879759 0.465746 0.209275
H5    H     H_    0.214584 0.086633 0.589407 0.246895
H6    H     H_    0.353079 0.099261 0.477412 0.207958
H7    H     H_    0.583606 0.393215 0.618086 0.162078
H8    H     H_    0.458283 0.474585 0.317940 0.225531
H9    H     H_    0.325783 0.566927 0.214511 0.138399
H10   H     H_    0.458681 0.647880 0.308921 0.196534
H11   H     H_    0.705290 0.472830 0.318095 0.209819
H12   H     H_    0.708418 0.645174 0.307413 0.230600
H13   H     H_    0.933678 0.382009 0.230539 0.176621
H14   H     H_    0.227340 0.327122 0.927777 0.183021
H15   H     H_    0.990263 0.588550 0.945950 0.145018
H16   H     H_    0.077302 0.565801 0.784117 0.185104
H17   H     H_    0.658263 0.448459 0.775848 0.155284
H18   H     H_    0.547797 0.552255 0.161808 0.152955
H19   H     H_    0.468341 0.367405 0.848624 0.174372
N1    N     N_R   0.648210 0.500930 0.499430 -0.207662
N2    N     N_R   0.352300 0.500890 0.499430 -0.229924
O1    O     O_R   0.118810 0.319640 0.500000 -0.536566
O2    O     O_R   0.881230 0.319680 0.499990 -0.597475
O3    O     O_R   0.055580 0.499970 0.629840 -0.568663
O4    O     O_R   0.818000 0.500010 0.629830 -0.589015
O5    O     O_R   0.118770 0.680320 0.500010 -0.583724
O6    O     O_R   0.881190 0.680360 0.500000 -0.554476
O7    O     O_R   0.182000 0.499990 0.370170 -0.587611
O8    O     O_R   0.944420 0.500030 0.370160 -0.586760
C37   C     C_2   0.997662 0.290523 0.069034 0.819285
O9    O     O_2   0.047929 0.202545 0.022654 -0.593484
O10   O     O_R   0.847462 0.310735 0.095505 -0.772973
H20   H     H_    0.793008 0.249616 0.069215 0.344069
C38   C     C_2   0.731749 0.887755 0.487415 0.871377
O11   O     O_2   0.717931 0.834841 0.422009 -0.621388
O12   O     O_R   0.613999 0.900707 0.563143 -0.758463
H21   H     H_    0.524550 0.857162 0.557573 0.323306
C39   C     C_2   0.301418 0.379855 0.644920 0.865996
O13   O     O_2   0.221359 0.299137 0.635123 -0.595430
O14   O     O_R   0.306361 0.409232 0.730824 -0.813743
H22   H     H_    0.234054 0.360391 0.778729 0.325953

loop_
_geom_bond_atom_site_label_1
_geom_bond_atom_site_label_2
_ccdc_geom_bond_type
C8    C9    A    
C31   O7    A    
C16   C21   A    
C19   C20   A    
C15   H9    S    
C4    C8    A    
C14   C33   A    
Cu1   O3    S    
C25   C28   A    
C31   O8    A    
C26   C27   A    
Cu1   Cu2   S    
C32   C36   A    
C28   C29   S    
C39   O14   S    
C5    C11   A    
C3    C7    A    
C5    C6    A    
C22   H3    S    
C18   C19   A    
C34   C35   A    
C18   H2    S    
C26   H7    S    
Cu2   N1    S    
C11   C15   A    
C37   O9    D    
C20   C23   S    
O10   H20   S    
C9    C10   A    
C38   O11   D    
Cu2   O2    S    
C30   H12   S    
C16   C24   S    
C13   C14   A    
C12   C32   S    
C35   H16   S    
C19   C38   S    
C9    H14   S    
O12   H21   S    
C29   H10   S    
C32   C35   A    
C39   O13   D    
C38   O12   S    
C1    O1    A    
C12   O4    A    
O14   H22   S    
C16   C17   A    
C3    C34   A    
C2    C4    A    
C29   C30   S    
C8    H19   S    
C12   O3    A    
C14   H13   S    
Cu2   O6    S    
Cu1   O7    S    
C31   C33   S    
C17   C18   A    
C20   C21   A    
C26   N1    A    
Cu1   N2    S    
C23   O5    A    
C30   H11   S    
C24   H6    S    
C22   C24   S    
C25   N1    A    
C27   C39   S    
Cu1   O5    S    
Cu2   O4    S    
C28   N2    A    
C2    C36   A    
C25   C30   S    
C6    H18   S    
C4    C5    A    
C10   C13   A    
C1    O2    A    
C6    C7    A    
C1    C17   S    
C29   H8    S    
C23   O6    A    
C2    C3    A    
C36   H17   S    
C27   N2    A    
C22   H4    S    
Cu1   O1    S    
C10   C11   A    
Cu2   O8    S    
C34   H15   S    
C37   O10   S    
C24   H5    S    
C7    H1    S    
C21   C22   S    
C15   C33   A    
C13   C37   S    
