data_mof_unit_9216.cif
_audit_creation_date              2012-10-26T19:59:10-0400
_audit_creation_method            fapswitch 2.2
_symmetry_space_group_name_H-M    P1
_symmetry_Int_Tables_number       1
_space_group_crystal_system       triclinic
_cell_length_a                    7.454361
_cell_length_b                    8.677521
_cell_length_c                    15.757826
_cell_angle_alpha                 94.311052
_cell_angle_beta                  75.417748
_cell_angle_gamma                 103.170167
_cell_volume                      960.348468871

loop_
_atom_site_label
_atom_site_type_symbol
_atom_type_description
_atom_site_fract_x
_atom_site_fract_y
_atom_site_fract_z
_atom_type_partial_charge
C1    C     C_R   0.545087 0.800119 0.502623 0.549859
C2    C     C_R   0.614284 0.505950 0.333902 0.547401
C3    C     C_R   0.324699 0.519776 0.760703 -0.044249
C4    C     C_R   0.675293 0.480213 0.239298 -0.044254
C5    C     C_R   0.202182 0.691562 0.878645 0.267041
C6    C     C_R   0.797747 0.308384 0.121365 0.267046
C7    C     C_R   0.214761 0.631290 0.793103 -0.109523
C8    C     C_R   0.785204 0.368679 0.206900 -0.109520
C9    C     C_R   0.414301 0.461340 0.815068 -0.148211
C10   C     C_R   0.585684 0.538646 0.184934 -0.148194
C11   C     C_R   0.404286 0.518005 0.901946 -0.022697
C12   C     C_R   0.454913 0.199881 0.497377 0.549860
C13   C     C_R   0.595644 0.481944 0.098065 -0.022694
C14   C     C_R   0.299659 0.637547 0.932687 0.049000
C15   C     C_R   0.700253 0.362388 0.067327 0.048997
C16   C     C_R   0.502037 0.464691 0.957497 0.009576
C17   C     C_R   0.497869 0.535243 0.042520 0.009579
C18   C     C_3   0.922110 0.763600 0.935591 -0.117627
C19   C     C_3   0.077793 0.236313 0.064394 -0.117621
C20   C     C_R   0.396745 0.657168 0.069066 -0.157763
C21   C     C_R   0.603127 0.342744 0.930957 -0.157772
C22   C     C_R   0.298239 0.705234 0.015858 -0.124001
C23   C     C_R   0.701634 0.294676 0.984163 -0.124003
C24   C     C_2   0.570423 0.968123 0.503889 -0.152857
C25   C     C_2   0.429577 0.031877 0.496111 -0.152856
C26   C     C_R   0.385716 0.494049 0.666098 0.547401
Cu1   Cu    Cu3+1 0.322120 0.483240 0.490330 0.956919
Cu2   Cu    Cu3+1 0.677880 0.516760 0.509670 0.956916
H1    H     H_    0.222373 0.798484 0.040184 0.160614
H2    H     H_    0.293922 0.960349 0.488789 0.135381
H3    H     H_    0.004019 0.615844 0.568974 0.237855
H4    H     H_    0.995981 0.384155 0.431026 0.237856
H5    H     H_    0.857272 0.696737 0.883686 0.129155
H6    H     H_    0.854643 0.866306 0.956140 0.168611
H7    H     H_    0.892000 0.689474 0.994111 0.133051
H8    H     H_    0.145241 0.133593 0.043869 0.168622
H9    H     H_    0.142675 0.303229 0.116275 0.129158
H10   H     H_    0.107874 0.310382 0.005852 0.133045
H11   H     H_    0.777473 0.201407 0.959842 0.160611
H12   H     H_    0.498952 0.620962 0.214960 0.127487
H13   H     H_    0.501077 0.379056 0.785038 0.127490
H14   H     H_    0.847485 0.317763 0.250214 0.128067
H15   H     H_    0.152485 0.682209 0.749789 0.128062
H16   H     H_    0.391659 0.720548 0.130642 0.119206
H17   H     H_    0.608170 0.279339 0.869390 0.119209
H18   H     H_    0.706079 0.039650 0.511211 0.135381
N1    N     N_2   0.945180 0.542040 0.524240 -0.256187
N2    N     N_2   0.054820 0.457960 0.475760 -0.256186
O1    O     O_R   0.384450 0.714270 0.493720 -0.506831
O2    O     O_3   0.881085 0.179937 0.095781 -0.586537
O3    O     O_R   0.615550 0.285730 0.506280 -0.506831
O4    O     O_R   0.684880 0.742590 0.510050 -0.494057
O5    O     O_R   0.315120 0.257410 0.489950 -0.494056
O6    O     O_R   0.265540 0.477900 0.617090 -0.503369
O7    O     O_R   0.734460 0.522100 0.382910 -0.503368
O8    O     O_R   0.565970 0.506210 0.633420 -0.495328
O9    O     O_R   0.434030 0.493790 0.366580 -0.495323
O10   O     O_3   0.118820 0.819994 0.904235 -0.586543

loop_
_geom_bond_atom_site_label_1
_geom_bond_atom_site_label_2
_ccdc_geom_bond_type
Cu1   N2    S    
C2    C4    S    
Cu1   O5    S    
Cu2   N1    S    
C16   C21   A    
C3    C9    A    
C19   H10   S    
C7    H15   S    
C9    C11   A    
C11   C16   A    
C9    H13   S    
N1    N2    D    
C13   C17   A    
C12   C25   S    
C4    C8    A    
C24   H18   S    
C14   C22   A    
C15   C23   A    
Cu2   O8    S    
Cu1   O6    S    
H3    N1    S    
C6    O2    S    
C18   H6    S    
C19   O2    S    
C5    C14   A    
H4    N2    S    
C22   H1    S    
C1    O1    A    
C5    O10   S    
C23   H11   S    
C26   O6    A    
C1    O4    A    
Cu2   O7    S    
C20   C22   A    
C6    C8    A    
C3    C7    A    
C21   H17   S    
C2    O7    A    
C13   C15   A    
C21   C23   A    
Cu1   O9    S    
Cu2   O3    S    
C11   C14   A    
C2    O9    A    
C18   H5    S    
C4    C10   A    
Cu1   O1    S    
Cu1   Cu2   S    
C12   O3    A    
C24   C25   D    
C1    C24   S    
C10   H12   S    
C18   H7    S    
C25   H2    S    
C5    C7    A    
Cu2   O4    S    
C19   H9    S    
C20   H16   S    
C6    C15   A    
C19   H8    S    
C17   C20   A    
C18   O10   S    
C3    C26   S    
C12   O5    A    
C8    H14   S    
C16   C17   A    
C10   C13   A    
C26   O8    A    
