data_mof_unit_41920.cif
_audit_creation_date              2012-10-26T20:01:49-0400
_audit_creation_method            fapswitch 2.2
_symmetry_space_group_name_H-M    P1
_symmetry_Int_Tables_number       1
_space_group_crystal_system       triclinic
_cell_length_a                    11.706141
_cell_length_b                    10.859437
_cell_length_c                    9.588401
_cell_angle_alpha                 91.075989
_cell_angle_beta                  89.992579
_cell_angle_gamma                 92.768366
_cell_volume                      1217.26012321

loop_
_atom_site_label
_atom_site_type_symbol
_atom_type_description
_atom_site_fract_x
_atom_site_fract_y
_atom_site_fract_z
_atom_type_partial_charge
C1    C     C_R   0.506824 0.262960 0.499038 0.544037
C2    C     C_R   0.477149 0.872135 0.509523 -0.049749
C3    C     C_R   0.654767 0.661782 0.147112 -0.064816
C4    C     C_R   0.284072 0.499450 0.500007 0.546166
C5    C     C_R   0.732751 0.737860 0.076244 -0.172635
C6    C     C_R   0.733448 0.736701 0.932576 -0.170744
C7    C     C_R   0.655322 0.660437 0.859008 -0.093342
C8    C     C_R   0.575934 0.579345 0.926818 0.100999
C9    C     C_R   0.575697 0.579692 0.076334 0.142850
C10   C     C_R   0.429329 0.422645 0.072782 0.000339
C11   C     C_R   0.427041 0.423650 0.923518 0.379891
C12   C     C_R   0.615131 0.073162 0.858229 -0.117612
C13   C     C_R   0.490225 0.737325 0.502300 0.512768
C14   C     C_R   0.715917 0.500275 0.500015 0.528845
C15   C     C_1   0.162364 0.499508 0.500081 -0.037420
C16   C     C_1   0.059887 0.499662 0.500146 -0.051653
C17   C     C_1   0.940088 0.499936 0.500131 -0.046834
C18   C     C_1   0.837614 0.500148 0.500064 -0.029724
C19   C     C_R   0.608036 0.127115 0.728281 -0.073364
C20   C     C_3   0.243419 0.334551 0.891518 -0.006496
C21   C     C_3   0.210725 0.206245 0.946673 -0.260547
C22   C     C_3   0.086000 0.196779 0.993303 -0.478071
C23   C     C_R   0.559515 0.959538 0.880328 -0.100838
C24   C     C_2   0.382891 0.871613 0.270176 0.226605
C25   C     C_R   0.507618 0.894089 0.768906 -0.090821
C26   C     C_R   0.510403 0.941882 0.632104 0.009082
C27   C     C_R   0.545042 0.066921 0.618442 0.026009
C28   C     C_R   0.511755 0.128923 0.498133 -0.037914
C29   C     C_R   0.462399 0.062848 0.385179 -0.125618
C30   C     C_R   0.445329 0.935094 0.388386 -0.014616
Cu1   Cu    Cu3+1 0.499990 0.499990 0.640660 0.970466
Cu2   Cu    Cu3+1 0.500010 0.500010 0.359340 0.918685
H1    H     H_    0.432467 0.111958 0.295862 0.173606
H2    H     H_    0.792452 0.799027 0.133533 0.120127
H3    H     H_    0.189544 0.350531 0.798786 0.164285
H4    H     H_    0.222538 0.407311 0.969974 0.101265
H5    H     H_    0.224050 0.136008 0.863126 0.189604
H6    H     H_    0.266348 0.185687 0.036316 0.179116
H7    H     H_    0.071395 0.264325 0.079173 0.154034
H8    H     H_    0.064867 0.102558 0.031704 0.159380
H9    H     H_    0.028493 0.214754 0.904537 0.146919
H10   H     H_    0.340232 0.781739 0.283491 0.142211
H11   H     H_    0.793145 0.797540 0.877421 0.125596
H12   H     H_    0.659613 0.670981 0.749346 0.188285
H13   H     H_    0.651574 0.216262 0.715145 0.136260
H14   H     H_    0.660000 0.121625 0.943065 0.116067
H15   H     H_    0.558293 0.920868 0.983514 0.171874
H16   H     H_    0.460485 0.809887 0.794598 0.161328
H17   H     H_    0.374117 0.358163 0.128825 0.116891
H18   H     H_    0.661044 0.671421 0.257140 0.186105
N1    N     N_R   0.501070 0.501210 0.147910 -0.272731
N2    N     N_R   0.501110 0.501290 0.852040 -0.236954
O1    O     O_R   0.499990 0.319640 0.618810 -0.447732
O2    O     O_2   0.375528 0.920572 0.157098 -0.551881
O3    O     O_R   0.500000 0.319660 0.381240 -0.509683
O4    O     O_R   0.337190 0.500000 0.618790 -0.462506
O5    O     O_R   0.337200 0.500030 0.381210 -0.505250
O6    O     O_R   0.500000 0.680340 0.618760 -0.537857
O7    O     O_R   0.500010 0.680360 0.381190 -0.529968
O8    O     O_R   0.662800 0.499970 0.618790 -0.524813
O9    O     O_R   0.662810 0.500000 0.381210 -0.509779
O10   O     O_3   0.359011 0.338630 0.847267 -0.527730

loop_
_geom_bond_atom_site_label_1
_geom_bond_atom_site_label_2
_ccdc_geom_bond_type
C4    O5    A    
Cu1   O8    S    
C1    C28   S    
C19   H13   S    
Cu2   N1    S    
C6    C7    A    
C3    C9    A    
Cu1   O4    S    
C19   C27   A    
C14   C18   S    
Cu2   O3    S    
C11   N2    A    
Cu1   Cu2   S    
C25   H16   S    
Cu1   N2    S    
C2    C30   A    
C11   O10   S    
C22   H8    S    
C5    H2    S    
C4    C15   S    
C17   C18   T    
C1    O3    A    
C7    C8    A    
C2    C26   A    
C7    H12   S    
Cu1   O1    S    
C24   H10   S    
C10   H17   S    
C12   C23   A    
C26   C27   A    
C29   C30   A    
Cu2   O5    S    
C13   O7    A    
C10   N1    A    
Cu1   O6    S    
C28   C29   A    
C3    H18   S    
C14   O9    A    
Cu2   O9    S    
C6    H11   S    
C23   C25   A    
C20   O10   S    
C5    C6    A    
C24   C30   S    
C22   H9    S    
C23   H15   S    
C10   C11   A    
C22   H7    S    
C24   O2    D    
C15   C16   T    
C20   H4    S    
C29   H1    S    
C27   C28   A    
C21   H5    S    
C20   C21   S    
C12   C19   A    
C12   H14   S    
C14   O8    A    
C2    C13   S    
C8    N2    A    
C16   C17   S    
C1    O1    A    
C13   O6    A    
Cu2   O7    S    
C25   C26   A    
C21   C22   S    
C20   H3    S    
C4    O4    A    
C21   H6    S    
C8    C9    A    
C3    C5    A    
C9    N1    A    
