data_mof_unit_37284.cif
_audit_creation_date              2012-12-11T15:49:02-0500
_audit_creation_method            fapswitch 2.2
_symmetry_space_group_name_H-M    P1
_symmetry_Int_Tables_number       1
_space_group_crystal_system       triclinic
_cell_length_a                    21.653209
_cell_length_b                    7.173767
_cell_length_c                    14.904611
_cell_angle_alpha                 89.380616
_cell_angle_beta                  106.432334
_cell_angle_gamma                 89.91312
_cell_volume                      2220.4879807

loop_
_atom_site_label
_atom_site_type_symbol
_atom_type_description
_atom_site_fract_x
_atom_site_fract_y
_atom_site_fract_z
_atom_type_partial_charge
O1    O     O_R   0.335860 0.638190 0.002110 -0.539218
O2    O     O_R   0.664140 0.361810 0.997890 -0.541197
O3    O     O_R   0.164140 0.138190 0.997890 -0.544930
O4    O     O_R   0.835860 0.861810 0.002110 -0.541721
O5    O     O_R   0.217530 0.305920 0.861960 -0.543719
O6    O     O_R   0.782470 0.694080 0.138040 -0.522998
O7    O     O_R   0.282470 0.805920 0.138040 -0.531842
O8    O     O_R   0.717530 0.194080 0.861960 -0.530114
C1    C     C_R   0.205724 0.477682 0.825920 0.731386
C2    C     C_R   0.793953 0.522012 0.174127 0.717038
C3    C     C_R   0.294472 0.975245 0.174334 0.736738
C4    C     C_R   0.706004 0.023940 0.825689 0.767612
O9    O     O_R   0.338690 0.308320 0.993240 -0.545456
O10   O     O_R   0.661310 0.691680 0.006760 -0.543745
O11   O     O_R   0.161310 0.808320 0.006760 -0.539442
O12   O     O_R   0.838690 0.191680 0.993240 -0.541115
O13   O     O_R   0.286170 0.140430 0.130100 -0.547026
O14   O     O_R   0.713830 0.859570 0.869900 -0.547978
O15   O     O_R   0.213830 0.640430 0.869900 -0.536596
O16   O     O_R   0.786170 0.359570 0.130100 -0.539540
C5    C     C_R   0.365354 0.477521 0.000334 0.702237
C6    C     C_R   0.634820 0.522515 0.001007 0.671978
C7    C     C_R   0.135404 0.978143 0.003891 0.705587
C8    C     C_R   0.864609 0.021828 0.996136 0.704055
O17   O     O_3   0.232630 0.472410 0.044750 -0.379904
O18   O     O_3   0.767370 0.527590 0.955250 -0.380928
O19   O     O_3   0.267370 0.972410 0.955250 -0.376810
O20   O     O_3   0.732630 0.027590 0.044750 -0.374424
V1    V     V_3+5 0.253220 0.196620 0.991700 1.394154
V2    V     V_3+5 0.746780 0.803380 0.008300 1.435287
V3    V     V_3+5 0.246780 0.696620 0.008300 1.421222
V4    V     V_3+5 0.753220 0.303380 0.991700 1.443176
C9    C     C_R   0.024852 0.844173 0.966566 -0.145284
C10   C     C_R   0.975208 0.155636 0.033607 -0.142726
C11   C     C_R   0.460266 0.358338 0.954552 -0.148892
C12   C     C_R   0.540211 0.641957 0.048860 -0.154245
H1    H     H_    0.043012 0.723216 0.938951 0.148672
H2    H     H_    0.957063 0.276528 0.061299 0.141947
H3    H     H_    0.429764 0.248921 0.916324 0.149521
H4    H     H_    0.570774 0.751489 0.086828 0.147102
C13   C     C_R   0.959359 0.850531 0.962085 0.204998
C14   C     C_R   0.040734 0.149101 0.038260 0.203522
C15   C     C_R   0.524479 0.366286 0.952480 0.199305
C16   C     C_R   0.475890 0.634002 0.051133 0.219407
C17   C     C_R   0.933506 0.008640 0.996130 -0.145992
C18   C     C_R   0.066536 0.991214 0.003987 -0.151097
C19   C     C_R   0.565722 0.509798 0.000248 -0.148000
C20   C     C_R   0.434658 0.490534 0.002793 -0.144879
C21   C     C_R   0.678316 0.016415 0.723688 -0.042841
C22   C     C_R   0.322372 0.971421 0.276418 -0.083947
C23   C     C_R   0.820587 0.506856 0.275981 -0.062508
C24   C     C_R   0.177148 0.486167 0.724319 -0.085012
C25   C     C_R   0.690165 0.044142 0.567672 -0.193044
C26   C     C_R   0.319592 0.830409 0.423385 -0.227479
C27   C     C_R   0.811807 0.407658 0.427460 -0.166483
C28   C     C_R   0.188136 0.463319 0.567841 -0.206771
C29   C     C_R   0.717846 0.042810 0.664561 0.144367
C30   C     C_R   0.288368 0.879252 0.331049 0.166523
C31   C     C_R   0.782987 0.436785 0.332208 0.156145
C32   C     C_R   0.216402 0.463301 0.664599 0.173804
C33   C     C_R   0.611791 0.985247 0.686623 0.083094
C34   C     C_R   0.387458 0.021668 0.316094 0.065590
C35   C     C_R   0.886281 0.547304 0.315660 0.100370
C36   C     C_R   0.109807 0.507009 0.687518 0.073489
C37   C     C_R   0.584100 0.971838 0.587583 0.041250
C38   C     C_R   0.421667 0.952312 0.406816 0.082728
C39   C     C_R   0.917475 0.491060 0.409928 0.038293
C40   C     C_R   0.080388 0.482557 0.590100 0.081062
C41   C     C_R   0.624134 0.012847 0.529247 0.073281
C42   C     C_R   0.385576 0.861522 0.460607 0.063803
C43   C     C_R   0.877994 0.433264 0.466434 0.060821
C44   C     C_R   0.121094 0.472025 0.530541 0.057769
C45   C     C_R   0.518050 0.926879 0.543707 0.052460
C46   C     C_R   0.490071 0.967756 0.446662 0.085124
C47   C     C_R   0.985887 0.486050 0.450178 0.049652
C48   C     C_R   0.012258 0.468436 0.549177 0.088082
C49   C     C_R   0.532320 0.003559 0.391834 -0.135467
C50   C     C_R   0.480815 0.826201 0.590959 -0.197962
C51   C     C_R   0.970511 0.415698 0.602390 -0.127646
C52   C     C_R   0.028484 0.474030 0.394354 -0.198983
C53   C     C_R   0.598089 0.022406 0.432336 -0.193856
C54   C     C_R   0.415854 0.795530 0.550540 -0.170286
C55   C     C_R   0.904945 0.395991 0.561444 -0.194483
C56   C     C_R   0.094641 0.465579 0.433803 -0.172055
H5    H     H_    0.628752 0.047887 0.387241 0.145187
H6    H     H_    0.389122 0.718159 0.590039 0.132640
H7    H     H_    0.875100 0.349384 0.604625 0.131941
H8    H     H_    0.125384 0.452915 0.387985 0.126934
H9    H     H_    0.720278 0.070592 0.521892 0.125808
H10   H     H_    0.292567 0.759931 0.464788 0.127981
H11   H     H_    0.782348 0.359066 0.470898 0.132217
H12   H     H_    0.218503 0.451727 0.521427 0.117080
H13   H     H_    0.516646 0.003500 0.316557 0.177337
H14   H     H_    0.501870 0.759427 0.657532 0.140193
H15   H     H_    0.987962 0.371579 0.674482 0.166314
H16   H     H_    0.011509 0.456219 0.319835 0.141521
N1    N     N_3   0.920513 0.695698 0.919991 -0.655551
H17   H     H_    0.905886 0.622664 0.971412 0.251101
H18   H     H_    0.880266 0.745103 0.868258 0.228198
N2    N     N_3   0.079717 0.303213 0.081021 -0.666879
H19   H     H_    0.094512 0.376929 0.029949 0.250942
H20   H     H_    0.119861 0.252879 0.132695 0.235882
N3    N     N_3   0.545249 0.230401 0.897631 -0.659060
H21   H     H_    0.567123 0.299304 0.852573 0.245550
H22   H     H_    0.578259 0.140129 0.942151 0.260038
N4    N     N_3   0.454958 0.770510 0.105863 -0.681853
H23   H     H_    0.433349 0.702977 0.151642 0.225456
H24   H     H_    0.421709 0.859953 0.061216 0.244784
N5    N     N_3   0.416812 0.151057 0.266660 -0.680755
H25   H     H_    0.389868 0.274551 0.255148 0.245640
H26   H     H_    0.416031 0.095077 0.201876 0.227916
N6    N     N_3   0.573432 0.997780 0.750751 -0.696112
H27   H     H_    0.529086 0.062412 0.720150 0.260622
H28   H     H_    0.569148 0.866780 0.779628 0.232667
N7    N     N_3   0.072640 0.568673 0.747737 -0.681945
H29   H     H_    0.090036 0.698086 0.775171 0.241270
H30   H     H_    0.078494 0.473260 0.803113 0.212189
N8    N     N_3   0.916756 0.665684 0.262307 -0.668809
H31   H     H_    0.954422 0.742170 0.305393 0.247124
H32   H     H_    0.932182 0.585987 0.214373 0.213895
N9    N     N_3   0.221865 0.832732 0.291839 -0.674159
H33   H     H_    0.217254 0.688264 0.297262 0.232436
H34   H     H_    0.195451 0.895274 0.332351 0.228088
N10   N     N_3   0.785724 0.073722 0.703627 -0.671129
H35   H     H_    0.805896 0.950396 0.737505 0.210714
H36   H     H_    0.807667 0.097956 0.650509 0.227653
N11   N     N_3   0.285076 0.446329 0.702745 -0.676872
H37   H     H_    0.294647 0.316578 0.736515 0.227908
H38   H     H_    0.307535 0.445469 0.649181 0.225180
N12   N     N_3   0.715375 0.396937 0.295734 -0.662568
H39   H     H_    0.698174 0.426271 0.224264 0.212415
H40   H     H_    0.690439 0.486224 0.328415 0.228864

loop_
_geom_bond_atom_site_label_1
_geom_bond_atom_site_label_2
_ccdc_geom_bond_type
O17   V3    S    
C55   H7    S    
C31   N12   S    
O1    C5    A    
C27   C31   A    
O19   V1    S    
O13   V1    S    
C45   C46   A    
O3    C7    A    
C10   C14   A    
C48   C51   A    
C52   C56   A    
O4    V2    S    
O15   V3    S    
N6    H28   S    
N1    H17   S    
C21   C29   A    
O7    C3    A    
C8    C17   S    
C36   C40   A    
O9    V1    S    
C26   H10   S    
N5    H26   S    
O16   V4    S    
C11   H3    S    
O4    C8    A    
N4    H23   S    
C11   C20   A    
N7    H29   S    
C38   C46   A    
O1    V3    S    
C37   C45   A    
C12   C19   A    
O2    V4    S    
C14   C18   A    
O3    V1    S    
N8    H31   S    
C27   H11   S    
C24   C32   A    
C1    O15   A    
C2    O16   A    
C28   C44   A    
C46   C49   A    
O2    C6    A    
C45   C50   A    
O14   V2    S    
C52   H16   S    
C11   C15   A    
C47   C52   A    
O5    V1    S    
C23   C35   A    
C40   C44   A    
C5    C20   S    
O11   C7    A    
C6    C19   S    
C25   C41   A    
O12   C8    A    
C36   N7    S    
C9    C18   A    
C1    C24   S    
O10   V2    S    
C2    C23   S    
N6    H27   S    
N1    H18   S    
C53   H5    S    
C4    C21   S    
C43   C55   A    
C35   C39   A    
C21   C33   A    
C34   C38   A    
C22   C30   A    
C12   H4    S    
O7    V3    S    
C24   C36   A    
C35   N8    S    
C25   C29   A    
O18   V4    S    
N7    H30   S    
C54   H6    S    
C9    H1    S    
C28   C32   A    
O8    V4    S    
C51   H15   S    
N12   H40   S    
C47   C48   A    
N11   H38   S    
O5    C1    A    
C14   N2    S    
C50   C54   A    
C26   C42   A    
C49   C53   A    
O8    C4    A    
N2    H20   S    
O9    C5    A    
N3    H22   S    
C10   C17   A    
C40   C48   A    
N9    H33   S    
C44   C56   A    
O6    V2    S    
C25   H9    S    
C22   C34   A    
C13   N1    S    
C12   C16   A    
C23   C31   A    
N11   H37   S    
N10   H36   S    
C26   C30   A    
C3    O13   A    
C30   N9    S    
C10   H2    S    
C32   N11   S    
C56   H8    S    
C15   N3    S    
O6    C2    A    
O11   V3    S    
C16   N4    S    
O12   V4    S    
C9    C13   A    
O10   C6    A    
O20   V2    S    
N12   H39   S    
C3    C22   S    
N5    H25   S    
C29   N10   S    
C51   C55   A    
C38   C42   A    
C34   N5    S    
N4    H24   S    
C50   H14   S    
C37   C41   A    
C49   H13   S    
N2    H19   S    
C39   C43   A    
C42   C54   A    
N8    H32   S    
N9    H34   S    
C41   C53   A    
C33   C37   A    
C28   H12   S    
C39   C47   A    
C4    O14   A    
N3    H21   S    
C7    C18   S    
C13   C17   A    
C33   N6    S    
C15   C19   A    
C27   C43   A    
C16   C20   A    
N10   H35   S    
