data_mof_unit_59203.cif
_audit_creation_date              2012-12-10T16:59:13-0500
_audit_creation_method            fapswitch 2.2
_symmetry_space_group_name_H-M    P1
_symmetry_Int_Tables_number       1
_space_group_crystal_system       triclinic
_cell_length_a                    7.741043
_cell_length_b                    8.565704
_cell_length_c                    27.776381
_cell_angle_alpha                 90.778776
_cell_angle_beta                  85.570701
_cell_angle_gamma                 93.98686
_cell_volume                      1831.77487054

loop_
_atom_site_label
_atom_site_type_symbol
_atom_type_description
_atom_site_fract_x
_atom_site_fract_y
_atom_site_fract_z
_atom_type_partial_charge
C1    C     C_R   0.546150 0.794935 0.498713 0.976160
C2    C     C_R   0.527861 0.651322 0.125969 -0.026327
C3    C     C_R   0.502845 0.490165 0.646320 -0.158534
C4    C     C_R   0.497142 0.509795 0.353680 -0.158501
C5    C     C_R   0.536956 0.644102 0.024131 0.068412
C6    C     C_R   0.462897 0.355859 0.975871 0.068415
C7    C     C_R   0.451080 0.360452 0.026963 0.008409
C8    C     C_R   0.548781 0.639508 0.973040 0.008403
C9    C     C_R   0.498548 0.503589 0.050557 0.057867
C10   C     C_R   0.501315 0.496370 0.949445 0.057866
C11   C     C_R   0.546808 0.786619 0.050030 -0.138249
C12   C     C_R   0.453850 0.205065 0.501287 0.976156
C13   C     C_R   0.453032 0.213341 0.949973 -0.138250
C14   C     C_R   0.546841 0.790345 0.099934 -0.104606
C15   C     C_R   0.453002 0.209614 0.900069 -0.104613
C16   C     C_R   0.501413 0.498009 0.593869 0.922967
C17   C     C_R   0.498585 0.501981 0.406132 0.922981
C18   C     C_R   0.612960 0.769716 0.943841 0.105646
C19   C     C_R   0.386912 0.230243 0.056162 0.105640
C20   C     C_2   0.570369 0.958578 0.497951 -0.335361
C21   C     C_2   0.429630 0.041422 0.502048 -0.335352
C22   C     C_R   0.519346 0.625643 0.822064 0.537522
C23   C     C_R   0.499934 0.491970 0.898541 -0.051198
C24   C     C_R   0.480591 0.374305 0.177935 0.537515
C25   C     C_R   0.474028 0.347283 0.823603 0.530353
C26   C     C_R   0.525847 0.652669 0.176399 0.530352
C27   C     C_R   0.361151 0.409846 0.723862 -0.107203
C28   C     C_R   0.638768 0.590156 0.276136 -0.107191
C29   C     C_R   0.363401 0.409611 0.673783 0.123468
C30   C     C_R   0.636540 0.590396 0.326215 0.123421
C31   C     C_R   0.641730 0.564285 0.670035 0.122876
C32   C     C_R   0.358291 0.435598 0.329971 0.122832
C33   C     C_R   0.641056 0.555400 0.719898 -0.098887
C34   C     C_R   0.499943 0.507986 0.101460 -0.051201
C35   C     C_R   0.358937 0.444474 0.280108 -0.098872
C36   C     C_R   0.499448 0.482210 0.747062 0.204186
C37   C     C_R   0.500493 0.517731 0.252940 0.204164
C38   C     C_R   0.531068 0.630537 0.871964 -0.051683
C39   C     C_R   0.468836 0.369416 0.128036 -0.051668
C40   C     C_R   0.588461 0.768109 0.894837 -0.153244
C41   C     C_R   0.411439 0.231845 0.105164 -0.153239
C42   C     C_R   0.472004 0.348634 0.874033 -0.026328
H1    H     H_    0.012860 0.376085 0.465998 0.218460
H2    H     H_    0.441063 0.097032 0.881975 0.199016
H3    H     H_    0.545463 0.897475 0.032456 0.178626
H4    H     H_    0.454366 0.102484 0.967547 0.178626
H5    H     H_    0.703024 0.010297 0.494025 0.190921
H6    H     H_    0.296975 0.989703 0.505975 0.190921
H7    H     H_    0.987140 0.623918 0.534000 0.218463
H8    H     H_    0.748793 0.610569 0.737931 0.184473
H9    H     H_    0.251219 0.389250 0.262079 0.184499
H10   H     H_    0.632720 0.870492 0.873656 0.207918
H11   H     H_    0.367189 0.129459 0.126346 0.207906
H12   H     H_    0.748218 0.647266 0.255084 0.186318
H13   H     H_    0.251668 0.352779 0.744912 0.186299
H14   H     H_    0.558773 0.902925 0.118028 0.199016
I1    I     I_    0.849387 0.706689 0.635376 -0.276842
I2    I     I_    0.150745 0.293091 0.364640 -0.276860
I3    I     I_    0.845623 0.723502 0.356287 -0.242141
I4    I     I_    0.154281 0.276566 0.643706 -0.242155
I5    I     I_    0.805354 0.946664 0.962217 -0.333455
I6    I     I_    0.194493 0.053309 0.037792 -0.333449
N1    N     N_R   0.494965 0.484998 0.798701 -0.346555
N2    N     N_R   0.504951 0.514949 0.201300 -0.346550
N3    N     N_2   0.950320 0.457960 0.486880 -0.153304
N4    N     N_2   0.049680 0.542040 0.513120 -0.153296
O1    O     O_R   0.389250 0.738570 0.503220 -0.615608
O2    O     O_2   0.467184 0.239401 0.202978 -0.515537
O3    O     O_2   0.541702 0.790443 0.200377 -0.515314
O4    O     O_2   0.458144 0.209509 0.799626 -0.515316
O5    O     O_R   0.610750 0.261430 0.496780 -0.615610
O6    O     O_R   0.678390 0.711630 0.494810 -0.618687
O7    O     O_R   0.321610 0.288370 0.505190 -0.618682
O8    O     O_R   0.355440 0.513440 0.575450 -0.587622
O9    O     O_R   0.644560 0.486560 0.424550 -0.587634
O10   O     O_R   0.644590 0.486500 0.567040 -0.606409
O11   O     O_R   0.355410 0.513500 0.432960 -0.606417
O12   O     O_2   0.532806 0.760541 0.797018 -0.515531
Zn1   Zn    Zn3+2 0.306940 0.517990 0.505620 1.013206
Zn2   Zn    Zn3+2 0.693060 0.482010 0.494380 1.013202

loop_
_geom_bond_atom_site_label_1
_geom_bond_atom_site_label_2
_ccdc_geom_bond_type
C14   H14   S    
C27   C29   A    
C32   I2    S    
C24   C39   A    
C39   C41   A    
N4    Zn1   S    
C23   C42   A    
C16   O8    A    
C35   C37   A    
C15   H2    S    
C5    C11   A    
C13   H4    S    
C11   C14   A    
C27   H13   S    
C19   I6    S    
C22   C38   A    
C33   C36   A    
C25   N1    A    
C3    C29   A    
C26   N2    A    
C18   C40   A    
C22   N1    A    
C31   C33   A    
C36   N1    S    
O9    Zn2   S    
C21   H6    S    
C2    C34   A    
C24   N2    A    
N3    Zn2   S    
C12   O7    A    
O5    Zn2   S    
O11   Zn1   S    
C1    O6    A    
H7    N4    S    
C34   C39   A    
C32   C35   A    
O1    Zn1   S    
C22   O12   S    
C28   H12   S    
C33   H8    S    
C40   H10   S    
C12   C21   S    
C8    C18   A    
C5    C9    A    
C29   I4    S    
H1    N3    S    
C30   I3    S    
C17   O11   A    
O7    Zn1   S    
C2    C26   A    
C3    C31   A    
C41   H11   S    
C4    C32   A    
C4    C17   S    
C12   O5    A    
C7    C19   A    
O8    Zn1   S    
C13   C15   A    
C35   H9    S    
C9    C34   A    
C10   C23   A    
C11   H3    S    
C37   N2    S    
C7    C9    A    
C1    C20   S    
C16   O10   A    
O10   Zn2   S    
C15   C42   A    
C25   C42   A    
C6    C10   A    
C5    C8    A    
C18   I5    S    
C6    C7    A    
C27   C36   A    
C23   C38   A    
C31   I1    S    
C28   C30   A    
O6    Zn2   S    
C6    C13   A    
C38   C40   A    
C28   C37   A    
C1    O1    A    
C2    C14   A    
C20   H5    S    
C24   O2    S    
C20   C21   D    
C8    C10   A    
N3    N4    D    
C17   O9    A    
C26   O3    S    
C25   O4    S    
C4    C30   A    
C3    C16   S    
C19   C41   A    
