data_mof_unit_49790.cif
_audit_creation_date              2012-12-10T17:40:56-0500
_audit_creation_method            fapswitch 2.2
_symmetry_space_group_name_H-M    P1
_symmetry_Int_Tables_number       1
_space_group_crystal_system       triclinic
_cell_length_a                    14.792061
_cell_length_b                    15.411475
_cell_length_c                    9.917088
_cell_angle_alpha                 89.533107
_cell_angle_beta                  90.874779
_cell_angle_gamma                 90.240083
_cell_volume                      2260.41630847

loop_
_atom_site_label
_atom_site_type_symbol
_atom_type_description
_atom_site_fract_x
_atom_site_fract_y
_atom_site_fract_z
_atom_type_partial_charge
C1    C     C_R   0.379649 0.880833 0.499519 0.812219
C2    C     C_R   0.384351 0.124072 0.499709 0.827875
C3    C     C_R   0.879652 0.380830 0.499519 0.812217
C4    C     C_R   0.884352 0.624073 0.499709 0.827885
C5    C     C_R   0.267474 0.206954 0.384712 -0.221595
C6    C     C_R   0.232649 0.825971 0.444865 -0.202556
C7    C     C_R   0.767477 0.706957 0.384710 -0.221596
C8    C     C_R   0.732660 0.325960 0.444832 -0.202547
C9    C     C_R   0.694676 0.761453 0.388582 -0.220376
C10   C     C_R   0.669654 0.260689 0.445748 -0.217651
C11   C     C_R   0.194672 0.261450 0.388584 -0.220374
C12   C     C_R   0.169644 0.760699 0.445782 -0.217656
C13   C     C_R   0.669974 0.798277 0.510209 -0.110294
C14   C     C_R   0.692297 0.180070 0.500799 -0.080163
C15   C     C_R   0.169971 0.298275 0.510212 -0.110280
C16   C     C_R   0.192295 0.680073 0.500799 -0.080155
C17   C     C_R   0.335067 0.002384 0.136762 -0.164500
C18   C     C_R   0.835067 0.502383 0.136762 -0.164506
C19   C     C_R   0.253596 0.004767 0.064945 -0.196491
C20   C     C_R   0.753596 0.504766 0.064945 -0.196498
C21   C     C_R   0.253366 0.004461 0.925309 -0.182869
C22   C     C_R   0.753366 0.504459 0.925309 -0.182871
C23   C     C_R   0.334612 0.001781 0.856644 -0.136728
C24   C     C_R   0.834612 0.501780 0.856644 -0.136726
C25   C     C_R   0.418561 0.000988 0.925996 0.170542
C26   C     C_R   0.918561 0.500988 0.925996 0.170546
C27   C     C_R   0.418670 0.001124 0.070578 0.170881
C28   C     C_R   0.918670 0.501124 0.070578 0.170881
C29   C     C_R   0.577888 0.999403 0.073237 -0.062419
C30   C     C_R   0.077888 0.499404 0.073237 -0.062412
C31   C     C_R   0.622095 0.117504 0.500369 0.965908
C32   C     C_R   0.613358 0.874246 0.502320 0.968986
C33   C     C_R   0.122094 0.617506 0.500369 0.965919
C34   C     C_R   0.113356 0.374246 0.502320 0.969021
C35   C     C_R   0.577859 0.999308 0.930140 -0.024515
C36   C     C_R   0.077859 0.499309 0.930140 -0.024515
C37   C     C_R   0.354629 0.232902 0.739992 -0.084358
C38   C     C_R   0.434051 0.711731 0.591563 -0.100770
C39   C     C_R   0.854632 0.732907 0.739989 -0.084451
C40   C     C_R   0.934045 0.211734 0.591611 -0.100777
C41   C     C_R   0.321424 0.253404 0.866029 -0.279354
C42   C     C_R   0.458860 0.631309 0.643338 -0.300475
C43   C     C_R   0.821425 0.753401 0.866027 -0.279263
C44   C     C_R   0.958845 0.131319 0.643424 -0.300455
C45   C     C_R   0.730502 0.774356 0.879964 -0.032850
C46   C     C_R   0.895355 0.064618 0.652035 -0.059361
C47   C     C_R   0.230503 0.274363 0.879967 -0.032882
C48   C     C_R   0.395373 0.564603 0.651933 -0.059346
C49   C     C_R   0.675395 0.783024 0.763761 0.637921
C50   C     C_R   0.806389 0.078626 0.603812 0.592691
C51   C     C_R   0.175394 0.283027 0.763765 0.637886
C52   C     C_R   0.306401 0.578617 0.603743 0.592695
C53   C     C_R   0.712469 0.772090 0.633380 -0.019901
C54   C     C_R   0.780068 0.161353 0.552268 -0.075491
C55   C     C_R   0.212466 0.272088 0.633383 -0.019886
C56   C     C_R   0.280072 0.661351 0.552236 -0.075497
C57   C     C_R   0.297141 0.233114 0.624600 0.044184
C58   C     C_R   0.344555 0.728337 0.548588 0.014849
C59   C     C_R   0.797145 0.733118 0.624596 0.044114
C60   C     C_R   0.844553 0.228339 0.548615 0.014838
C61   C     C_R   0.319656 0.193252 0.501366 -0.082028
C62   C     C_R   0.318353 0.810269 0.498177 -0.026261
C63   C     C_R   0.819660 0.693255 0.501363 -0.082027
C64   C     C_R   0.818357 0.310265 0.498176 -0.026273
H1    H     H_    0.282794 0.175800 0.290253 0.164014
H2    H     H_    0.214312 0.889247 0.404571 0.130178
H3    H     H_    0.782798 0.675803 0.290251 0.164013
H4    H     H_    0.714328 0.389232 0.404514 0.130186
H5    H     H_    0.189812 0.005719 0.869664 0.144254
H6    H     H_    0.689812 0.505718 0.869664 0.144261
H7    H     H_    0.328761 0.000050 0.749603 0.199341
H8    H     H_    0.828761 0.500049 0.749603 0.199344
H9    H     H_    0.641497 0.998406 0.877810 0.172786
H10   H     H_    0.141497 0.498408 0.877810 0.172744
H11   H     H_    0.425866 0.218146 0.733972 0.168136
H12   H     H_    0.485834 0.760560 0.584092 0.182336
H13   H     H_    0.925869 0.718151 0.733968 0.168132
H14   H     H_    0.985831 0.260560 0.584127 0.182345
H15   H     H_    0.366323 0.250196 0.953288 0.150966
H16   H     H_    0.528108 0.621295 0.677102 0.173094
H17   H     H_    0.866322 0.750190 0.953287 0.150963
H18   H     H_    0.028089 0.121309 0.677207 0.173108
H19   H     H_    0.657736 0.775567 0.296325 0.201545
H20   H     H_    0.602297 0.273426 0.405705 0.143291
H21   H     H_    0.157733 0.275564 0.296327 0.201543
H22   H     H_    0.102281 0.773440 0.405763 0.143276
H23   H     H_    0.641568 0.998609 0.128331 0.147885
H24   H     H_    0.141569 0.498611 0.128331 0.147880
H25   H     H_    0.329940 0.001382 0.243743 0.200382
H26   H     H_    0.829940 0.501382 0.243743 0.200383
H27   H     H_    0.190247 0.006261 0.118142 0.154067
H28   H     H_    0.690247 0.506259 0.118142 0.154067
N1    N     N_R   0.498810 0.000000 0.142780 -0.123787
N2    N     N_R   0.998810 0.500000 0.142780 -0.123786
N3    N     N_R   0.498740 0.000000 0.857170 -0.117407
N4    N     N_R   0.998740 0.500000 0.857170 -0.117403
O1    O     O_R   0.408390 0.908380 0.614690 -0.617029
O2    O     O_R   0.408390 0.091620 0.614690 -0.665587
O3    O     O_R   0.908390 0.408380 0.614690 -0.617033
O4    O     O_R   0.908390 0.591620 0.614690 -0.665576
O5    O     O_R   0.408370 0.908380 0.385360 -0.629719
O6    O     O_R   0.408370 0.091620 0.385360 -0.647974
O7    O     O_R   0.908370 0.408380 0.385360 -0.629722
O8    O     O_R   0.908370 0.591620 0.385360 -0.647978
O9    O     O_R   0.591620 0.091610 0.614640 -0.596824
O10   O     O_R   0.591620 0.908390 0.614640 -0.522277
O11   O     O_R   0.091620 0.591610 0.614640 -0.596844
O12   O     O_R   0.091620 0.408390 0.614640 -0.522294
O13   O     O_R   0.591610 0.091610 0.385310 -0.623771
O14   O     O_R   0.591610 0.908390 0.385310 -0.616236
O15   O     O_R   0.091610 0.591610 0.385310 -0.623761
O16   O     O_R   0.091610 0.408390 0.385310 -0.616226
Zn1   Zn    Zn3+2 0.500010 0.000000 0.653130 1.003606
Zn2   Zn    Zn3+2 0.000010 0.500000 0.653130 1.003595
Zn3   Zn    Zn3+2 0.499980 0.000000 0.346870 0.960616
Zn4   Zn    Zn3+2 0.999980 0.500000 0.346870 0.960621
C65   C     C_2   0.695793 0.788363 0.016868 0.405609
H29   H     H_    0.742931 0.790075 0.101596 0.031652
O17   O     O_2   0.615239 0.797716 0.037148 -0.519669
C66   C     C_2   0.924236 0.980894 0.711721 0.445797
H30   H     H_    0.995163 0.969482 0.735186 0.025209
O18   O     O_2   0.869359 0.924395 0.738240 -0.539182
C67   C     C_2   0.195796 0.288374 0.016871 0.405589
H31   H     H_    0.242935 0.290091 0.101597 0.031662
O19   O     O_2   0.115241 0.297724 0.037153 -0.519667
C68   C     C_2   0.424267 0.480867 0.711565 0.445778
H32   H     H_    0.495195 0.469461 0.735034 0.025211
O20   O     O_2   0.369400 0.424349 0.738032 -0.539170
F1    F     F_    0.585040 0.792721 0.779577 -0.647653
F2    F     F_    0.747803 0.010839 0.604000 -0.662647
F3    F     F_    0.085040 0.292728 0.779585 -0.647660
F4    F     F_    0.247813 0.510830 0.603930 -0.662643

loop_
_geom_bond_atom_site_label_1
_geom_bond_atom_site_label_2
_ccdc_geom_bond_type
C58   C62   A    
C18   C28   A    
C42   H16   S    
C68   H32   S    
C40   C60   A    
C31   O13   A    
C34   O16   A    
C13   C32   S    
C33   O11   A    
C14   C31   S    
C1    C62   S    
O3    Zn2   S    
C53   C59   A    
C67   H31   S    
C38   H12   S    
C3    C64   S    
C20   H28   S    
C4    C63   S    
C50   C54   A    
C6    H2    S    
C32   O14   A    
C17   H25   S    
C38   C58   A    
C39   H13   S    
O9    Zn1   S    
C19   C21   A    
C24   C26   A    
C5    C11   A    
C44   H18   S    
C65   O17   D    
C6    C12   A    
C67   O19   D    
C2    O6    A    
C3    O7    A    
C28   N2    A    
N1    Zn3   S    
C18   H26   S    
O12   Zn2   S    
C9    C13   A    
O6    Zn3   S    
C50   F2    S    
O8    Zn4   S    
C11   C15   A    
C12   C16   A    
C66   O18   D    
C40   C44   A    
O15   Zn4   S    
C33   O15   A    
C15   C34   S    
C51   C55   A    
C2    C61   S    
C48   C68   S    
C37   H11   S    
C32   O10   A    
C31   O9    A    
N4    Zn2   S    
N3    Zn1   S    
C44   C46   A    
C60   C64   A    
C13   C53   A    
C21   C23   A    
C26   N4    A    
O10   Zn1   S    
C46   C66   S    
C52   F4    S    
C23   H7    S    
O4    Zn2   S    
O5    Zn3   S    
C5    H1    S    
C10   C14   A    
C1    O1    A    
N2    Zn4   S    
O2    Zn1   S    
C39   C43   A    
C49   F1    S    
C21   H5    S    
C17   C27   A    
C30   C36   A    
C16   C56   A    
O11   Zn2   S    
C16   C33   S    
C36   N4    A    
C47   C67   S    
C45   C49   A    
C39   C59   A    
C41   C47   A    
C5    C61   A    
C42   C48   A    
C43   C45   A    
C7    C63   A    
C36   H10   S    
C9    H19   S    
C40   H14   S    
C14   C54   A    
C8    C64   A    
C25   N3    A    
C55   C57   A    
C43   H17   S    
C22   C24   A    
C27   N1    A    
C30   H24   S    
C1    O5    A    
O16   Zn4   S    
C66   H30   S    
C24   H8    S    
C45   C65   S    
C7    C9    A    
C46   C50   A    
C35   H9    S    
C68   O20   D    
C59   C63   A    
C20   C22   A    
C41   H15   S    
C47   C51   A    
C57   C61   A    
C35   N3    A    
C25   C27   A    
C29   C35   A    
C26   C28   A    
C12   H22   S    
C54   C60   A    
C34   O12   A    
C6    C62   A    
C8    H4    S    
C4    O4    A    
O7    Zn4   S    
C30   N2    A    
C65   H29   S    
C29   N1    A    
C11   H21   S    
C49   C53   A    
C4    O8    A    
C10   H20   S    
C17   C19   A    
C56   C58   A    
C18   C20   A    
C23   C25   A    
C37   C41   A    
C29   H23   S    
C19   H27   S    
O13   Zn3   S    
C7    H3    S    
C38   C42   A    
C3    O3    A    
C48   C52   A    
C2    O2    A    
C8    C10   A    
C51   F3    S    
O1    Zn1   S    
O14   Zn3   S    
C22   H6    S    
C37   C57   A    
C52   C56   A    
C15   C55   A    
