data_mof_unit_58666.cif
_audit_creation_date              2012-12-10T17:16:40-0500
_audit_creation_method            fapswitch 2.2
_symmetry_space_group_name_H-M    P1
_symmetry_Int_Tables_number       1
_space_group_crystal_system       triclinic
_cell_length_a                    10.154685
_cell_length_b                    10.701918
_cell_length_c                    10.87983
_cell_angle_alpha                 90.235588
_cell_angle_beta                  94.184105
_cell_angle_gamma                 81.959793
_cell_volume                      1167.59628982

loop_
_atom_site_label
_atom_site_type_symbol
_atom_type_description
_atom_site_fract_x
_atom_site_fract_y
_atom_site_fract_z
_atom_type_partial_charge
Br1   Br    Br    0.886183 0.375617 0.296076 -0.482073
Br2   Br    Br    0.114004 0.628938 0.701471 -0.512529
C1    C     C_R   0.444914 0.506032 0.268031 0.957238
C2    C     C_R   0.507025 0.735553 0.525778 0.884160
C3    C     C_R   0.706381 0.062182 0.405215 0.042501
C4    C     C_R   0.306822 0.895473 0.668103 0.066786
C5    C     C_R   0.834343 0.991826 0.417331 -0.174052
C6    C     C_R   0.179775 0.962688 0.670731 -0.191822
C7    C     C_R   0.863566 0.895404 0.505488 -0.193749
C8    C     C_R   0.159843 0.088905 0.637759 -0.210744
C9    C     C_R   0.759963 0.857300 0.567491 0.048767
C10   C     C_R   0.270995 0.148021 0.617849 0.028630
C11   C     C_R   0.629322 0.919079 0.542281 0.030656
C12   C     C_R   0.555365 0.488321 0.732019 0.920592
C13   C     C_R   0.389824 0.074793 0.578004 0.026768
C14   C     C_R   0.608838 0.037003 0.485701 0.005717
C15   C     C_R   0.403138 0.943691 0.601416 0.016028
C16   C     C_R   0.517147 0.865308 0.567346 -0.232264
C17   C     C_R   0.494541 0.122218 0.515564 -0.202205
C18   C     C_1   0.670187 0.139477 0.296210 0.242083
C19   C     C_1   0.348972 0.803784 0.764315 0.237595
C20   C     C_1   0.787773 0.771891 0.671382 0.179855
C21   C     C_1   0.275677 0.254797 0.697783 0.229563
C22   C     C_2   0.414410 0.501845 0.137336 -0.349969
C23   C     C_2   0.587420 0.472689 0.862574 -0.333558
C24   C     C_2   0.514449 0.471087 0.065816 -0.125236
C25   C     C_2   0.487950 0.474730 0.935365 -0.124438
C26   C     C_2   0.073923 0.489752 0.489990 0.006425
C27   C     C_2   0.931324 0.494740 0.519190 -0.010030
C28   C     C_R   0.497684 0.258144 0.500615 0.857151
H1    H     H_    0.066464 0.144417 0.658903 0.165098
H2    H     H_    0.110951 0.433508 0.413676 0.171281
H3    H     H_    0.964648 0.847768 0.521494 0.182182
H4    H     H_    0.911209 0.012093 0.359378 0.173866
H5    H     H_    0.102536 0.924256 0.715940 0.181187
H6    H     H_    0.384438 0.489413 0.899492 0.230746
H7    H     H_    0.617500 0.448905 0.102905 0.226356
H8    H     H_    0.690984 0.460906 0.899234 0.177296
H9    H     H_    0.311665 0.524234 0.099523 0.176232
H10   H     H_    0.898198 0.539723 0.602138 0.174216
N1    N     N_2   0.157300 0.551390 0.551120 -0.011914
N2    N     N_2   0.842700 0.448610 0.448880 -0.004743
N3    N     N_1   0.640577 0.200262 0.208216 -0.177770
N4    N     N_1   0.382862 0.734017 0.844844 -0.180993
N5    N     N_1   0.806780 0.705763 0.756637 -0.169139
N6    N     N_1   0.275516 0.338454 0.765023 -0.159684
O1    O     O_R   0.568940 0.489660 0.307530 -0.571848
O2    O     O_R   0.431060 0.510340 0.692470 -0.580314
O3    O     O_R   0.348880 0.522640 0.340350 -0.619594
O4    O     O_R   0.651120 0.477360 0.659650 -0.632800
O5    O     O_R   0.610030 0.300280 0.483580 -0.592524
O6    O     O_R   0.389970 0.699720 0.516420 -0.590939
O7    O     O_R   0.389970 0.333270 0.516400 -0.629725
O8    O     O_R   0.610030 0.666730 0.483600 -0.610161
Zn1   Zn    Zn3+2 0.646940 0.477980 0.478080 1.021931
Zn2   Zn    Zn3+2 0.353060 0.522020 0.521920 1.013910

loop_
_geom_bond_atom_site_label_1
_geom_bond_atom_site_label_2
_ccdc_geom_bond_type
C7    H3    S    
C28   O5    A    
C3    C5    A    
N1    Zn2   S    
C25   H6    S    
C23   C25   D    
C19   N4    T    
C7    C9    A    
C26   N1    D    
C9    C20   S    
O4    Zn1   S    
C10   C13   A    
C2    C16   S    
C5    C7    A    
C18   N3    T    
C15   C16   A    
C1    O3    A    
C17   C28   S    
C24   H7    S    
C21   N6    T    
C13   C17   A    
C9    C11   A    
C10   C21   S    
C24   C25   S    
C12   O4    A    
C8    C10   A    
C11   C16   A    
C2    O6    A    
C14   C17   A    
C4    C6    A    
C27   H10   S    
O1    Zn1   S    
C26   C27   S    
C5    H4    S    
C22   C24   D    
C27   N2    D    
O5    Zn1   S    
C12   C23   S    
N2    Zn1   S    
C28   O7    A    
C3    C18   S    
O7    Zn2   S    
Br2   N1    S    
O3    Zn2   S    
C23   H8    S    
Br1   N2    S    
C26   H2    S    
C22   H9    S    
O2    Zn2   S    
C20   N5    T    
C11   C14   A    
C1    O1    A    
C13   C15   A    
C4    C15   A    
O8    Zn1   S    
C3    C14   A    
C12   O2    A    
C2    O8    A    
C4    C19   S    
C8    H1    S    
C6    C8    A    
O6    Zn2   S    
C1    C22   S    
C6    H5    S    
