data_mof_unit_67637.cif
_audit_creation_date              2012-12-10T18:57:09-0500
_audit_creation_method            fapswitch 2.2
_symmetry_space_group_name_H-M    P1
_symmetry_Int_Tables_number       1
_space_group_crystal_system       triclinic
_cell_length_a                    8.696938
_cell_length_b                    11.046942
_cell_length_c                    9.757939
_cell_angle_alpha                 87.38273
_cell_angle_beta                  94.708076
_cell_angle_gamma                 99.931952
_cell_volume                      919.849933271

loop_
_atom_site_label
_atom_site_type_symbol
_atom_type_description
_atom_site_fract_x
_atom_site_fract_y
_atom_site_fract_z
_atom_type_partial_charge
C1    C     C_R   0.510407 0.264724 0.503825 0.895458
C2    C     C_R   0.562150 0.954370 0.387540 0.408162
C3    C     C_R   0.501844 0.873529 0.495268 -0.225475
C4    C     C_R   0.454794 0.928630 0.609035 -0.029690
C5    C     C_3   0.492433 0.903175 0.758658 -0.079296
C6    C     C_3   0.564571 0.040557 0.766116 0.333509
C7    C     C_R   0.634914 0.534428 0.078207 0.173304
C8    C     C_R   0.379288 0.427258 0.072878 0.365140
C9    C     C_R   0.374961 0.431679 0.921315 0.345710
C10   C     C_R   0.633488 0.533292 0.934635 0.193428
C11   C     C_3   0.761975 0.637581 0.920624 -0.497075
C12   C     C_R   0.204816 0.498279 0.466791 0.940972
C13   C     C_3   0.764102 0.645914 0.076660 -0.069066
C14   C     C_R   0.501898 0.738171 0.497965 0.805325
C15   C     C_R   0.795311 0.508135 0.532032 0.838536
C16   C     C_2   0.037605 0.481057 0.452683 -0.333549
C17   C     C_2   0.961830 0.530947 0.541028 -0.275731
C18   C     C_R   0.485853 0.056185 0.622376 0.080871
C19   C     C_R   0.527787 0.134365 0.509902 -0.228691
C20   C     C_R   0.562195 0.081084 0.391172 -0.200374
Cu1   Cu    Cu3+1 0.499990 0.499980 0.640670 1.022015
Cu2   Cu    Cu3+1 0.500010 0.500020 0.359330 1.070111
H1    H     H_    0.975823 0.425094 0.369892 0.189070
H2    H     H_    0.866260 0.607951 0.883385 0.210279
H3    H     H_    0.725847 0.717250 0.863040 0.183517
H4    H     H_    0.728212 0.730902 0.101805 0.286920
H5    H     H_    0.021941 0.593240 0.617335 0.178861
H6    H     H_    0.599415 0.139638 0.303786 0.241232
H7    H     H_    0.578137 0.841756 0.782481 0.170214
N1    N     N_R   0.500980 0.500930 0.148050 -0.272199
N2    N     N_R   0.500990 0.500890 0.852140 -0.281091
O1    O     O_R   0.500000 0.319640 0.618810 -0.551751
O2    O     O_R   0.500020 0.319680 0.381230 -0.513647
O3    O     O_R   0.274830 0.499980 0.591380 -0.500425
O4    O     O_R   0.274850 0.500020 0.353800 -0.543534
O5    O     O_R   0.499980 0.680320 0.618770 -0.617844
O6    O     O_R   0.500000 0.680360 0.381190 -0.502767
O7    O     O_R   0.725150 0.499980 0.646200 -0.584792
O8    O     O_R   0.725170 0.500020 0.408620 -0.596618
S1    S     S_3+6 0.196114 0.355956 0.826053 0.110097
O9    O     O_2   0.226428 0.303083 0.694357 -0.216230
O10   O     O_2   0.093962 0.250525 0.892872 -0.168784
O11   O     O_3   0.083126 0.463297 0.798239 -0.573945
H8    H     H_    0.065986 0.488384 0.891045 0.335293
C21   C     C_3   0.921187 0.627703 0.151153 -0.352515
C22   C     C_3   0.049116 0.739401 0.131465 -0.755036
H9    H     H_    0.057617 0.765255 0.021247 0.250853
H10   H     H_    0.023592 0.819563 0.184612 0.298370
H11   H     H_    0.163688 0.718047 0.175384 0.252458
H12   H     H_    0.906728 0.616905 0.261995 0.255552
H13   H     H_    0.958800 0.544161 0.115754 0.236264
S2    S     S_3+6 0.663656 0.905129 0.259610 -0.017465
O12   O     O_2   0.542676 0.836590 0.159681 -0.308005
O13   O     O_2   0.759759 0.010754 0.185976 -0.256004
O14   O     O_3   0.783637 0.812437 0.333070 -0.589816
H14   H     H_    0.855586 0.864290 0.399284 0.330211
C23   C     C_3   0.337699 0.858942 0.829241 -0.313121
C24   C     C_3   0.253753 0.734435 0.781501 -0.808965
H15   H     H_    0.234923 0.735453 0.667855 0.256022
H16   H     H_    0.322401 0.662709 0.818552 0.285664
H17   H     H_    0.137445 0.712761 0.823367 0.218135
H18   H     H_    0.362057 0.851191 0.942032 0.273109
H19   H     H_    0.253748 0.923344 0.805873 0.251852
S3    S     S_3+6 0.494733 0.121337 0.897170 0.042766
O15   O     O_2   0.330716 0.135881 0.853330 -0.231003
O16   O     O_2   0.493721 0.048851 0.030368 -0.197124
O17   O     O_3   0.607394 0.258559 0.926909 -0.516757
H20   H     H_    0.641465 0.292069 0.836897 0.352170
C25   C     C_3   0.747775 0.065973 0.777119 -0.345018
C26   C     C_3   0.831604 0.004241 0.674474 -0.876657
H21   H     H_    0.794798 0.903156 0.674962 0.228665
H22   H     H_    0.813206 0.043605 0.569357 0.258810
H23   H     H_    0.959541 0.022941 0.703190 0.292368
H24   H     H_    0.789779 0.166205 0.765083 0.240676
H25   H     H_    0.789241 0.037135 0.882417 0.275310
S4    S     S_3+6 0.232690 0.313053 0.155657 0.096575
O18   O     O_2   0.074879 0.346636 0.113675 -0.321778
O19   O     O_2   0.243995 0.190433 0.100701 -0.171315
O20   O     O_3   0.226424 0.281512 0.324994 -0.514152
H26   H     H_    0.133414 0.216695 0.334646 0.363450

loop_
_geom_bond_atom_site_label_1
_geom_bond_atom_site_label_2
_ccdc_geom_bond_type
C7    C10   A    
O14   H14   S    
C6    C25   S    
C19   C20   A    
S4    O20   S    
C1    O2    A    
C23   H18   S    
Cu1   O5    S    
C21   C22   S    
Cu2   O4    S    
Cu1   N2    S    
C22   H11   S    
S4    O19   D    
C14   O5    A    
C5    C6    S    
C21   H13   S    
C24   H16   S    
C11   H2    S    
C8    S4    S    
C18   C19   A    
C6    S3    S    
C10   N2    A    
S1    O11   S    
Cu1   O7    S    
C12   C16   S    
C8    C9    A    
C26   H21   S    
S2    O14   S    
C4    C18   A    
C24   H17   S    
S1    O10   D    
C7    N1    A    
Cu1   Cu2   S    
S2    O13   D    
C23   H19   S    
C5    H7    S    
C6    C18   S    
Cu1   O1    S    
C22   H10   S    
C1    C19   S    
C2    C20   A    
O17   H20   S    
C17   H5    S    
S3    O17   S    
S4    O18   D    
C16   C17   D    
Cu1   O3    S    
C20   H6    S    
C24   H15   S    
Cu2   O6    S    
C1    O1    A    
S3    O16   D    
O11   H8    S    
C15   O7    A    
C26   H23   S    
C25   H24   S    
C12   O4    A    
C15   O8    A    
C3    C14   S    
C2    S2    S    
S1    O9    D    
C16   H1    S    
C13   H4    S    
C12   O3    A    
C3    C4    A    
S2    O12   D    
C15   C17   S    
Cu2   O2    S    
C22   H9    S    
Cu2   N1    S    
C4    C5    S    
C5    C23   S    
C8    N1    A    
S3    O15   D    
C2    C3    A    
C14   O6    A    
C13   C21   S    
C11   C13   S    
C23   C24   S    
C21   H12   S    
Cu2   O8    S    
C25   H25   S    
C9    S1    S    
C25   C26   S    
C10   C11   S    
C9    N2    A    
O20   H26   S    
C7    C13   S    
C11   H3    S    
C26   H22   S    
