data_mof_unit_37815.cif
_audit_creation_date              2013-03-05T15:55:02-0500
_audit_creation_method            fapswitch 2.2
_symmetry_space_group_name_H-M    P1
_symmetry_Int_Tables_number       1
_space_group_crystal_system       triclinic
_cell_length_a                    11.689047
_cell_length_b                    12.413303
_cell_length_c                    13.241499
_cell_angle_alpha                 117.061894
_cell_angle_beta                  76.869706
_cell_angle_gamma                 101.387441
_cell_volume                      1656.4126056

loop_
_atom_site_label
_atom_site_type_symbol
_atom_site_description
_atom_site_fract_x
_atom_site_fract_y
_atom_site_fract_z
_atom_type_partial_charge
O1    O     O_R   0.533340 0.972510 0.318140 -0.551952
O2    O     O_R   0.488570 0.806530 0.359650 -0.609843
C1    C     C_R   0.505888 0.854850 0.287162 0.778117
O3    O     O_R   0.685190 0.083000 0.479260 -0.523530
O4    O     O_R   0.640410 0.917020 0.520770 -0.605881
C2    C     C_R   0.715677 0.999885 0.499595 0.820684
Cu1   Cu    Cu3+1 0.526510 0.098270 0.475420 1.054181
Cu2   Cu    Cu3+1 0.473490 0.901730 0.524580 0.943952
O5    O     O_R   0.511430 0.193470 0.640350 -0.528081
O6    O     O_R   0.466660 0.027490 0.681860 -0.597390
O7    O     O_R   0.359590 0.082980 0.479230 -0.520913
O8    O     O_R   0.314810 0.917000 0.520740 -0.594712
C3    C     C_R   0.483248 0.145073 0.713479 0.811723
C4    C     C_R   0.284320 0.000058 0.500325 0.822786
C5    C     C_1   0.837570 0.000023 0.499468 -0.118169
C6    C     C_1   0.940123 0.999919 0.499564 0.043297
C7    C     C_1   0.059940 0.999741 0.499863 0.037917
C8    C     C_1   0.162467 0.999724 0.500141 -0.131249
C9    C     C_R   0.360874 0.269268 0.028722 -0.099193
H1    H     H_    0.369574 0.090112 0.891902 0.160294
H2    H     H_    0.310694 0.233766 0.088539 0.201382
C10   C     C_R   0.460119 0.227776 0.835678 -0.044617
C11   C     C_R   0.548042 0.815997 0.081984 -0.137354
C12   C     C_R   0.560819 0.737514 0.966017 -0.139143
C13   C     C_R   0.530451 0.613200 0.930816 -0.140143
C14   C     C_R   0.480348 0.565024 0.011769 0.084711
C15   C     C_R   0.453419 0.647336 0.128649 0.014239
C16   C     C_R   0.453670 0.438007 0.979937 0.022745
C17   C     C_R   0.387558 0.395318 0.061542 0.065276
C18   C     C_R   0.347493 0.479532 0.173064 0.347284
C19   C     C_R   0.378358 0.603252 0.204683 -0.227520
C20   C     C_R   0.492983 0.352022 0.869207 -0.155721
C21   C     C_R   0.395755 0.186299 0.916320 -0.199693
C22   C     C_R   0.499692 0.771999 0.164961 -0.092631
H3    H     H_    0.549943 0.379505 0.806806 0.163028
H4    H     H_    0.576760 0.911401 0.106379 0.207618
H5    H     H_    0.542984 0.557946 0.839367 0.155818
H6    H     H_    0.597369 0.772944 0.902894 0.157930
H7    H     H_    0.338076 0.663987 0.288569 0.208982
C23   C     C_R   0.687816 0.345301 0.325877 0.233409
H8    H     H_    0.726189 0.548480 0.293809 0.207189
N1    N     N_R   0.566700 0.246290 0.438210 -0.288523
C24   C     C_R   0.331421 0.754859 0.634042 0.080203
C25   C     C_R   0.276968 0.648027 0.640955 -0.245234
C26   C     C_R   0.332297 0.542054 0.578774 -0.051091
C27   C     C_R   0.448079 0.543609 0.517570 0.065818
C28   C     C_R   0.492383 0.651146 0.501360 0.280313
C29   C     C_R   0.517508 0.441278 0.464547 -0.125113
C30   C     C_R   0.618275 0.443030 0.381457 -0.035502
C31   C     C_R   0.650973 0.544555 0.357471 -0.156589
C32   C     C_R   0.591787 0.646949 0.418262 -0.185887
C33   C     C_R   0.496905 0.340969 0.494519 0.438544
C34   C     C_R   0.660696 0.247933 0.355954 0.387821
N2    N     N_R   0.434010 0.754320 0.561170 -0.213486
H9    H     H_    0.286175 0.835965 0.678796 0.139848
H10   H     H_    0.278894 0.459076 0.573437 0.216320
H11   H     H_    0.189509 0.645979 0.690119 0.167306
H12   H     H_    0.625522 0.720136 0.394956 0.203386
Cl1   Cl    Cl    0.812531 0.343387 0.219942 -0.502318
Cl2   Cl    Cl    0.395145 0.344932 0.616602 -0.635727
Cl3   Cl    Cl    0.258317 0.435106 0.277531 -0.590887
N3    N     N_R   0.737541 0.154080 0.304779 0.180576
O9    O     O_R   0.836102 0.174772 0.343835 -0.301105
O10   O     O_R   0.730466 0.071980 0.200565 -0.353498

loop_
_geom_bond_atom_site_label_1
_geom_bond_atom_site_label_2
_geom_bond_distance
_ccdc_geom_bond_type
O4    Cu2   1.913962 S    
C12   H6    1.082883 S    
C11   C12   1.386171 A    
C17   C18   1.402604 A    
C34   N3    1.428874 S    
C4    C8    1.424088 S    
C24   N2    1.356740 A    
C14   C16   1.421888 A    
C29   C33   1.433090 A    
C25   H11   1.082597 S    
Cu2   O8    1.915547 S    
C11   C22   1.402485 A    
C30   C31   1.397882 A    
C7    C8    1.199318 T    
C13   C14   1.417533 A    
Cu1   Cu2   2.724832 S    
C15   C22   1.424440 A    
C23   Cl1   1.774177 S    
C26   C27   1.412234 A    
C12   C13   1.388874 A    
Cu1   O7    1.913962 S    
C18   C19   1.388824 A    
C14   C15   1.416040 A    
N3    O9    1.301425 A    
C10   C20   1.394226 A    
C24   C25   1.386653 A    
O3    Cu1   1.915547 S    
H1    C21   1.083159 S    
C24   H9    1.081441 S    
C16   C17   1.423221 A    
C9    H2    1.081714 S    
C19   H7    1.079115 S    
C3    C10   1.464447 S    
C31   C32   1.380363 A    
O2    C1    1.307552 A    
C28   N2    1.381925 A    
N1    C34   1.364411 A    
O4    C2    1.305266 A    
O7    C4    1.305369 A    
C27   C29   1.449785 A    
C9    C17   1.408741 A    
C18   Cl3   1.765284 S    
C15   C19   1.411844 A    
C5    C6    1.199300 T    
C11   H4    1.078769 S    
C20   H3    1.076692 S    
Cu1   O5    1.938077 S    
H8    C31   1.081530 S    
C16   C20   1.401369 A    
C25   C26   1.391101 A    
O3    C2    1.305960 A    
C23   C34   1.396167 A    
C9    C21   1.391951 A    
Cu1   N1    2.053607 S    
Cu2   N2    2.041495 S    
C32   H12   1.065114 S    
C10   C21   1.397733 A    
O5    C3    1.308962 A    
C27   C28   1.425971 A    
C29   C30   1.421707 A    
O2    Cu2   1.938077 S    
N3    O10   1.299489 A    
C33   Cl2   1.762865 S    
C1    C22   1.480166 S    
C13   H5    1.077772 S    
C2    C5    1.424095 S    
O1    Cu1   1.948366 S    
Cu2   O6    1.948364 S    
C28   C32   1.398007 A    
C23   C30   1.406877 A    
C26   H10   1.074956 S    
O8    C4    1.305985 A    
C6    C7    1.401894 S    
O1    C1    1.316826 A    
O6    C3    1.308576 A    
N1    C33   1.381199 A    
