data_mof_unit_23719.cif
_audit_creation_date              2012-12-11T16:56:20-0500
_audit_creation_method            fapswitch 2.2
_symmetry_space_group_name_H-M    P1
_symmetry_Int_Tables_number       1
_space_group_crystal_system       triclinic
_cell_length_a                    6.98188
_cell_length_b                    14.522763
_cell_length_c                    16.205216
_cell_angle_alpha                 90.463013
_cell_angle_beta                  89.915653
_cell_angle_gamma                 90.169523
_cell_volume                      1643.08456977

loop_
_atom_site_label
_atom_site_type_symbol
_atom_type_description
_atom_site_fract_x
_atom_site_fract_y
_atom_site_fract_z
_atom_type_partial_charge
O1    O     O_R   0.505830 0.583360 0.413880 -0.541947
O2    O     O_R   0.175830 0.595460 0.585520 -0.533423
O3    O     O_R   0.005520 0.416640 0.586120 -0.525306
C1    C     C_R   0.344705 0.617192 0.614545 0.727577
O4    O     O_R   0.176120 0.594390 0.414490 -0.531291
O5    O     O_R   0.005810 0.415570 0.413870 -0.518110
C2    C     C_R   0.345030 0.616296 0.386059 0.744069
O6    O     O_R   0.505540 0.584430 0.586130 -0.540067
O7    O     O_3   0.339200 0.441330 0.500000 -0.341641
V1    V     V_3+5 0.064350 0.510880 0.500000 1.629235
O8    O     O_R   0.676100 0.404540 0.414480 -0.542522
C3    C     C_R   0.845156 0.381312 0.386987 0.768052
O9    O     O_R   0.675810 0.405610 0.585510 -0.514908
C4    C     C_R   0.843855 0.382510 0.612786 0.835133
V2    V     V_3+5 0.564340 0.489120 0.500000 1.626992
O10   O     O_3   0.839360 0.558670 0.500000 -0.368814
C5    C     C_2   0.723036 0.202122 0.782887 -0.130744
C6    C     C_2   0.887352 0.178725 0.820601 -0.312128
H1    H     H_    0.590101 0.171593 0.804510 0.173517
H2    H     H_    0.024036 0.205424 0.800009 0.161440
C7    C     C_2   0.706175 0.265145 0.711160 0.293661
C8    C     C_2   0.854898 0.315839 0.681464 -0.263737
H3    H     H_    0.994843 0.310481 0.709582 0.148396
C9    C     C_R   0.736675 0.250496 0.188496 0.056082
C10   C     C_R   0.880691 0.183508 0.185305 -0.135213
C11   C     C_R   0.004897 0.178124 0.252953 -0.127617
H4    H     H_    0.096374 0.119072 0.257882 0.196787
C12   C     C_R   0.996282 0.241807 0.318868 0.396729
C13   C     C_R   0.857330 0.312552 0.319159 -0.177116
C14   C     C_R   0.727889 0.315344 0.253125 -0.014073
C15   C     C_3   0.515451 0.308127 0.259806 0.068743
C16   C     C_3   0.525414 0.233798 0.193055 0.384149
H5    H     H_    0.469737 0.282318 0.321001 0.179287
C17   C     C_R   0.505059 0.680427 0.742657 0.137459
C18   C     C_R   0.353144 0.681953 0.686029 -0.133681
C19   C     C_R   0.202971 0.744134 0.702529 -0.107760
H6    H     H_    0.081405 0.747352 0.661468 0.145892
C20   C     C_R   0.213780 0.807036 0.769211 -0.156463
H7    H     H_    0.099665 0.856470 0.777454 0.126800
C21   C     C_R   0.375942 0.810361 0.821094 -0.104653
C22   C     C_R   0.516818 0.743548 0.807790 0.108124
C23   C     C_3   0.727751 0.754407 0.798257 -0.427451
C24   C     C_3   0.715742 0.684484 0.727977 0.083930
H8    H     H_    0.807015 0.730043 0.853316 0.232361
H9    H     H_    0.767127 0.824619 0.777267 0.138447
H10   H     H_    0.752424 0.712891 0.666460 0.114399
C25   C     C_R   0.513425 0.743538 0.309457 0.089306
C26   C     C_R   0.353629 0.686183 0.319696 -0.111371
C27   C     C_R   0.201917 0.696341 0.263340 -0.027889
H11   H     H_    0.078414 0.651628 0.267076 0.160921
C28   C     C_R   0.213353 0.760294 0.198448 -0.135406
H12   H     H_    0.098418 0.764921 0.154702 0.172934
C29   C     C_R   0.378435 0.813594 0.185839 -0.078775
C30   C     C_R   0.528183 0.802739 0.242028 0.073779
C31   C     C_3   0.729250 0.773529 0.225375 -0.011314
C32   C     C_3   0.717514 0.715956 0.303203 0.156217
H13   H     H_    0.831655 0.832150 0.228427 0.157313
H14   H     H_    0.737876 0.640717 0.293625 0.137320
O11   O     O_R   0.229930 0.912420 0.917160 -0.549434
O12   O     O_R   0.559420 0.902500 0.088780 -0.522896
O13   O     O_R   0.729660 0.081330 0.089380 -0.517658
C33   C     C_R   0.390329 0.880133 0.116842 0.774411
O14   O     O_R   0.559650 0.901420 0.917750 -0.543730
O15   O     O_R   0.729880 0.080250 0.917130 -0.543210
C34   C     C_R   0.390492 0.879764 0.888705 0.696195
O16   O     O_R   0.229700 0.913500 0.089410 -0.547075
O17   O     O_3   0.396250 0.055540 0.003280 -0.342552
V3    V     V_3+5 0.671130 0.986010 0.003260 1.539186
O18   O     O_R   0.059600 0.091310 0.917720 -0.539676
C35   C     C_R   0.891492 0.112582 0.889302 0.755333
O19   O     O_R   0.059370 0.092380 0.088750 -0.518593
C36   C     C_R   0.890387 0.114334 0.117469 0.782433
V4    V     V_3+5 0.171120 0.007820 0.003230 1.546805
O20   O     O_3   0.896130 0.938240 0.003240 -0.379146
Br1   Br    Br    0.470137 0.111323 0.236268 -0.540917
Br2   Br    Br    0.837797 0.568562 0.754343 -0.502004
Br3   Br    Br    0.743154 0.695691 0.126293 -0.513636
Cl1   Cl    Cl    0.849434 0.763750 0.387742 -0.635405
Br4   Br    Br    0.452516 0.267139 0.663977 -0.489434
Cl2   Cl    Cl    0.142527 0.222086 0.405427 -0.585101
Br5   Br    Br    0.394831 0.424330 0.231207 -0.448306
Br6   Br    Br    0.398269 0.258640 0.088832 -0.387220

loop_
_geom_bond_atom_site_label_1
_geom_bond_atom_site_label_2
_ccdc_geom_bond_type
C6    C35   S    
C31   C32   S    
O14   C34   A    
C3    C13   S    
C22   C23   S    
C18   C19   A    
C1    O6    A    
C16   Br1   S    
C29   C30   A    
C11   H4    S    
O15   V3    S    
C19   H6    S    
O5    C3    A    
C20   H7    S    
C31   Br3   S    
V3    O20   S    
V2    O10   S    
C32   Cl1   S    
O12   C33   A    
C17   C18   A    
V4    O20   S    
O14   V3    S    
O8    V2    S    
C15   C16   S    
C27   C28   A    
C15   H5    S    
O18   V4    S    
O17   V4    S    
O15   C35   A    
O7    V1    S    
O11   V4    S    
C1    C18   S    
O9    C4    A    
C17   C22   A    
C23   H8    S    
C33   O16   A    
C28   H12   S    
C9    C10   A    
O19   V4    S    
C10   C11   A    
O16   V4    S    
C5    C7    S    
O17   V3    S    
C28   C29   A    
C23   H9    S    
O2    C1    A    
C9    C16   S    
C13   C14   A    
C29   C33   S    
C25   C26   A    
C7    Br4   S    
C5    C6    D    
C31   H13   S    
O3    C4    A    
C25   C30   A    
O1    V2    S    
O13   C36   A    
C21   C22   A    
O6    V2    S    
C21   C34   S    
O9    V2    S    
C23   C24   S    
O2    V1    S    
O4    C2    A    
C24   Br2   S    
C30   C31   S    
C12   C13   A    
O1    C2    A    
C17   C24   S    
O5    V1    S    
O8    C3    A    
C16   Br6   S    
C11   C12   A    
C15   Br5   S    
C2    C26   S    
C4    C8    S    
C19   C20   A    
O7    V2    S    
O4    V1    S    
O3    V1    S    
V1    O10   S    
O11   C34   A    
C20   C21   A    
O13   V3    S    
C14   C15   S    
C10   C36   S    
C26   C27   A    
C5    H1    S    
C32   H14   S    
C6    H2    S    
O18   C35   A    
C12   Cl2   S    
C24   H10   S    
C9    C14   A    
O19   C36   A    
O12   V3    S    
C27   H11   S    
C8    H3    S    
C7    C8    D    
C25   C32   S    
