data_mof_unit_35984.cif
_audit_creation_date              2012-12-10T17:23:10-0500
_audit_creation_method            fapswitch 2.2
_symmetry_space_group_name_H-M    P1
_symmetry_Int_Tables_number       1
_space_group_crystal_system       triclinic
_cell_length_a                    15.857403
_cell_length_b                    10.856042
_cell_length_c                    9.582374
_cell_angle_alpha                 90.170349
_cell_angle_beta                  90.0239
_cell_angle_gamma                 92.551743
_cell_volume                      1647.94935237

loop_
_atom_site_label
_atom_site_type_symbol
_atom_type_description
_atom_site_fract_x
_atom_site_fract_y
_atom_site_fract_z
_atom_type_partial_charge
C1    C     C_R   0.506240 0.262911 0.500681 0.798447
C2    C     C_3   0.083429 0.513890 0.500541 0.155489
C3    C     C_3   0.972622 0.567847 0.615664 -0.193666
C4    C     C_3   0.917371 0.507813 0.500389 0.173501
C5    C     C_3   0.029490 0.628018 0.501545 0.049066
C6    C     C_3   0.972661 0.568844 0.386260 -0.193844
C7    C     C_1   0.174910 0.508041 0.500224 -0.090866
C8    C     C_1   0.825589 0.504643 0.500268 -0.072609
C9    C     C_R   0.546874 0.119621 0.758895 -0.161406
C10   C     C_R   0.533554 0.060520 0.886349 -0.160331
C11   C     C_R   0.491320 0.945869 0.890051 -0.137518
C12   C     C_R   0.339904 0.499840 0.499964 0.831832
C13   C     C_R   0.470279 0.885093 0.765704 -0.160983
C14   C     C_R   0.492163 0.938274 0.634714 0.090844
C15   C     C_R   0.517940 0.064012 0.632443 0.095640
C16   C     C_R   0.512767 0.128830 0.504187 -0.121035
C17   C     C_R   0.502262 0.063302 0.378930 -0.216004
C18   C     C_R   0.494831 0.936070 0.379661 -0.219513
C19   C     C_R   0.490064 0.871857 0.506118 -0.116112
C20   C     C_R   0.611134 0.665740 0.144695 -0.150137
C21   C     C_R   0.664706 0.747618 0.072642 -0.222799
C22   C     C_R   0.664808 0.747418 0.928903 -0.194961
C23   C     C_R   0.494649 0.737389 0.501234 0.776335
C24   C     C_R   0.611256 0.665453 0.856363 -0.134436
C25   C     C_R   0.554536 0.581569 0.925425 0.193285
C26   C     C_R   0.554493 0.581611 0.075106 0.206773
C27   C     C_R   0.448430 0.421989 0.073633 -0.068098
C28   C     C_R   0.448451 0.422025 0.925639 -0.068237
C29   C     C_R   0.660121 0.500558 0.500057 0.804611
C30   C     C_3   0.970494 0.392979 0.499413 -0.145998
C31   C     C_3   0.027464 0.453942 0.385580 -0.166257
C32   C     C_1   0.250306 0.503431 0.500005 -0.193001
C33   C     C_1   0.749934 0.502463 0.500160 -0.182478
C34   C     C_3   0.027450 0.452947 0.614377 -0.168276
Cu1   Cu    Cu3+1 0.499990 0.499990 0.640660 0.920145
Cu2   Cu    Cu3+1 0.500010 0.500010 0.359340 0.930315
H1    H     H_    0.050818 0.407163 0.290922 0.134935
H2    H     H_    0.476576 0.902552 0.989245 0.136629
H3    H     H_    0.434579 0.798568 0.774885 0.167325
H4    H     H_    0.491826 0.888061 0.280375 0.165802
H5    H     H_    0.406200 0.358035 0.128700 0.137463
H6    H     H_    0.617450 0.672477 0.254636 0.200459
H7    H     H_    0.706898 0.811188 0.129090 0.149548
H8    H     H_    0.706945 0.810991 0.872836 0.149690
H9    H     H_    0.617264 0.672377 0.746449 0.200244
H10   H     H_    0.406272 0.358047 0.870015 0.145126
H11   H     H_    0.945057 0.296062 0.498553 0.122805
H12   H     H_    0.949084 0.616183 0.292414 0.134473
H13   H     H_    0.949012 0.614430 0.710295 0.134590
H14   H     H_    0.050789 0.405392 0.708222 0.134890
H15   H     H_    0.500099 0.110291 0.279491 0.162058
H16   H     H_    0.581875 0.207245 0.761137 0.165149
H17   H     H_    0.553995 0.105242 0.982470 0.135004
N1    N     N_R   0.500800 0.501210 0.147910 -0.197479
N2    N     N_R   0.500830 0.501290 0.852040 -0.203494
O1    O     O_R   0.499990 0.319640 0.618810 -0.589413
O2    O     O_R   0.500000 0.319660 0.381240 -0.581106
O3    O     O_R   0.379070 0.499980 0.618770 -0.575078
O4    O     O_R   0.379080 0.500000 0.381190 -0.570884
O5    O     O_R   0.500000 0.680340 0.618760 -0.613032
O6    O     O_R   0.500010 0.680360 0.381190 -0.600361
O7    O     O_R   0.620920 0.500000 0.618810 -0.596013
O8    O     O_R   0.620930 0.500020 0.381230 -0.589448
C35   C     C_R   0.053710 0.764052 0.502999 0.102518
C36   C     C_R   0.989449 0.849172 0.501036 -0.156649
C37   C     C_R   0.009431 0.975924 0.502398 -0.135841
C38   C     C_R   0.093720 0.018961 0.505885 -0.110548
C39   C     C_R   0.158108 0.935203 0.508089 -0.135108
C40   C     C_R   0.138370 0.808311 0.506688 -0.143018
H18   H     H_    0.923768 0.817237 0.498400 0.122505
H19   H     H_    0.959521 0.040793 0.500772 0.119759
H20   H     H_    0.109118 0.117116 0.506958 0.124887
H21   H     H_    0.223442 0.968601 0.510965 0.131840
H22   H     H_    0.189525 0.746246 0.508799 0.132052

loop_
_geom_bond_atom_site_label_1
_geom_bond_atom_site_label_2
_ccdc_geom_bond_type
C29   O8    A    
C2    C7    S    
C4    C8    S    
Cu2   O4    S    
C17   H15   S    
C3    H13   S    
C27   N1    A    
C28   H10   S    
C6    H12   S    
Cu1   O3    S    
C24   H9    S    
C1    O1    A    
C18   C19   A    
C5    C6    S    
C36   H18   S    
C29   C33   S    
C38   H20   S    
C10   H17   S    
C18   H4    S    
C21   H7    S    
C12   O4    A    
C22   H8    S    
Cu1   Cu2   S    
C16   C17   A    
Cu2   O8    S    
C9    C10   A    
C12   O3    A    
C39   H21   S    
C6    C31   S    
C21   C22   A    
C12   C32   S    
C9    H16   S    
C26   N1    A    
C28   N2    A    
C23   O5    A    
C34   H14   S    
C15   C16   A    
C30   C34   S    
Cu1   N2    S    
C38   C39   A    
C30   H11   S    
C24   C25   A    
C4    C6    S    
Cu2   O2    S    
C39   C40   A    
C3    C34   S    
C25   C26   A    
C31   H1    S    
C5    C35   S    
Cu1   O5    S    
C11   H2    S    
C19   C23   S    
C1    O2    A    
C27   H5    S    
C37   H19   S    
C17   C18   A    
C40   H22   S    
C1    C16   S    
C35   C40   A    
C22   C24   A    
C2    C5    S    
Cu2   O6    S    
C29   O7    A    
C7    C32   T    
Cu1   O1    S    
C14   C19   A    
C25   N2    A    
C3    C5    S    
C20   H6    S    
C35   C36   A    
C9    C15   A    
C11   C13   A    
C2    C34   S    
C30   C31   S    
C20   C26   A    
C37   C38   A    
Cu1   O7    S    
C8    C33   T    
C13   H3    S    
Cu2   N1    S    
C10   C11   A    
C23   O6    A    
C20   C21   A    
C36   C37   A    
C27   C28   A    
C14   C15   A    
C2    C31   S    
C13   C14   A    
C4    C30   S    
C3    C4    S    
