data_mof_unit_50386.cif
_audit_creation_date              2012-12-10T17:03:41-0500
_audit_creation_method            fapswitch 2.2
_symmetry_space_group_name_H-M    P1
_symmetry_Int_Tables_number       1
_space_group_crystal_system       triclinic
_cell_length_a                    10.033089
_cell_length_b                    10.748841
_cell_length_c                    13.13973
_cell_angle_alpha                 90.00467
_cell_angle_beta                  70.000611
_cell_angle_gamma                 90.040972
_cell_volume                      1331.58878643

loop_
_atom_site_label
_atom_site_type_symbol
_atom_type_description
_atom_site_fract_x
_atom_site_fract_y
_atom_site_fract_z
_atom_type_partial_charge
C1    C     C_R   0.501030 0.737312 0.498182 0.926518
C2    C     C_R   0.432041 0.523595 0.984640 0.088382
C3    C     C_R   0.460364 0.558755 0.876085 0.091864
C4    C     C_R   0.540263 0.540203 0.029663 0.081271
C5    C     C_R   0.664183 0.609350 0.973206 0.177342
C6    C     C_R   0.679955 0.659586 0.872103 -0.261626
C7    C     C_R   0.579280 0.634829 0.824016 -0.203926
C8    C     C_R   0.529505 0.487792 0.128840 -0.250945
C9    C     C_R   0.748869 0.585477 0.124089 -0.205948
C10   C     C_R   0.369846 0.515049 0.821990 -0.120173
C11   C     C_2   0.611177 0.066902 0.503255 -0.156000
C12   C     C_R   0.421211 0.506355 0.704046 0.857247
C13   C     C_2   0.493296 0.131306 0.514530 -0.337614
C14   C     C_2   0.607557 0.933006 0.509720 -0.164588
C15   C     C_2   0.505291 0.868929 0.489579 -0.329267
C16   C     C_2   0.106723 0.440746 0.428749 -0.120940
C17   C     C_2   0.958377 0.446835 0.425198 -0.142796
C18   C     C_R   0.498717 0.262716 0.502891 0.937182
C19   C     C_R   0.578803 0.500525 0.295851 0.869060
C20   C     C_R   0.769174 0.629134 0.019916 -0.200653
C21   C     C_R   0.626169 0.517913 0.179436 -0.060033
C22   C     C_R   0.237400 0.463769 0.881194 -0.192265
C23   C     C_R   0.199344 0.447381 0.992292 -0.150096
C24   C     C_R   0.296676 0.473534 0.043600 -0.192081
H1    H     H_    0.824596 0.609700 0.163066 0.158515
H2    H     H_    0.389398 0.088747 0.535358 0.151430
H3    H     H_    0.692036 0.887036 0.529492 0.169825
H4    H     H_    0.424456 0.911795 0.463716 0.151130
H5    H     H_    0.183708 0.385649 0.367060 0.153027
H6    H     H_    0.078036 0.556116 0.553859 0.157724
H7    H     H_    0.939329 0.402932 0.357096 0.153867
H8    H     H_    0.868108 0.534633 0.566246 0.166397
H9    H     H_    0.771316 0.716316 0.829318 0.144439
H10   H     H_    0.863624 0.682571 0.977831 0.140850
H11   H     H_    0.165210 0.432669 0.841152 0.159620
H12   H     H_    0.261874 0.456846 0.129710 0.127207
H13   H     H_    0.096414 0.409067 0.038092 0.144299
H14   H     H_    0.594717 0.677233 0.746138 0.165703
H15   H     H_    0.712603 0.112408 0.489517 0.174588
N1    N     N_2   0.148270 0.498670 0.498870 -0.188217
N2    N     N_2   0.852610 0.498640 0.498840 -0.189756
O1    O     O_R   0.386950 0.680940 0.500020 -0.612716
O2    O     O_R   0.613110 0.680900 0.499980 -0.618082
O3    O     O_R   0.330780 0.500000 0.653640 -0.612964
O4    O     O_R   0.556930 0.499960 0.653610 -0.610181
O5    O     O_R   0.386890 0.319100 0.500020 -0.613371
O6    O     O_R   0.613050 0.319060 0.499980 -0.604037
O7    O     O_R   0.443070 0.500040 0.346390 -0.609180
O8    O     O_R   0.669220 0.500000 0.346360 -0.615581
Zn1   Zn    Zn3+2 0.349000 0.500030 0.500020 0.938435
Zn2   Zn    Zn3+2 0.651000 0.499970 0.499980 0.935279
H16   H     H_    0.442750 0.426757 0.171067 0.141836

loop_
_geom_bond_atom_site_label_1
_geom_bond_atom_site_label_2
_ccdc_geom_bond_type
C2    C4    A    
C23   C24   A    
C6    C7    A    
C1    C15   S    
C14   H3    S    
C1    O2    A    
C8    H16   S    
C9    C20   A    
C6    H9    S    
C4    C8    A    
C20   H10   S    
C18   O6    A    
O7    Zn1   S    
C2    C3    A    
C9    H1    S    
C12   O3    A    
C3    C10   A    
C23   H13   S    
C10   C22   A    
C11   H15   S    
C22   H11   S    
C11   C13   D    
O2    Zn2   S    
C15   H4    S    
C24   H12   S    
C10   C12   S    
C13   C18   S    
C16   N1    D    
N1    Zn1   S    
C18   O5    A    
C19   C21   S    
C7    H14   S    
O1    Zn1   S    
C8    C21   A    
C3    C7    A    
C2    C24   A    
C5    C6    A    
C17   H7    S    
C11   C14   S    
C17   N2    D    
C13   H2    S    
C16   C17   S    
O4    Zn2   S    
H8    N2    S    
H6    N1    S    
C9    C21   A    
C1    O1    A    
O3    Zn1   S    
C5    C20   A    
O5    Zn1   S    
C22   C23   A    
C4    C5    A    
O6    Zn2   S    
C19   O7    A    
C16   H5    S    
C14   C15   D    
C19   O8    A    
N2    Zn2   S    
C12   O4    A    
O8    Zn2   S    
