data_mof_unit_42218.cif
_audit_creation_date              2012-12-10T19:08:05-0500
_audit_creation_method            fapswitch 2.2
_symmetry_space_group_name_H-M    P1
_symmetry_Int_Tables_number       1
_space_group_crystal_system       triclinic
_cell_length_a                    9.077857
_cell_length_b                    10.862747
_cell_length_c                    9.548988
_cell_angle_alpha                 90.012369
_cell_angle_beta                  89.997425
_cell_angle_gamma                 90.139132
_cell_volume                      941.627337267

loop_
_atom_site_label
_atom_site_type_symbol
_atom_type_description
_atom_site_fract_x
_atom_site_fract_y
_atom_site_fract_z
_atom_type_partial_charge
C1    C     C_R   0.500351 0.262704 0.499840 0.798802
C2    C     C_R   0.512948 0.935400 0.370806 -0.220094
C3    C     C_R   0.503123 0.869910 0.498243 -0.104259
C4    C     C_R   0.495385 0.938045 0.620857 0.131844
C5    C     C_3   0.479487 0.929231 0.775837 -0.470226
C6    C     C_3   0.478835 0.071010 0.775697 -0.478602
C7    C     C_R   0.569502 0.591791 0.073632 0.255132
C8    C     C_R   0.419747 0.416419 0.074392 -0.076018
C9    C     C_R   0.419658 0.416471 0.925534 -0.075703
C10   C     C_R   0.569726 0.591641 0.926306 0.256740
C11   C     C_3   0.729589 0.623274 0.920736 -0.501507
C12   C     C_R   0.220679 0.499983 0.499981 0.846356
C13   C     C_3   0.729132 0.624019 0.079673 -0.501762
C14   C     C_R   0.500728 0.737291 0.499851 0.800089
C15   C     C_R   0.779310 0.500119 0.500022 0.848037
C16   C     C_1   0.065535 0.500080 0.499995 -0.190543
C17   C     C_1   0.934435 0.500135 0.500017 -0.199268
C18   C     C_R   0.494909 0.061997 0.620781 0.134340
C19   C     C_R   0.502539 0.130085 0.498160 -0.103235
C20   C     C_R   0.512624 0.064563 0.370767 -0.220751
Cu1   Cu    Cu3+1 0.499990 0.499980 0.640670 0.941009
Cu2   Cu    Cu3+1 0.500010 0.500020 0.359330 0.940892
H1    H     H_    0.519711 0.112313 0.271421 0.166354
H2    H     H_    0.749574 0.715608 0.874389 0.187423
H3    H     H_    0.747833 0.716991 0.125079 0.191025
H4    H     H_    0.520281 0.887619 0.271479 0.165281
H5    H     H_    0.372410 0.887826 0.807351 0.200776
H6    H     H_    0.578406 0.889057 0.826588 0.192544
H7    H     H_    0.371242 0.111161 0.806972 0.190446
H8    H     H_    0.577321 0.112667 0.826314 0.202654
H9    H     H_    0.357039 0.347260 0.130137 0.138505
H10   H     H_    0.356721 0.347493 0.869756 0.136203
H11   H     H_    0.797918 0.548084 0.876144 0.224569
N1    N     N_R   0.500920 0.500930 0.147930 -0.185007
N2    N     N_R   0.500930 0.500890 0.852020 -0.184875
O1    O     O_R   0.500000 0.319640 0.618810 -0.584478
O2    O     O_R   0.500020 0.319680 0.381230 -0.591925
O3    O     O_R   0.288380 0.499980 0.618770 -0.579492
O4    O     O_R   0.288400 0.500020 0.381190 -0.577287
O5    O     O_R   0.499980 0.680320 0.618770 -0.580876
O6    O     O_R   0.500000 0.680360 0.381190 -0.587503
O7    O     O_R   0.711600 0.499980 0.618810 -0.580754
O8    O     O_R   0.711620 0.500020 0.381230 -0.580163
H12   H     H_    0.797714 0.549596 0.125493 0.225310

loop_
_geom_bond_atom_site_label_1
_geom_bond_atom_site_label_2
_ccdc_geom_bond_type
C7    C10   A    
C10   N2    A    
Cu1   N2    S    
Cu2   O8    S    
C5    H6    S    
C19   C20   A    
C20   H1    S    
C1    O2    A    
C4    C18   A    
C12   O4    A    
C7    C13   S    
C2    C3    A    
C15   O8    A    
C2    H4    S    
Cu1   O1    S    
C8    N1    A    
Cu1   Cu2   S    
C11   C13   S    
C13   H3    S    
C16   C17   T    
C3    C14   S    
C14   O6    A    
Cu2   N1    S    
Cu2   O4    S    
C6    H8    S    
C12   O3    A    
C5    C6    S    
C6    C18   S    
C7    N1    A    
C1    C19   S    
Cu2   O6    S    
C10   C11   S    
C2    C20   A    
C3    C4    A    
C11   H2    S    
C11   H11   S    
C6    H7    S    
Cu2   O2    S    
C15   O7    A    
C15   C17   S    
C18   C19   A    
C9    N2    A    
C8    C9    A    
Cu1   O7    S    
C9    H10   S    
C5    H5    S    
C8    H9    S    
C14   O5    A    
C13   H12   S    
Cu1   O3    S    
C12   C16   S    
C1    O1    A    
C4    C5    S    
Cu1   O5    S    
