data_mof_unit_19107.cif
_audit_creation_date              2012-12-10T16:48:09-0500
_audit_creation_method            fapswitch 2.2
_symmetry_space_group_name_H-M    P1
_symmetry_Int_Tables_number       1
_space_group_crystal_system       triclinic
_cell_length_a                    15.842196
_cell_length_b                    8.734096
_cell_length_c                    7.479611
_cell_angle_alpha                 102.317647
_cell_angle_beta                  94.668584
_cell_angle_gamma                 92.25581
_cell_volume                      1006.04293842

loop_
_atom_site_label
_atom_site_type_symbol
_atom_type_description
_atom_site_fract_x
_atom_site_fract_y
_atom_site_fract_z
_atom_type_partial_charge
C1    C     C_R   0.494732 0.200869 0.455486 0.873489
C2    C     C_R   0.505268 0.799131 0.544514 0.873488
C3    C     C_R   0.340099 0.500061 0.501502 0.812135
C4    C     C_R   0.659901 0.499939 0.498497 0.812136
C5    C     C_2   0.479299 0.035708 0.438617 -0.028837
C6    C     C_2   0.520702 0.964292 0.561384 -0.028834
C7    C     C_3   0.972985 0.385539 0.578422 0.193270
C8    C     C_3   0.027014 0.614461 0.421578 0.193270
C9    C     C_3   0.022318 0.359844 0.405240 -0.246446
C10   C     C_3   0.977681 0.640156 0.594759 -0.246446
C11   C     C_1   0.250634 0.500876 0.503962 -0.172632
C12   C     C_1   0.749366 0.499124 0.496038 -0.172632
C13   C     C_3   0.034845 0.525469 0.672700 0.185974
C14   C     C_3   0.965155 0.474531 0.327300 0.185974
C15   C     C_3   0.083383 0.501329 0.500740 0.097116
C16   C     C_3   0.916617 0.498671 0.499260 0.097116
C17   C     C_1   0.175097 0.501225 0.502841 -0.031041
C18   C     C_1   0.824903 0.498774 0.497159 -0.031041
Cu1   Cu    Cu3+1 0.509330 0.517380 0.684380 0.946462
Cu2   Cu    Cu3+1 0.490670 0.482620 0.315620 0.946462
H1    H     H_    0.041428 0.245477 0.327336 0.150754
H2    H     H_    0.958572 0.754523 0.672664 0.150754
H3    H     H_    0.434908 0.377017 0.949021 0.228011
H4    H     H_    0.565092 0.622983 0.050979 0.228011
N1    N     N_2   0.476600 0.456420 0.038510 -0.217801
N2    N     N_2   0.523400 0.543580 0.961490 -0.217802
O1    O     O_R   0.506070 0.286130 0.619780 -0.593219
O2    O     O_R   0.493930 0.713870 0.380220 -0.593217
O3    O     O_R   0.490300 0.256770 0.308360 -0.582473
O4    O     O_R   0.509700 0.743230 0.691640 -0.582474
O5    O     O_R   0.386960 0.514660 0.655680 -0.581577
O6    O     O_R   0.613040 0.485340 0.344320 -0.581578
O7    O     O_R   0.371190 0.485310 0.344260 -0.577050
O8    O     O_R   0.628810 0.514690 0.655740 -0.577050
C19   C     C_3   0.940116 0.251068 0.658448 -0.888835
H5    H     H_    0.993522 0.203312 0.730681 0.234614
H6    H     H_    0.892229 0.292952 0.754796 0.245330
H7    H     H_    0.909349 0.156611 0.545931 0.235551
C20   C     C_3   0.059884 0.748932 0.341552 -0.888835
H8    H     H_    0.006478 0.796688 0.269319 0.234613
H9    H     H_    0.090651 0.843389 0.454069 0.235552
H10   H     H_    0.107771 0.707048 0.245203 0.245330
C21   C     C_3   0.922559 0.438030 0.133046 -0.889544
H11   H     H_    0.969842 0.390789 0.038312 0.248742
H12   H     H_    0.870111 0.347159 0.119987 0.239598
H13   H     H_    0.896895 0.545620 0.098588 0.242200
C22   C     C_3   0.077440 0.561970 0.866954 -0.889544
H14   H     H_    0.030158 0.609211 0.961687 0.248742
H15   H     H_    0.103105 0.454380 0.901412 0.242200
H16   H     H_    0.129889 0.652841 0.880013 0.239598
C23   C     C_3   0.409074 0.955447 0.294109 -0.838812
H17   H     H_    0.371684 0.042153 0.237523 0.223611
H18   H     H_    0.436460 0.879207 0.177188 0.264350
H19   H     H_    0.363676 0.885642 0.355077 0.227060
C24   C     C_3   0.590926 0.044553 0.705894 -0.838820
H20   H     H_    0.628311 0.957849 0.762493 0.223614
H21   H     H_    0.636328 0.114348 0.644923 0.227059
H22   H     H_    0.563540 0.120802 0.822807 0.264352

loop_
_geom_bond_atom_site_label_1
_geom_bond_atom_site_label_2
_ccdc_geom_bond_type
C2    O2    A    
C9    C14   S    
C8    C20   S    
C4    C12   S    
Cu1   O1    S    
C22   H16   S    
Cu1   Cu2   S    
C13   C15   S    
C6    C24   S    
C2    O4    A    
C23   H19   S    
Cu1   O5    S    
C24   H20   S    
C1    O3    A    
C9    C15   S    
C23   H17   S    
C22   H15   S    
C10   C16   S    
H3    N1    S    
C10   H2    S    
C3    O5    A    
C21   H12   S    
C9    H1    S    
C2    C6    S    
C7    C19   S    
C1    C5    S    
Cu2   O7    S    
C16   C18   S    
C7    C16   S    
C19   H6    S    
H4    N2    S    
C8    C15   S    
C4    O8    A    
Cu2   O3    S    
C24   H21   S    
C21   H11   S    
C5    C6    D    
C21   H13   S    
C14   C16   S    
C1    O1    A    
C3    C11   S    
Cu2   N1    S    
C3    O7    A    
C4    O6    A    
C22   H14   S    
C7    C9    S    
C7    C13   S    
C19   H7    S    
C20   H9    S    
Cu2   O6    S    
C24   H22   S    
C12   C18   T    
C20   H8    S    
C15   C17   S    
Cu1   N2    S    
C20   H10   S    
C11   C17   T    
C8    C14   S    
Cu2   O2    S    
N1    N2    D    
Cu1   O4    S    
C13   C22   S    
Cu1   O8    S    
C8    C10   S    
C5    C23   S    
C19   H5    S    
C14   C21   S    
C23   H18   S    
C10   C13   S    
