data_mof_unit_50168.cif
_audit_creation_date              2012-12-10T16:39:39-0500
_audit_creation_method            fapswitch 2.2
_symmetry_space_group_name_H-M    P1
_symmetry_Int_Tables_number       1
_space_group_crystal_system       triclinic
_cell_length_a                    16.733583
_cell_length_b                    16.732566
_cell_length_c                    16.733432
_cell_angle_alpha                 65.638359
_cell_angle_beta                  65.642482
_cell_angle_gamma                 65.64287
_cell_volume                      3718.78812969

loop_
_atom_site_label
_atom_site_type_symbol
_atom_type_description
_atom_site_fract_x
_atom_site_fract_y
_atom_site_fract_z
_atom_type_partial_charge
C1    C     C_R   0.315079 0.008482 0.424344 -0.155637
C2    C     C_R   0.328927 0.461756 0.939265 -0.082830
C3    C     C_R   0.517777 0.404018 0.037219 -0.073588
C4    C     C_R   0.962570 0.482501 0.595951 -0.073894
C5    C     C_R   0.037411 0.517512 0.404046 -0.073945
C6    C     C_R   0.060963 0.671014 0.538288 -0.082304
C7    C     C_R   0.939026 0.328989 0.461713 -0.082258
C8    C     C_R   0.455957 0.991200 0.449273 0.071236
C9    C     C_R   0.544075 0.008507 0.550890 0.069372
C10   C     C_R   0.991313 0.449212 0.455942 0.070074
C11   C     C_R   0.008662 0.550805 0.544056 0.070090
C12   C     C_R   0.449608 0.455903 0.990975 0.069695
C13   C     C_R   0.550581 0.544119 0.009102 0.069976
C14   C     C_R   0.957453 0.179738 0.440197 0.942542
C15   C     C_R   0.684961 0.991364 0.575718 -0.156458
C16   C     C_R   0.042546 0.820262 0.559803 0.942864
C17   C     C_R   0.179745 0.440180 0.957511 0.942181
C18   C     C_R   0.820265 0.559787 0.042595 0.942616
C19   C     C_R   0.440195 0.957454 0.179741 0.942231
C20   C     C_R   0.559818 0.042518 0.820259 0.942421
C21   C     C_R   0.570152 0.823248 0.020209 0.991475
C22   C     C_R   0.429915 0.176790 0.979665 0.990727
C23   C     C_R   0.020253 0.570126 0.823233 0.991238
C24   C     C_R   0.979736 0.429878 0.176769 0.991178
C25   C     C_R   0.823237 0.020242 0.570125 0.991132
C26   C     C_R   0.008534 0.424323 0.315063 -0.156602
C27   C     C_R   0.176774 0.979719 0.429885 0.991427
C28   C     C_R   0.411194 0.979076 0.401377 -0.077157
C29   C     C_R   0.588843 0.020708 0.598726 -0.076820
C30   C     C_R   0.979141 0.401347 0.411181 -0.077685
C31   C     C_R   0.020837 0.598666 0.588820 -0.077665
C32   C     C_R   0.401590 0.411185 0.978960 -0.077859
C33   C     C_R   0.598601 0.588836 0.021075 -0.077779
C34   C     C_R   0.272373 0.975091 0.391037 -0.141890
C35   C     C_R   0.727649 0.024827 0.608983 -0.142136
C36   C     C_R   0.975115 0.391029 0.272366 -0.142152
C37   C     C_R   0.991445 0.575688 0.684939 -0.156598
C38   C     C_R   0.024866 0.608979 0.727637 -0.142173
C39   C     C_R   0.391137 0.272400 0.975007 -0.141948
C40   C     C_R   0.609067 0.727656 0.024828 -0.141796
C41   C     C_R   0.587447 0.067065 0.719819 -0.201101
C42   C     C_R   0.412575 0.932855 0.280193 -0.201236
C43   C     C_R   0.719807 0.587417 0.067265 -0.201273
C44   C     C_R   0.280186 0.412596 0.933003 -0.201080
C45   C     C_R   0.067131 0.719811 0.587423 -0.200834
C46   C     C_R   0.932861 0.280190 0.412578 -0.201098
C47   C     C_R   0.442277 0.096971 0.689442 0.714269
C48   C     C_R   0.424568 0.315068 0.008316 -0.156416
C49   C     C_R   0.557759 0.902848 0.310631 0.712803
C50   C     C_R   0.097119 0.689380 0.442246 0.712613
C51   C     C_R   0.902893 0.310606 0.557758 0.712517
C52   C     C_R   0.689326 0.442245 0.097334 0.712504
C53   C     C_R   0.309901 0.557928 0.904034 0.714277
C54   C     C_R   0.265863 0.067184 0.481171 0.688372
C55   C     C_R   0.734192 0.932652 0.518898 0.687233
C56   C     C_R   0.481413 0.265814 0.067012 0.687469
C57   C     C_R   0.519766 0.734057 0.931918 0.686688
C58   C     C_R   0.067265 0.481129 0.265835 0.687442
C59   C     C_R   0.575907 0.684930 0.991319 -0.156360
C60   C     C_R   0.932721 0.518875 0.734166 0.687401
C61   C     C_R   0.323635 0.930063 0.324115 0.337664
C62   C     C_R   0.676376 0.069879 0.675884 0.337467
C63   C     C_R   0.930065 0.324119 0.323639 0.337342
C64   C     C_R   0.069918 0.675887 0.676364 0.337086
C65   C     C_R   0.324173 0.323702 0.930044 0.337410
C66   C     C_R   0.675903 0.676387 0.069986 0.337498
C67   C     C_R   0.691527 0.922566 0.467660 -0.118274
C68   C     C_R   0.308514 0.077182 0.532474 -0.117033
C69   C     C_R   0.922657 0.467616 0.691509 -0.118122
C70   C     C_R   0.538318 0.060845 0.671056 -0.082530
C71   C     C_R   0.077336 0.532387 0.308489 -0.118135
C72   C     C_R   0.468294 0.691453 0.921992 -0.118368
C73   C     C_R   0.532671 0.308454 0.077093 -0.118268
C74   C     C_R   0.603371 0.908252 0.362737 -0.123512
C75   C     C_R   0.396660 0.091486 0.637400 -0.126984
C76   C     C_R   0.361964 0.603521 0.909510 -0.122753
C77   C     C_R   0.637299 0.396633 0.091816 -0.123464
C78   C     C_R   0.908323 0.362697 0.603365 -0.123453
C79   C     C_R   0.091695 0.637284 0.396639 -0.123433
C80   C     C_R   0.743240 0.875731 0.400199 0.343936
C81   C     C_R   0.461717 0.938993 0.329004 -0.082392
C82   C     C_R   0.256795 0.124004 0.599940 0.343002
C83   C     C_R   0.875805 0.400163 0.743228 0.343913
C84   C     C_R   0.124242 0.599800 0.256772 0.344281
C85   C     C_R   0.403335 0.742422 0.872059 0.342541
C86   C     C_R   0.600058 0.256725 0.124020 0.344005
C87   C     C_R   0.698638 0.865801 0.350031 0.348038
C88   C     C_R   0.301391 0.133932 0.650111 0.351274
C89   C     C_R   0.346347 0.699459 0.870688 0.347548
C90   C     C_R   0.650109 0.301329 0.134119 0.348048
C91   C     C_R   0.865868 0.349994 0.698633 0.348041
C92   C     C_R   0.670949 0.538289 0.061198 -0.082507
C93   C     C_R   0.134208 0.649939 0.301383 0.347717
C94   C     C_R   0.551994 0.954680 0.430868 -0.067063
C95   C     C_R   0.448035 0.045012 0.569306 -0.075248
C96   C     C_R   0.954786 0.430809 0.551982 -0.066900
C97   C     C_R   0.045199 0.569199 0.448016 -0.066857
C98   C     C_R   0.431082 0.551957 0.954650 -0.067574
C99   C     C_R   0.569182 0.448035 0.045367 -0.066738
C100  C     C_R   0.595966 0.962446 0.482569 -0.073911
C101  C     C_R   0.404065 0.037250 0.517604 -0.075194
C102  C     C_R   0.482284 0.596052 0.963016 -0.073595
F1    F     F_    0.394963 0.144437 0.752294 -0.591811
F2    F     F_    0.520693 0.820982 0.878819 -0.614603
F3    F     F_    0.120865 0.480056 0.179060 -0.614114
F4    F     F_    0.879132 0.519927 0.820948 -0.613965
F5    F     F_    0.605087 0.855486 0.247693 -0.592214
F6    F     F_    0.144497 0.752314 0.394911 -0.592177
F7    F     F_    0.855536 0.247649 0.605099 -0.592256
F8    F     F_    0.752309 0.394893 0.144656 -0.592237
F9    F     F_    0.247423 0.605310 0.856120 -0.592391
F10   F     F_    0.179103 0.120830 0.480079 -0.614241
F11   F     F_    0.820992 0.879101 0.519913 -0.614001
F12   F     F_    0.480249 0.179076 0.120712 -0.613924
H1    H     H_    0.333887 0.846145 0.264814 0.350108
H2    H     H_    0.763171 0.312164 0.797430 0.336841
H3    H     H_    0.687900 0.202492 0.236813 0.336843
H4    H     H_    0.250994 0.812754 0.839796 0.341813
H5    H     H_    0.134368 0.154481 0.684075 0.339906
H6    H     H_    0.865664 0.845248 0.316061 0.339827
H7    H     H_    0.684232 0.134308 0.154483 0.339822
H8    H     H_    0.376370 0.851143 0.771225 0.336126
H9    H     H_    0.155368 0.683750 0.134270 0.339494
H10   H     H_    0.845370 0.316012 0.865658 0.339806
H11   H     H_    0.666086 0.153859 0.735137 0.350030
H12   H     H_    0.846117 0.264842 0.333912 0.350085
H13   H     H_    0.153894 0.735115 0.666103 0.350691
H14   H     H_    0.264872 0.334042 0.846095 0.349982
H15   H     H_    0.735193 0.666159 0.153898 0.350079
H16   H     H_    0.202625 0.236652 0.687917 0.336544
H17   H     H_    0.797401 0.763084 0.312217 0.336769
H18   H     H_    0.237214 0.687418 0.202902 0.336660
O1    O     O_R   0.982940 0.138950 0.510160 -0.526826
O2    O     O_R   0.982940 0.510160 0.138950 -0.616013
O3    O     O_R   0.861050 0.017060 0.489840 -0.615901
O4    O     O_R   0.138950 0.982940 0.510160 -0.615160
O5    O     O_R   0.867700 0.025880 0.612340 -0.551326
O6    O     O_R   0.132300 0.974120 0.387660 -0.551315
O7    O     O_R   0.025880 0.612340 0.867700 -0.551285
O8    O     O_R   0.974120 0.387660 0.132300 -0.551140
O9    O     O_R   0.612340 0.867700 0.025880 -0.551360
O10   O     O_R   0.387660 0.132300 0.974120 -0.551029
O11   O     O_R   0.387660 0.974120 0.132300 -0.627275
O12   O     O_R   0.017060 0.861050 0.489840 -0.526765
O13   O     O_R   0.612340 0.025880 0.867700 -0.627501
O14   O     O_R   0.132300 0.387660 0.974120 -0.627085
O15   O     O_R   0.867700 0.612340 0.025880 -0.627488
O16   O     O_R   0.974120 0.132300 0.387660 -0.627278
O17   O     O_R   0.025880 0.867700 0.612340 -0.627405
O18   O     O_3   0.284380 0.889814 0.298023 -0.673260
O19   O     O_3   0.715607 0.110182 0.701942 -0.673480
O20   O     O_3   0.889803 0.298031 0.284395 -0.673297
O21   O     O_3   0.110168 0.701984 0.715611 -0.673821
O22   O     O_3   0.298054 0.284495 0.889774 -0.673373
O23   O     O_R   0.138950 0.510160 0.982940 -0.526658
O24   O     O_3   0.701976 0.715663 0.110229 -0.673376
O25   O     O_3   0.253278 0.186299 0.710360 -0.676437
O26   O     O_3   0.746747 0.813438 0.289778 -0.677820
O27   O     O_3   0.186694 0.710082 0.253300 -0.677796
O28   O     O_3   0.813484 0.289754 0.746745 -0.677840
O29   O     O_3   0.710321 0.253194 0.186528 -0.677711
O30   O     O_3   0.274355 0.750298 0.833042 -0.677718
O31   O     O_3   0.162393 0.155913 0.618722 -0.693452
O32   O     O_3   0.837642 0.843821 0.381412 -0.693321
O33   O     O_3   0.618901 0.162307 0.155834 -0.693324
O34   O     O_R   0.861050 0.489840 0.017060 -0.526625
O35   O     O_3   0.395413 0.834264 0.826254 -0.690995
O36   O     O_3   0.156187 0.618544 0.162366 -0.693515
O37   O     O_3   0.843879 0.381386 0.837631 -0.693308
O38   O     O_R   0.510160 0.982940 0.138950 -0.526695
O39   O     O_R   0.489840 0.017060 0.861050 -0.526598
O40   O     O_R   0.489840 0.861050 0.017060 -0.616437
O41   O     O_R   0.510160 0.138950 0.982940 -0.616011
O42   O     O_R   0.017060 0.489840 0.861050 -0.615882
Zn1   Zn    Zn3+2 0.004880 0.004880 0.583590 1.153877
Zn2   Zn    Zn3+2 0.995120 0.995120 0.416410 1.154486
Zn3   Zn    Zn3+2 0.004880 0.583590 0.004880 1.153366
Zn4   Zn    Zn3+2 0.995120 0.416410 0.995120 1.154607
Zn5   Zn    Zn3+2 0.583590 0.004880 0.004880 1.154095
Zn6   Zn    Zn3+2 0.416410 0.995120 0.995120 1.156982

loop_
_geom_bond_atom_site_label_1
_geom_bond_atom_site_label_2
_ccdc_geom_bond_type
C6    C45   A    
C32   C48   A    
C74   C94   A    
C19   O38   A    
C50   C79   A    
H13   O21   S    
C72   C85   A    
C18   O34   A    
C75   C95   A    
H7    O33   S    
C49   F5    S    
C23   O42   A    
C24   O8    A    
C42   C81   A    
C24   C36   S    
H16   O25   S    
C69   C83   A    
C27   O4    A    
C23   O7    A    
C16   O12   A    
O5    Zn1   S    
C80   C87   A    
C58   C71   A    
C57   C59   A    
C54   C68   A    
C82   O31   S    
O41   Zn5   S    
C76   C98   A    
C14   O16   A    
O14   Zn4   S    
C2    C32   A    
C49   C81   A    
C93   O27   S    
O15   Zn3   S    
C80   O32   S    
C3    C12   A    
H11   O19   S    
O11   Zn6   S    
C4    C96   A    
H12   O20   S    
O10   Zn6   S    
H10   O37   S    
C78   C96   A    
C1    C28   A    
O8    Zn4   S    
C15   C29   A    
C16   O17   A    
O34   Zn4   S    
C52   F8    S    
C74   C87   A    
C36   C63   A    
C8    C101  A    
O42   Zn4   S    
C12   C98   A    
C19   C42   S    
C9    C29   A    
C76   C89   A    
C53   F9    S    
C6    C31   A    
O4    Zn1   S    
C11   C31   A    
C33   C59   A    
C7    C30   A    
C40   C66   A    
C12   C32   A    
C50   F6    S    
C39   C65   A    
O12   Zn2   S    
C44   C65   A    
C86   O33   S    
C41   C62   A    
C3    C73   A    
C56   C73   A    
C15   C35   A    
C4    C69   A    
C1    C34   A    
C20   C41   S    
C38   C64   A    
C27   C34   S    
C73   C86   A    
C77   C90   A    
H18   O27   S    
C47   F1    S    
C62   O19   S    
C90   O29   S    
C27   O6    A    
C7    C46   A    
C8    C94   A    
C68   C101  A    
C14   C46   S    
C18   O15   A    
C86   C90   A    
C33   C92   A    
C2    C44   A    
C85   C89   A    
C57   C72   A    
C71   C84   A    
C55   F11   S    
H3    O29   S    
C98   C102  A    
C64   O21   S    
C34   C61   A    
C31   C37   A    
O17   Zn1   S    
C85   O35   S    
C13   C99   A    
H17   O26   S    
C25   O5    A    
C1    C54   A    
C47   C70   A    
C13   C33   A    
C37   C38   A    
C84   O36   S    
C26   C58   A    
C94   C100  A    
C10   C30   A    
C10   C96   A    
C22   O10   A    
C54   F10   S    
C49   C74   A    
O16   Zn2   S    
C88   O25   S    
C6    C50   A    
C4    C11   A    
O1    Zn1   S    
C42   C61   A    
C91   O28   S    
C67   C100  A    
C25   C35   S    
H9    O36   S    
C26   C36   A    
C5    C97   A    
C26   C30   A    
C9    C100  A    
O6    Zn2   S    
C8    C28   A    
O39   Zn6   S    
C52   C92   A    
C53   C76   A    
H5    O31   S    
C52   C77   A    
C17   O23   A    
C89   O30   S    
C22   O41   A    
C60   F4    S    
C29   C70   A    
C61   O18   S    
C24   O2    A    
C48   C56   A    
C57   F2    S    
C9    C95   A    
H4    O30   S    
C19   O11   A    
H8    O35   S    
C28   C81   A    
O9    Zn5   S    
O13   Zn5   S    
C79   C97   A    
C67   C80   A    
C47   C75   A    
C2    C53   A    
C16   C45   S    
H15   O24   S    
C55   C67   A    
H2    O28   S    
C14   O1    A    
H14   O22   S    
C78   C91   A    
C23   C38   S    
C83   C91   A    
C46   C63   A    
C45   C64   A    
C43   C92   A    
C87   O26   S    
O38   Zn5   S    
C11   C97   A    
C58   F3    S    
C68   C82   A    
O3    Zn2   S    
C17   O14   A    
C17   C44   S    
C21   O9    A    
C5    C10   A    
C5    C71   A    
C18   C43   S    
C66   O24   S    
O7    Zn3   S    
O40   Zn6   S    
C21   C40   S    
C72   C102  A    
C60   C69   A    
C43   C66   A    
C82   C88   A    
C22   C39   S    
C83   O37   S    
H1    O18   S    
C77   C99   A    
C35   C62   A    
C84   C93   A    
O2    Zn3   S    
C25   O3    A    
C63   O20   S    
C51   C78   A    
C37   C60   A    
H6    O32   S    
C7    C51   A    
C3    C99   A    
C75   C88   A    
C20   O39   A    
C51   F7    S    
O23   Zn3   S    
C79   C93   A    
C40   C59   A    
C56   F12   S    
C20   O13   A    
C41   C70   A    
C65   O22   S    
C13   C102  A    
C21   O40   A    
C95   C101  A    
C15   C55   A    
C39   C48   A    
