data_mof_unit_51563.cif
_audit_creation_date              2013-03-05T15:46:35-0500
_audit_creation_method            fapswitch 2.2
_symmetry_space_group_name_H-M    P1
_symmetry_Int_Tables_number       1
_space_group_crystal_system       triclinic
_cell_length_a                    10.680268
_cell_length_b                    11.032579
_cell_length_c                    9.83933
_cell_angle_alpha                 110.953275
_cell_angle_beta                  98.379066
_cell_angle_gamma                 91.057394
_cell_volume                      1068.024191

loop_
_atom_site_label
_atom_site_type_symbol
_atom_site_description
_atom_site_fract_x
_atom_site_fract_y
_atom_site_fract_z
_atom_type_partial_charge
O1    O     O_R   0.511880 0.332340 0.577400 -0.586586
O2    O     O_R   0.488120 0.667660 0.422600 -0.586585
O3    O     O_R   0.474280 0.295500 0.332650 -0.558319
O4    O     O_R   0.525720 0.704500 0.667350 -0.558319
C1    C     C_R   0.490741 0.254221 0.440796 0.910504
C2    C     C_R   0.509258 0.745779 0.559204 0.910502
O5    O     O_R   0.335640 0.518390 0.622350 -0.546968
O6    O     O_R   0.664360 0.481610 0.377650 -0.546963
O7    O     O_R   0.298050 0.481550 0.377590 -0.583299
O8    O     O_R   0.701950 0.518450 0.622410 -0.583299
C3    C     C_R   0.259944 0.499967 0.500800 0.947591
C4    C     C_R   0.740056 0.500033 0.499200 0.947588
Cu1   Cu    Cu3+1 0.522260 0.521810 0.644920 1.041809
Cu2   Cu    Cu3+1 0.477740 0.478190 0.355080 1.041811
C5    C     C_3   0.044515 0.407605 0.545640 0.266717
C6    C     C_3   0.955485 0.592396 0.454360 0.266718
C7    C     C_3   0.945286 0.385558 0.408959 0.271044
C8    C     C_3   0.054714 0.614442 0.591042 0.271040
C9    C     C_3   0.875686 0.499886 0.498611 -0.257526
C10   C     C_3   0.124314 0.500115 0.501390 -0.257522
C11   C     C_3   0.975493 0.522521 0.638920 -0.331717
C12   C     C_3   0.024508 0.477480 0.361080 -0.331717
C13   C     C_2   0.485887 0.114990 0.407467 -0.230985
C14   C     C_2   0.514113 0.885009 0.592533 -0.230988
C15   C     C_2   0.502162 0.069543 0.516655 -0.095194
C16   C     C_2   0.497838 0.930457 0.483345 -0.095193
N1    N     N_2   0.444270 0.445410 0.137360 -0.283094
N2    N     N_2   0.555730 0.554590 0.862640 -0.283093
C17   C     C_2   0.510493 0.510665 0.081384 -0.038540
C18   C     C_2   0.489507 0.489334 0.918616 -0.038540
H1    H     H_    0.624249 0.623734 0.934791 0.221780
H2    H     H_    0.375751 0.376266 0.065209 0.221779
N3    N     N_R   0.889125 0.257248 0.309968 0.167382
O9    O     O_R   0.961155 0.170823 0.239582 -0.263295
O10   O     O_R   0.768297 0.226944 0.294251 -0.345037
N4    N     N_R   0.110876 0.742754 0.690034 0.167390
O11   O     O_R   0.038845 0.829177 0.760418 -0.263298
O12   O     O_R   0.231702 0.773055 0.705749 -0.345037
N5    N     N_R   0.089247 0.302994 0.593499 0.162788
O13   O     O_R   0.009921 0.235115 0.631748 -0.267677
O14   O     O_R   0.206584 0.273697 0.593433 -0.363827
N6    N     N_R   0.910755 0.697008 0.406501 0.162790
O15   O     O_R   0.990083 0.764898 0.368276 -0.267673
O16   O     O_R   0.793411 0.726292 0.406547 -0.363833
H3    H     H_    0.956597 0.540898 0.752351 0.218298
H4    H     H_    0.043403 0.459103 0.247649 0.218296
H5    H     H_    0.481157 0.864892 0.368473 0.185701
H6    H     H_    0.518843 0.135108 0.631526 0.185701
H7    H     H_    0.530896 0.950876 0.707203 0.166836
H8    H     H_    0.469104 0.049124 0.292797 0.166835
H9    H     H_    0.416179 0.416397 0.845444 0.191610
H10   H     H_    0.583821 0.583602 0.154556 0.191614

loop_
_geom_bond_atom_site_label_1
_geom_bond_atom_site_label_2
_geom_bond_distance
_ccdc_geom_bond_type
C12   H4    1.110310 S    
O7    Cu2   1.963198 S    
N6    O16   1.300024 A    
Cu1   N2    2.016341 S    
C17   C18   1.514724 S    
Cu2   N1    2.016341 S    
N1    C17   1.303927 D    
C8    C11   1.546761 S    
C8    C10   1.533486 S    
C7    C12   1.546773 S    
C1    C13   1.449680 S    
O5    Cu1   1.971200 S    
O6    C4    1.289782 A    
C2    C14   1.449680 S    
N2    C18   1.303928 D    
N3    O9    1.300254 A    
C15   C16   1.448261 S    
N5    O14   1.300005 A    
Cu1   Cu2   2.684288 S    
O5    C3    1.289778 A    
O7    C3    1.283466 A    
C15   H6    1.088249 S    
C5    N5    1.457904 S    
O2    C2    1.294684 A    
O3    Cu2   1.946590 S    
C7    N3    1.457611 S    
C16   H5    1.088249 S    
C6    C9    1.533458 S    
O1    C1    1.294684 A    
O8    C4    1.283466 A    
C4    C9    1.449444 S    
N4    O12   1.299967 A    
N4    O11   1.300239 A    
C9    C11   1.555403 S    
C18   H9    1.085018 S    
C10   C12   1.555399 S    
C11   H3    1.110305 S    
C13   C15   1.330362 D    
C5    C10   1.533457 S    
O2    Cu2   1.949343 S    
O6    Cu2   1.971200 S    
C3    C10   1.449444 S    
O4    C2    1.290590 A    
O1    Cu1   1.949343 S    
N6    O15   1.300470 A    
N5    O13   1.300513 A    
C6    N6    1.457914 S    
C5    C11   1.546804 S    
C14   H7    1.087685 S    
C6    C8    1.527120 S    
O4    Cu1   1.946589 S    
C5    C7    1.527121 S    
C7    C9    1.533486 S    
C13   H8    1.087685 S    
C6    C12   1.546809 S    
N3    O10   1.299983 A    
N1    H2    1.030582 S    
C8    N4    1.457628 S    
O8    Cu1   1.963198 S    
N2    H1    1.030582 S    
C14   C16   1.330363 D    
O3    C1    1.290589 A    
C17   H10   1.085018 S    
