data_mof_unit_46053.cif
_audit_creation_date              2013-03-05T16:47:20-0500
_audit_creation_method            fapswitch 2.2
_symmetry_space_group_name_H-M    P1
_symmetry_Int_Tables_number       1
_space_group_crystal_system       triclinic
_cell_length_a                    10.892671
_cell_length_b                    10.929676
_cell_length_c                    9.706499
_cell_angle_alpha                 90.022301
_cell_angle_beta                  90.95618
_cell_angle_gamma                 90.191967
_cell_volume                      1155.42385111

loop_
_atom_site_label
_atom_site_type_symbol
_atom_site_description
_atom_site_fract_x
_atom_site_fract_y
_atom_site_fract_z
_atom_type_partial_charge
O1    O     O_R   0.500020 0.321960 0.617040 -0.588877
O2    O     O_R   0.499980 0.321920 0.382900 -0.583792
C1    C     C_R   0.498683 0.265399 0.499994 0.835184
O3    O     O_R   0.319660 0.500030 0.617070 -0.587612
O4    O     O_R   0.319620 0.499990 0.382930 -0.566609
C2    C     C_R   0.262246 0.502970 0.498486 0.818468
Cu1   Cu    Cu3+1 0.500020 0.500020 0.638630 0.925702
Cu2   Cu    Cu3+1 0.499980 0.499980 0.361370 0.944744
O5    O     O_R   0.500020 0.678080 0.617100 -0.586698
O6    O     O_R   0.499980 0.678040 0.382960 -0.586412
O7    O     O_R   0.680380 0.500010 0.617070 -0.575678
O8    O     O_R   0.680340 0.499970 0.382930 -0.535556
C3    C     C_R   0.501715 0.734609 0.500132 0.845488
C4    C     C_R   0.737803 0.495499 0.501637 0.813547
H1    H     H_    0.248810 0.603128 0.883173 0.142152
C5    C     C_R   0.195543 0.668529 0.081540 -0.145266
H2    H     H_    0.225308 0.761408 0.062026 0.115123
C6    C     C_R   0.145731 0.637894 0.208489 -0.113871
H3    H     H_    0.136888 0.708079 0.286514 0.105228
C7    C     C_R   0.109330 0.516863 0.235708 0.195949
C8    C     C_R   0.120286 0.427628 0.132611 -0.076169
H4    H     H_    0.093139 0.333919 0.151456 0.114486
C9    C     C_R   0.168727 0.459159 0.004859 -0.149019
H5    H     H_    0.178033 0.390093 0.925818 0.121371
C10   C     C_R   0.207774 0.579162 0.980182 -0.105826
C11   C     C_R   0.933746 0.461977 0.381475 0.453717
C12   C     C_R   0.872131 0.487486 0.505209 -0.204278
C13   C     C_R   0.941662 0.512033 0.627034 -0.060769
C14   C     C_R   0.068366 0.513126 0.620984 -0.255473
H6    H     H_    0.120344 0.526867 0.715225 0.172500
C15   C     C_R   0.128118 0.502987 0.495720 -0.166027
C16   C     C_R   0.058878 0.487339 0.372657 -0.105073
C17   C     C_R   0.896892 0.658464 0.816903 -0.145470
H7    H     H_    0.939858 0.730887 0.758504 0.120377
C18   C     C_R   0.849912 0.684355 0.946775 -0.173787
H8    H     H_    0.856473 0.776166 0.988175 0.125476
C19   C     C_R   0.793939 0.591865 0.022872 -0.083821
H9    H     H_    0.756532 0.612320 0.122822 0.161136
C20   C     C_R   0.786302 0.473035 0.969912 -0.069969
H10   H     H_    0.741330 0.401897 0.027760 0.155803
C21   C     C_R   0.835607 0.446060 0.841586 -0.114115
H11   H     H_    0.830250 0.353412 0.802179 0.110468
C22   C     C_R   0.888497 0.539436 0.762786 0.167968
C23   C     C_2   0.498498 0.932993 0.386778 -0.166436
C24   C     C_2   0.508361 0.866642 0.502478 -0.320514
H12   H     H_    0.487588 0.888240 0.287336 0.159533
H13   H     H_    0.524333 0.907738 0.602607 0.143340
C25   C     C_2   0.504263 0.067002 0.386940 -0.172571
C26   C     C_2   0.492682 0.133376 0.502057 -0.324946
H14   H     H_    0.516345 0.111745 0.288124 0.154353
H15   H     H_    0.475777 0.092309 0.601356 0.142275
C27   C     C_2   0.463193 0.407494 0.921568 -0.098806
N1    N     N_2   0.498640 0.498660 0.846910 -0.284446
H16   H     H_    0.428256 0.326130 0.870270 0.151959
H17   H     H_    0.534941 0.574631 0.894596 0.198765
C28   C     C_2   0.467049 0.406086 0.076973 -0.065731
N2    N     N_2   0.498610 0.498630 0.153040 -0.277322
H18   H     H_    0.439574 0.321912 0.126888 0.146908
H19   H     H_    0.519991 0.579942 0.106431 0.186382
O9    O     O_3   0.871657 0.418153 0.266197 -0.577367
C29   C     C_3   0.853594 0.290976 0.283304 -0.334841
H20   H     H_    0.787362 0.271619 0.366555 0.165271
H21   H     H_    0.941609 0.242449 0.304805 0.139437
H22   H     H_    0.814357 0.252487 0.186471 0.170036

loop_
_geom_bond_atom_site_label_1
_geom_bond_atom_site_label_2
_geom_bond_distance
_ccdc_geom_bond_type
C29   H22   1.108212 S    
C3    C24   1.444803 S    
C9    H5    1.082296 S    
Cu2   O6    1.957308 S    
C11   C16   1.394052 A    
C19   H9    1.082065 S    
Cu2   N2    2.022009 S    
O4    Cu2   1.979187 S    
C21   H11   1.083354 S    
C13   C22   1.479075 S    
C18   H8    1.082481 S    
Cu2   O8    1.972240 S    
C29   H20   1.112111 S    
C26   H15   1.081701 S    
C25   H14   1.086550 S    
C2    C15   1.460810 S    
C1    C26   1.444390 S    
Cu1   Cu2   2.691218 S    
C19   C20   1.398333 A    
C15   C16   1.412040 A    
C8    H4    1.081583 S    
C28   N2    1.294228 D    
Cu1   O7    1.979186 S    
C21   C22   1.403520 A    
C11   C12   1.413689 A    
C14   H6    1.077925 S    
C27   N1    1.293987 D    
O3    Cu1   1.972241 S    
C5    C6    1.395103 A    
C25   C26   1.339931 D    
C17   C18   1.397608 A    
O8    C4    1.303066 A    
O2    C1    1.294079 A    
C6    C7    1.406111 A    
N1    H17   1.025406 S    
C8    C9    1.398498 A    
O4    C2    1.293533 A    
C4    C12   1.465936 S    
O7    C4    1.293303 A    
N2    H19   1.025268 S    
O3    C2    1.301215 A    
H1    C10   1.080975 S    
Cu1   N1    2.022035 S    
C20   H10   1.080159 S    
C17   C22   1.404923 A    
C27   C28   1.508409 S    
C5    C10   1.394356 A    
C9    C10   1.399458 A    
C17   H7    1.083346 S    
C7    C8    1.403886 A    
C20   C21   1.396414 A    
C14   C15   1.393213 A    
C6    H3    1.083416 S    
C7    C16   1.482120 S    
C24   H13   1.081711 S    
C12   C13   1.418591 A    
Cu1   O5    1.957407 S    
O5    C3    1.293159 A    
C13   C14   1.382384 A    
C23   H12   1.086496 S    
C18   C19   1.396667 A    
O1    Cu1   1.957308 S    
C28   H18   1.083528 S    
C11   O9    1.382405 S    
C29   H21   1.113917 S    
O2    Cu2   1.957406 S    
C23   C24   1.340074 D    
C23   C25   1.465814 S    
C5    H2    1.082350 S    
C27   H16   1.083803 S    
O9    C29   1.413442 S    
O1    C1    1.293039 A    
O6    C3    1.294147 A    
