data_mof_unit_42255.cif
_audit_creation_date              2012-12-10T18:12:32-0500
_audit_creation_method            fapswitch 2.2
_symmetry_space_group_name_H-M    P1
_symmetry_Int_Tables_number       1
_space_group_crystal_system       triclinic
_cell_length_a                    12.624603
_cell_length_b                    13.093
_cell_length_c                    15.71477
_cell_angle_alpha                 90.750476
_cell_angle_beta                  103.118557
_cell_angle_gamma                 81.932405
_cell_volume                      2504.25591462

loop_
_atom_site_label
_atom_site_type_symbol
_atom_type_description
_atom_site_fract_x
_atom_site_fract_y
_atom_site_fract_z
_atom_type_partial_charge
C1    C     C_R   0.438411 0.691387 0.486964 0.881656
C2    C     C_R   0.597395 0.199577 0.500581 -0.050703
C3    C     C_R   0.300043 0.839945 0.500818 -0.272301
C4    C     C_R   0.501445 0.500245 0.661963 0.901040
C5    C     C_R   0.270939 0.945662 0.508091 0.532960
C6    C     C_R   0.346674 0.011823 0.501309 -0.316665
C7    C     C_R   0.446959 0.973900 0.478167 0.025829
C8    C     C_R   0.465308 0.869893 0.455072 0.077729
C9    C     C_R   0.529516 0.035899 0.476787 0.112693
C10   C     C_R   0.618664 0.999608 0.438080 0.173596
C11   C     C_R   0.626681 0.900859 0.403989 -0.254360
C12   C     C_3   0.504833 0.497327 0.917947 0.018274
C13   C     C_R   0.551237 0.836399 0.412698 -0.178417
C14   C     C_R   0.526222 0.132989 0.513766 -0.256688
C15   C     C_R   0.685400 0.164540 0.462295 -0.194950
C16   C     C_R   0.561360 0.308612 0.508535 0.858585
C17   C     C_R   0.398404 0.801529 0.476796 -0.189150
C18   C     C_R   0.089582 0.342641 0.382487 -0.318094
C19   C     C_R   0.798827 0.632091 0.600866 0.025357
C20   C     C_R   0.902658 0.662136 0.621225 -0.245534
C21   C     C_R   0.984351 0.612331 0.582860 -0.190740
C22   C     C_R   0.962277 0.531524 0.523733 0.012684
C23   C     C_3   0.481499 0.406145 0.022149 0.538412
C24   C     C_R   0.854923 0.503803 0.505274 0.232539
C25   C     C_R   0.041849 0.477454 0.482289 -0.014263
C26   C     C_R   0.012486 0.397079 0.423685 0.196907
C27   C     C_R   0.906572 0.371601 0.406804 -0.282379
C28   C     C_R   0.498683 0.499494 0.338107 0.874814
C29   C     C_R   0.829133 0.424247 0.447120 -0.195743
C30   C     C_R   0.150187 0.499352 0.496585 -0.047020
C31   C     C_R   0.195154 0.367953 0.399633 0.013021
C32   C     C_3   0.418982 0.571687 0.012657 -0.387391
C33   C     C_3   0.520272 0.589613 0.978355 0.473330
C34   C     C_3   0.497158 0.497853 0.082596 0.018728
C35   C     C_1   0.504943 0.499790 0.751629 -0.186366
C36   C     C_1   0.495974 0.498203 0.248664 -0.169309
C37   C     C_3   0.402912 0.478210 0.951190 -0.272957
C38   C     C_3   0.538922 0.758471 0.013539 0.101569
C39   C     C_3   0.579239 0.854569 0.986659 -0.829069
C40   C     C_3   0.101398 0.039291 0.463602 0.084535
C41   C     C_3   0.997016 0.082302 0.492288 -0.799703
C42   C     C_3   0.777618 0.538631 0.059187 0.111665
C43   C     C_3   0.878034 0.572749 0.119757 -0.818149
C44   C     C_3   0.451022 0.240539 0.984355 0.114996
C45   C     C_3   0.583249 0.422703 0.987803 -0.448649
C46   C     C_3   0.427173 0.139500 0.017507 -0.823217
C47   C     C_3   0.597167 0.516413 0.047926 0.389816
C48   C     C_1   0.506191 0.498831 0.827229 0.026329
C49   C     C_1   0.495441 0.497573 0.173227 0.058098
C50   C     C_R   0.697204 0.063697 0.432573 -0.206136
H1    H     H_    0.465376 0.161058 0.550061 0.151334
H2    H     H_    0.324196 0.461234 0.909237 0.157790
H3    H     H_    0.740968 0.216120 0.451187 0.146223
H4    H     H_    0.692391 0.872738 0.372012 0.151249
H5    H     H_    0.764418 0.037339 0.401764 0.137008
H6    H     H_    0.592325 0.730566 0.077839 0.169464
H7    H     H_    0.452973 0.780161 0.020608 0.141721
H8    H     H_    0.526161 0.886239 0.923623 0.262150
H9    H     H_    0.576547 0.914041 0.037439 0.204875
H10   H     H_    0.665181 0.835343 0.979268 0.255841
H11   H     H_    0.079173 0.988912 0.406478 0.135671
H12   H     H_    0.247065 0.787949 0.516179 0.173760
H13   H     H_    0.136762 0.105755 0.443257 0.135652
H14   H     H_    0.016394 0.134624 0.548153 0.264354
H15   H     H_    0.938423 0.126582 0.437323 0.190986
H16   H     H_    0.958171 0.018329 0.512325 0.258033
H17   H     H_    0.559949 0.760503 0.384842 0.168395
H18   H     H_    0.068487 0.281029 0.337825 0.138795
H19   H     H_    0.180266 0.558458 0.539929 0.126574
H20   H     H_    0.734845 0.670793 0.630204 0.146362
H21   H     H_    0.063348 0.638769 0.600714 0.142541
H22   H     H_    0.751108 0.593122 0.002073 0.171555
H23   H     H_    0.323603 0.092473 0.512408 0.149016
H24   H     H_    0.801696 0.459727 0.036518 0.143288
H25   H     H_    0.907540 0.519168 0.177128 0.266002
H26   H     H_    0.944803 0.572642 0.084331 0.205361
H27   H     H_    0.856920 0.651950 0.142802 0.253418
H28   H     H_    0.529133 0.224591 0.961878 0.139470
H29   H     H_    0.382531 0.269223 0.928154 0.136804
H30   H     H_    0.348803 0.152305 0.039499 0.258665
H31   H     H_    0.420136 0.082425 0.964326 0.207146
H32   H     H_    0.494767 0.108113 0.073141 0.254999
H33   H     H_    0.256198 0.326316 0.368808 0.139931
H34   H     H_    0.883327 0.310537 0.362135 0.152261
H35   H     H_    0.352949 0.631375 0.025181 0.166086
H36   H     H_    0.919741 0.724005 0.666440 0.156339
H37   H     H_    0.749417 0.400991 0.431550 0.208987
H38   H     H_    0.648727 0.362386 0.975314 0.152898
N1    N     N_R   0.222180 0.444680 0.455580 -0.101667
N2    N     N_R   0.776980 0.554790 0.543960 -0.132197
O1    O     O_R   0.366730 0.627160 0.478790 -0.616217
O2    O     O_3   0.174897 0.982053 0.533608 -0.604681
O3    O     O_3   0.694185 0.538467 0.105431 -0.611834
O4    O     O_3   0.459915 0.312055 0.052601 -0.599979
O5    O     O_R   0.544830 0.662520 0.507160 -0.615972
O6    O     O_R   0.410960 0.482330 0.609040 -0.613051
O7    O     O_R   0.589060 0.517690 0.637410 -0.609218
O8    O     O_R   0.455170 0.337480 0.492840 -0.614520
O9    O     O_R   0.633270 0.372840 0.521210 -0.635869
O10   O     O_R   0.410940 0.482310 0.362590 -0.606657
O11   O     O_R   0.589040 0.517670 0.390960 -0.630750
O12   O     O_3   0.543211 0.683542 0.948659 -0.612280
Zn1   Zn    Zn3+2 0.381080 0.476390 0.481050 0.943153
Zn2   Zn    Zn3+2 0.618920 0.523610 0.518950 0.933527

loop_
_geom_bond_atom_site_label_1
_geom_bond_atom_site_label_2
_ccdc_geom_bond_type
C8    C13   A    
C23   C45   S    
C27   C29   A    
C42   O3    S    
C19   C20   A    
C18   C26   A    
C12   C48   S    
C7    C8    A    
C26   C27   A    
C40   H13   S    
C21   H21   S    
C15   H3    S    
C27   H34   S    
C38   C39   S    
C39   H10   S    
C18   H18   S    
O8    Zn1   S    
C46   H31   S    
C43   H26   S    
C31   H33   S    
C15   C50   A    
C12   C37   S    
C24   C29   A    
C46   H32   S    
C28   O11   A    
C31   N1    A    
C22   C25   A    
C20   H36   S    
C2    C16   S    
C9    C10   A    
C28   O10   A    
O9    Zn2   S    
C4    C35   S    
C1    O1    A    
C4    O6    A    
C4    O7    A    
N1    Zn1   S    
C30   N1    A    
C35   C48   T    
C44   C46   S    
C45   C47   S    
C43   H25   S    
C42   H24   S    
C33   O12   S    
C5    O2    S    
C45   H38   S    
C37   H2    S    
C41   H15   S    
C25   C26   A    
C23   C37   S    
C39   H8    S    
O10   Zn1   S    
C40   H11   S    
C32   C34   S    
C9    C14   A    
C38   H7    S    
C14   H1    S    
C1    O5    A    
C23   C34   S    
C39   H9    S    
C42   H22   S    
C47   O3    S    
C32   C37   S    
C40   O2    S    
C2    C15   A    
N2    Zn2   S    
C41   H16   S    
C11   H4    S    
C40   C41   S    
O11   Zn2   S    
C33   C47   S    
C22   C24   A    
C42   C43   S    
C10   C50   A    
C30   H19   S    
O5    Zn2   S    
C6    H23   S    
C13   H17   S    
C3    H12   S    
C25   C30   A    
C7    C9    A    
C34   C49   S    
C44   H29   S    
C50   H5    S    
O1    Zn1   S    
C12   C45   S    
C3    C5    A    
C24   N2    A    
C16   O9    A    
C6    C7    A    
C18   C31   A    
C43   H27   S    
C1    C17   S    
C8    C17   A    
C23   O4    S    
C32   C33   S    
C44   H28   S    
C38   O12   S    
C19   N2    A    
C46   H30   S    
C11   C13   A    
C16   O8    A    
C5    C6    A    
C32   H35   S    
C3    C17   A    
C2    C14   A    
C29   H37   S    
O7    Zn2   S    
C44   O4    S    
C10   C11   A    
C38   H6    S    
C20   C21   A    
C28   C36   S    
O6    Zn1   S    
C19   H20   S    
C34   C47   S    
C41   H14   S    
C12   C33   S    
C21   C22   A    
C36   C49   T    
