data_mof_unit_25978.cif
_audit_creation_date              2012-10-26T19:53:30-0400
_audit_creation_method            fapswitch 2.2
_symmetry_space_group_name_H-M    P1
_symmetry_Int_Tables_number       1
_space_group_crystal_system       triclinic
_cell_length_a                    9.07913
_cell_length_b                    7.883084
_cell_length_c                    10.665582
_cell_angle_alpha                 85.503767
_cell_angle_beta                  90.75336
_cell_angle_gamma                 90.307061
_cell_volume                      760.929996008

loop_
_atom_site_label
_atom_site_type_symbol
_atom_type_description
_atom_site_fract_x
_atom_site_fract_y
_atom_site_fract_z
_atom_type_partial_charge
C1    C     C_R   0.220425 0.499727 0.499944 0.563242
C2    C     C_3   0.632460 0.486840 0.056484 -0.007547
C3    C     C_3   0.519557 0.484774 0.878144 0.002019
C4    C     C_3   0.487033 0.518326 0.121305 -0.004436
C5    C     C_1   0.065485 0.499599 0.500147 -0.018586
C6    C     C_1   0.934517 0.500365 0.500357 -0.019266
C7    C     C_1   0.230881 0.538826 0.874471 0.194329
C8    C     C_1   0.773998 0.482513 0.126497 0.182639
C9    C     C_3   0.372313 0.824964 0.033595 -0.271727
C10   C     C_3   0.311210 0.908933 0.908848 -0.422467
C11   C     C_3   0.643323 0.180489 0.978055 -0.284430
C12   C     C_R   0.779578 0.500250 0.500306 0.562942
C13   C     C_3   0.691056 0.102778 0.109070 -0.420359
C14   C     C_3   0.730612 0.731822 0.902931 -0.275245
C15   C     C_3   0.706173 0.859785 0.789766 -0.389361
C16   C     C_3   0.297726 0.256265 0.116572 -0.260825
C17   C     C_3   0.153706 0.229323 0.044792 -0.437468
C18   C     C_R   0.489505 0.506542 0.259097 0.538767
C19   C     C_R   0.514912 0.494097 0.740546 0.545805
C20   C     C_3   0.448535 0.657594 0.016367 -0.003936
C21   C     C_3   0.558922 0.346400 0.984769 -0.010088
C22   C     C_3   0.595607 0.624427 0.949850 -0.004748
C23   C     C_3   0.409905 0.380080 0.048767 -0.005262
C24   C     C_3   0.372409 0.518959 0.943551 0.008585
Cu1   Cu    Cu3+1 0.500000 0.669080 0.500000 0.987120
Cu2   Cu    Cu3+1 0.500000 0.330920 0.500000 0.990733
H1    H     H_    0.353086 0.849642 0.825704 0.188239
H2    H     H_    0.742551 0.205945 0.919658 0.145931
H3    H     H_    0.731851 0.800915 0.701804 0.196357
H4    H     H_    0.592487 0.908750 0.784250 0.170493
H5    H     H_    0.783741 0.968285 0.795187 0.123265
H6    H     H_    0.777690 0.798397 0.981350 0.146251
H7    H     H_    0.817780 0.642629 0.877472 0.163770
H8    H     H_    0.080680 0.340151 0.051462 0.190991
H9    H     H_    0.171047 0.213999 0.944089 0.161556
H10   H     H_    0.096048 0.114706 0.087333 0.139515
H11   H     H_    0.351332 0.133334 0.142209 0.151051
H12   H     H_    0.189110 0.899638 0.906941 0.157881
H13   H     H_    0.264520 0.306195 0.206315 0.172344
H14   H     H_    0.342788 0.044236 0.896731 0.140796
H15   H     H_    0.280741 0.801672 0.100974 0.152797
H16   H     H_    0.453000 0.907662 0.076354 0.149612
H17   H     H_    0.613174 0.134704 0.182614 0.188886
H18   H     H_    0.695406 0.962873 0.112653 0.133280
H19   H     H_    0.802885 0.147586 0.133754 0.166327
H20   H     H_    0.573324 0.090895 0.931349 0.154145
N1    N     N_1   0.500000 0.076820 0.500000 -0.097693
N2    N     N_1   0.500000 0.923180 0.500000 -0.102807
N3    N     N_1   0.120127 0.554748 0.819974 -0.348403
N4    N     N_1   0.884053 0.481081 0.182441 -0.346285
O1    O     O_R   0.288390 0.642760 0.500000 -0.488843
O2    O     O_R   0.711610 0.357240 0.500000 -0.491824
O3    O     O_R   0.711610 0.642760 0.500000 -0.510334
O4    O     O_R   0.288390 0.357240 0.500000 -0.500000
O5    O     O_R   0.499960 0.642760 0.316850 -0.503962
O6    O     O_R   0.500040 0.357240 0.683150 -0.509285
O7    O     O_R   0.500040 0.642760 0.683150 -0.516973
O8    O     O_R   0.499960 0.357240 0.316850 -0.517503

loop_
_geom_bond_atom_site_label_1
_geom_bond_atom_site_label_2
_ccdc_geom_bond_type
C19   O6    A    
C2    C22   S    
C2    C4    S    
C1    O4    A    
Cu1   O1    S    
C15   H5    S    
C17   H10   S    
Cu2   O2    S    
C1    O1    A    
C9    C10   S    
C9    C20   S    
C9    H15   S    
N1    N2    T    
C10   H1    S    
C10   H12   S    
C16   H11   S    
C23   C24   S    
C4    C18   S    
C14   C22   S    
C14   H7    S    
C3    C24   S    
Cu1   O5    S    
C19   O7    A    
C3    C19   S    
Cu2   O8    S    
Cu1   N2    S    
C7    N3    T    
C9    H16   S    
Cu1   O7    S    
C18   O5    A    
C2    C21   S    
C1    C5    S    
Cu2   N1    S    
C17   H9    S    
C12   O2    A    
C20   C22   S    
C15   H3    S    
C16   C23   S    
C21   C23   S    
C6    C12   S    
C5    C6    T    
Cu2   O4    S    
C11   H2    S    
C3    C21   S    
C17   H8    S    
C16   H13   S    
C7    C24   S    
C4    C20   S    
C8    N4    T    
C11   C13   S    
C13   H19   S    
C15   H4    S    
C10   H14   S    
C4    C23   S    
C20   C24   S    
C14   C15   S    
C16   C17   S    
C11   H20   S    
C13   H17   S    
Cu1   Cu2   S    
C11   C21   S    
C13   H18   S    
C2    C8    S    
Cu1   O3    S    
C12   O3    A    
C14   H6    S    
C18   O8    A    
C3    C22   S    
Cu2   O6    S    
