data_mof_unit_66014.cif
_audit_creation_date              2012-12-10T19:55:50-0500
_audit_creation_method            fapswitch 2.2
_symmetry_space_group_name_H-M    P1
_symmetry_Int_Tables_number       1
_space_group_crystal_system       triclinic
_cell_length_a                    14.956313
_cell_length_b                    14.287299
_cell_length_c                    19.005354
_cell_angle_alpha                 90.408488
_cell_angle_beta                  92.312645
_cell_angle_gamma                 90.29771
_cell_volume                      4057.69306654

loop_
_atom_site_label
_atom_site_type_symbol
_atom_type_description
_atom_site_fract_x
_atom_site_fract_y
_atom_site_fract_z
_atom_type_partial_charge
C1    C     C_R   0.328135 0.499824 0.499847 1.001583
C2    C     C_R   0.671571 0.500343 0.500127 0.810732
C3    C     C_R   0.232324 0.499580 0.500953 -0.118887
C4    C     C_R   0.767101 0.501688 0.501231 -0.249612
C5    C     C_R   0.048041 0.499323 0.503146 0.060228
C6    C     C_R   0.951712 0.500860 0.502919 -0.051179
C7    C     C_R   0.456891 0.103638 0.445879 -0.190973
C8    C     C_R   0.569265 0.895966 0.533905 -0.189775
C9    C     C_R   0.543932 0.105233 0.553956 -0.194332
C10   C     C_R   0.431063 0.894852 0.466387 -0.197781
C11   C     C_R   0.454705 0.202506 0.447294 0.087512
C12   C     C_R   0.567204 0.797100 0.535629 0.091565
C13   C     C_R   0.546239 0.204106 0.552376 0.080089
C14   C     C_R   0.432787 0.796018 0.464598 0.095753
C15   C     C_R   0.500299 0.052998 0.500016 0.059135
C16   C     C_R   0.500258 0.946848 0.500098 0.058466
C17   C     C_R   0.503868 0.499642 0.365465 0.911374
C18   C     C_R   0.498356 0.500520 0.635267 0.885581
C19   C     C_R   0.487902 0.570692 0.247117 0.433250
C20   C     C_R   0.504570 0.417486 0.751633 0.420413
C21   C     C_R   0.528872 0.586940 0.749260 0.401377
C22   C     C_R   0.580523 0.430569 0.262458 0.393210
C23   C     C_R   0.509911 0.572840 0.176369 -0.251404
C24   C     C_R   0.536464 0.416787 0.821398 -0.118762
C25   C     C_R   0.560626 0.584146 0.818715 -0.135281
C26   C     C_R   0.597486 0.431746 0.191165 -0.121188
C27   C     C_R   0.564007 0.503418 0.148417 -0.062702
C28   C     C_R   0.564297 0.499763 0.855347 -0.114633
C29   C     C_R   0.523181 0.499272 0.290631 -0.206184
C30   C     C_R   0.506201 0.502202 0.712989 -0.305615
C31   C     C_R   0.582215 0.501284 0.931563 0.345187
C32   C     C_R   0.580487 0.503313 0.073460 0.343824
C33   C     C_R   0.097526 0.549667 0.554600 -0.251633
C34   C     C_R   0.908089 0.476321 0.563577 -0.138245
C35   C     C_R   0.903938 0.526814 0.441710 -0.132178
C36   C     C_R   0.089965 0.448965 0.450791 -0.252749
C37   C     C_R   0.190605 0.550447 0.553824 0.379185
C38   C     C_R   0.815670 0.477283 0.563915 0.412714
C39   C     C_R   0.811529 0.527565 0.439802 0.420000
C40   C     C_R   0.182836 0.448830 0.449123 0.368683
H1    H     H_    0.482366 0.627198 0.142591 0.167758
H2    H     H_    0.534575 0.351575 0.850059 0.197511
H3    H     H_    0.578735 0.649556 0.844903 0.196177
H4    H     H_    0.639951 0.378275 0.169703 0.189451
H5    H     H_    0.063571 0.588890 0.594505 0.159960
H6    H     H_    0.946119 0.456454 0.610855 0.181668
H7    H     H_    0.938813 0.546691 0.395127 0.185708
H8    H     H_    0.050228 0.410267 0.411354 0.157209
H9    H     H_    0.423756 0.066627 0.402295 0.184208
H10   H     H_    0.624878 0.932731 0.559827 0.184603
H11   H     H_    0.577458 0.069433 0.597365 0.186413
H12   H     H_    0.375494 0.930764 0.440604 0.183827
N1    N     N_R   0.589371 0.421389 0.038052 -0.155169
N2    N     N_R   0.577534 0.583372 0.967396 -0.163357
N3    N     N_R   0.589908 0.420366 0.968169 -0.154588
N4    N     N_R   0.576526 0.584403 0.037100 -0.154519
N5    N     N_R   0.500000 0.252470 0.500000 -0.183484
N6    N     N_R   0.500000 0.747530 0.500000 -0.184085
O1    O     O_R   0.369060 0.579480 0.500010 -0.620452
O2    O     O_R   0.630940 0.420520 0.499990 -0.642382
O3    O     O_R   0.630940 0.579480 0.499990 -0.639719
O4    O     O_R   0.369060 0.420520 0.500010 -0.634786
O5    O     O_R   0.499990 0.579500 0.398140 -0.600872
O6    O     O_R   0.500010 0.420500 0.601860 -0.636894
O7    O     O_R   0.500010 0.579500 0.601860 -0.615456
O8    O     O_R   0.499990 0.420500 0.398140 -0.640684
Zn1   Zn    Zn3+2 0.500000 0.606140 0.500000 0.965511
Zn2   Zn    Zn3+2 0.500000 0.393860 0.500000 0.944340
O9    O     O_3   0.431061 0.636454 0.274347 -0.764075
H13   H     H_    0.412638 0.681246 0.236938 0.345541
O10   O     O_3   0.470062 0.334780 0.724126 -0.707681
H14   H     H_    0.418608 0.350237 0.691896 0.346004
O11   O     O_3   0.520143 0.673929 0.719187 -0.748018
H15   H     H_    0.459901 0.675949 0.695508 0.362384
O12   O     O_3   0.623119 0.362844 0.302616 -0.713750
H16   H     H_    0.640392 0.390442 0.349113 0.346472
O13   O     O_3   0.242044 0.598787 0.604220 -0.757366
H17   H     H_    0.202028 0.630217 0.637275 0.345641
O14   O     O_3   0.776477 0.454758 0.626329 -0.739767
H18   H     H_    0.712361 0.471410 0.623980 0.322930
O15   O     O_3   0.768564 0.552938 0.377009 -0.741189
H19   H     H_    0.702986 0.549801 0.380817 0.326674
O16   O     O_3   0.226400 0.402369 0.396639 -0.779543
H20   H     H_    0.181573 0.370675 0.364674 0.353981
C41   C     C_2   0.400970 0.250101 0.391480 0.484471
H21   H     H_    0.375472 0.319180 0.399748 0.169192
O17   O     O_2   0.382715 0.211319 0.335203 -0.553999
C42   C     C_2   0.637801 0.749159 0.578261 0.498997
H22   H     H_    0.626487 0.680938 0.599913 0.140275
O18   O     O_2   0.710106 0.786869 0.591334 -0.563520
C43   C     C_2   0.602217 0.253098 0.607183 0.519014
H23   H     H_    0.627679 0.322376 0.598882 0.123381
O19   O     O_2   0.622866 0.214984 0.662784 -0.531623
C44   C     C_2   0.361632 0.746995 0.422252 0.485763
H24   H     H_    0.372326 0.678390 0.400678 0.159458
O20   O     O_2   0.289499 0.784161 0.409416 -0.564297

loop_
_geom_bond_atom_site_label_1
_geom_bond_atom_site_label_2
_ccdc_geom_bond_type
O8    Zn2   S    
C22   C29   A    
C33   H5    S    
O11   H15   S    
C2    C4    S    
C9    H11   S    
C10   H12   S    
C1    O4    A    
C25   H3    S    
O15   H19   S    
C26   H4    S    
C20   C30   A    
C41   H21   S    
C25   C28   A    
C7    C11   A    
C26   C27   A    
O6    Zn2   S    
C1    O1    A    
C5    C6    S    
C2    O2    A    
C13   N5    A    
C38   O14   S    
C15   C16   S    
C5    C36   A    
C21   O11   S    
C24   H2    S    
C6    C35   A    
C9    C13   A    
O1    Zn1   S    
C20   C24   A    
O7    Zn1   S    
C5    C33   A    
C20   O10   S    
C18   C30   S    
C23   C27   A    
C2    O3    A    
C12   N6    A    
C41   O17   D    
C35   H7    S    
C8    C16   A    
C13   C43   S    
C40   O16   S    
C44   H24   S    
C22   O12   S    
N2    N4    A    
N1    N3    A    
C14   N6    A    
O5    Zn1   S    
C12   C42   S    
C36   C40   A    
C39   O15   S    
C10   C14   A    
C43   H23   S    
O13   H17   S    
C37   O13   S    
C33   C37   A    
C6    C34   A    
C1    C3    S    
C19   C23   A    
O12   H16   S    
C43   O19   D    
O3    Zn1   S    
O16   H20   S    
C4    C39   A    
C8    C12   A    
C17   O8    A    
C44   O20   D    
C7    H9    S    
C34   H6    S    
C4    C38   A    
C3    C40   A    
C19   O9    S    
N5    Zn2   S    
C19   C29   A    
C8    H10   S    
C32   N1    A    
C21   C25   A    
C27   C32   S    
C34   C38   A    
C28   C31   S    
C24   C28   A    
C42   O18   D    
C21   C30   A    
C23   H1    S    
O4    Zn2   S    
O2    Zn2   S    
C9    C15   A    
O10   H14   S    
C10   C16   A    
C17   C29   S    
C17   O5    A    
C18   O6    A    
C11   C41   S    
C35   C39   A    
C7    C15   A    
C32   N4    A    
C36   H8    S    
C31   N2    A    
O9    H13   S    
O14   H18   S    
N6    Zn1   S    
C42   H22   S    
C3    C37   A    
C22   C26   A    
C31   N3    A    
C11   N5    A    
C18   O7    A    
C14   C44   S    
