data_mof_unit_53452.cif
_audit_creation_date              2012-12-10T17:50:14-0500
_audit_creation_method            fapswitch 2.2
_symmetry_space_group_name_H-M    P1
_symmetry_Int_Tables_number       1
_space_group_crystal_system       triclinic
_cell_length_a                    10.631702
_cell_length_b                    14.709497
_cell_length_c                    14.723664
_cell_angle_alpha                 64.806294
_cell_angle_beta                  103.58505
_cell_angle_gamma                 103.166903
_cell_volume                      2003.76669999

loop_
_atom_site_label
_atom_site_type_symbol
_atom_type_description
_atom_site_fract_x
_atom_site_fract_y
_atom_site_fract_z
_atom_type_partial_charge
C1    C     C_R   0.479636 0.119922 0.312067 0.860236
C2    C     C_R   0.523066 0.880148 0.687875 0.864155
C3    C     C_R   0.514574 0.290993 0.174038 0.352371
C4    C     C_R   0.539152 0.709917 0.826829 0.365717
C5    C     C_R   0.473094 0.360171 0.074687 -0.116975
C6    C     C_R   0.512306 0.640133 0.924475 -0.123485
C7    C     C_R   0.413217 0.321938 0.998205 0.069829
C8    C     C_R   0.515476 0.677950 0.999581 0.070738
C9    C     C_R   0.488292 0.465975 0.050457 0.033193
C10   C     C_R   0.480101 0.534215 0.948214 0.030442
C11   C     C_R   0.427785 0.495660 0.872177 -0.328147
C12   C     C_R   0.499075 0.504231 0.125436 -0.320628
C13   C     C_R   0.391712 0.391172 0.895809 0.424907
C14   C     C_R   0.510254 0.608573 0.101238 0.419511
C15   C     C_R   0.721724 0.286632 0.665673 -0.304413
C16   C     C_R   0.275437 0.711985 0.336537 -0.289696
C17   C     C_R   0.686517 0.204483 0.636905 0.076207
C18   C     C_R   0.312778 0.795197 0.363646 0.070732
C19   C     C_R   0.516441 0.284187 0.510570 0.049931
C20   C     C_R   0.482366 0.715198 0.490307 0.035674
C21   C     C_R   0.547098 0.370456 0.536331 -0.022885
C22   C     C_R   0.449093 0.627625 0.466599 -0.032522
C23   C     C_R   0.259585 0.999931 0.500163 0.835033
C24   C     C_R   0.740422 0.000040 0.499888 0.852607
C25   C     C_R   0.652462 0.369666 0.615915 0.166185
C26   C     C_R   0.343054 0.628093 0.387570 0.178085
C27   C     C_R   0.477817 0.456535 0.486764 0.075997
C28   C     C_R   0.516819 0.540745 0.517396 0.075287
C29   C     C_R   0.621916 0.535100 0.597798 -0.219910
C30   C     C_R   0.370885 0.461237 0.407851 -0.253143
C31   C     C_R   0.687952 0.451351 0.645740 -0.180124
C32   C     C_R   0.305140 0.545162 0.359684 -0.169462
C33   C     C_3   0.008874 0.922957 0.475466 -0.252194
C34   C     C_3   0.991134 0.076975 0.524663 -0.241807
C35   C     C_3   0.931929 0.013086 0.406101 -0.283878
C36   C     C_3   0.068088 0.986847 0.594028 -0.290594
C37   C     C_3   0.877041 0.000949 0.499289 -0.061545
C38   C     C_3   0.122971 0.998988 0.500831 -0.057821
C39   C     C_3   0.953054 0.913125 0.567006 0.457503
C40   C     C_3   0.046948 0.086808 0.433123 0.459303
C41   C     C_R   0.463465 0.187863 0.203736 -0.090198
C42   C     C_R   0.530084 0.812518 0.795955 -0.091590
C43   C     C_R   0.374944 0.215574 0.027468 0.193025
C44   C     C_R   0.521552 0.784081 0.969682 0.195224
C45   C     C_R   0.395097 0.150650 0.130220 -0.368047
C46   C     C_R   0.522903 0.849227 0.867596 -0.384750
Cu1   Cu    Cu3+1 0.465750 0.918270 0.475680 0.967736
Cu2   Cu    Cu3+1 0.534250 0.081730 0.524320 0.973537
H1    H     H_    0.874842 0.025789 0.329261 0.157036
H2    H     H_    0.125193 0.974149 0.670864 0.155645
H3    H     H_    0.562292 0.722148 0.548319 0.173977
H4    H     H_    0.437779 0.277847 0.451501 0.144794
H5    H     H_    0.260744 0.860020 0.324260 0.125930
H6    H     H_    0.739318 0.140061 0.675701 0.130794
H7    H     H_    0.802419 0.285105 0.726765 0.145359
H8    H     H_    0.194196 0.713260 0.275885 0.140538
H9    H     H_    0.655844 0.594369 0.626085 0.166527
H10   H     H_    0.335224 0.401073 0.380945 0.155898
H11   H     H_    0.017987 0.858898 0.457517 0.164172
H12   H     H_    0.982023 0.141037 0.542607 0.167739
H13   H     H_    0.519195 0.929152 0.844674 0.179927
H14   H     H_    0.358396 0.070409 0.152107 0.175311
H15   H     H_    0.405650 0.546946 0.793789 0.188203
H16   H     H_    0.489759 0.452730 0.202960 0.188856
H17   H     H_    0.768125 0.450634 0.707032 0.145637
H18   H     H_    0.223939 0.545358 0.299227 0.150801
N1    N     N_R   0.585750 0.204560 0.560800 -0.183130
N2    N     N_R   0.414250 0.795440 0.439200 -0.187002
O1    O     O_R   0.454850 0.022100 0.338110 -0.609652
O2    O     O_R   0.545150 0.977900 0.661890 -0.611118
O3    O     O_R   0.512700 0.160150 0.379180 -0.526696
O4    O     O_R   0.487300 0.839850 0.620820 -0.536008
O5    O     O_R   0.287930 0.931000 0.479440 -0.606612
O6    O     O_R   0.712070 0.069000 0.520560 -0.597371
O7    O     O_R   0.345780 0.069050 0.520520 -0.571931
O8    O     O_R   0.654220 0.930950 0.479480 -0.565263
O9    O     O_3   0.898387 0.821864 0.637243 -0.722178
H19   H     H_    0.969705 0.779509 0.668961 0.315597
O10   O     O_3   0.101550 0.178086 0.362875 -0.740045
H20   H     H_    0.030249 0.220464 0.331286 0.320513
O11   O     O_3   0.336730 0.356298 0.819496 -0.697609
H21   H     H_    0.331407 0.414453 0.752599 0.321776
O12   O     O_3   0.517489 0.643239 0.176367 -0.697630
H22   H     H_    0.519963 0.585398 0.243422 0.327437
O13   O     O_3   0.584408 0.681812 0.763180 -0.736503
H23   H     H_    0.632244 0.623233 0.805517 0.328036
O14   O     O_3   0.612564 0.320470 0.240712 -0.734760
H24   H     H_    0.671306 0.379570 0.200622 0.326548
N3    N     N_3   0.310757 0.172633 0.954542 -0.496682
H25   H     H_    0.219341 0.133726 0.974196 0.212484
H26   H     H_    0.366070 0.119749 0.959723 0.211575
N4    N     N_3   0.520264 0.826419 0.040918 -0.495235
H27   H     H_    0.438476 0.863971 0.016642 0.208716
H28   H     H_    0.603851 0.880365 0.039575 0.216246

loop_
_geom_bond_atom_site_label_1
_geom_bond_atom_site_label_2
_ccdc_geom_bond_type
C25   C31   A    
C38   C40   S    
O14   H24   S    
C26   C32   A    
C34   C37   S    
O11   H21   S    
O13   H23   S    
C33   C39   S    
C34   C40   S    
C39   O9    S    
Cu2   O2    S    
C28   C29   A    
C35   C37   S    
C2    C42   S    
Cu1   O8    S    
C20   H3    S    
C11   H15   S    
C12   H16   S    
C15   C25   A    
C18   N2    A    
C13   O11   S    
C45   H14   S    
C31   H17   S    
C42   C46   A    
Cu1   O1    S    
C18   H5    S    
C19   H4    S    
O12   H22   S    
C35   H1    S    
C19   N1    A    
C7    C43   A    
N3    H26   S    
C9    C10   A    
C44   N4    S    
C21   C27   A    
C33   H11   S    
C22   C28   A    
C27   C30   A    
C34   H12   S    
Cu2   O7    S    
C14   O12   S    
C23   O5    A    
C2    O4    A    
C44   C46   A    
C16   C26   A    
C37   C39   S    
C17   N1    A    
C46   H13   S    
C3    O14   S    
Cu2   O6    S    
Cu1   O5    S    
C4    C6    A    
C23   O7    A    
C5    C7    A    
C24   O8    A    
C6    C8    A    
C4    O13   S    
O9    H19   S    
C1    O1    A    
C15   H7    S    
C16   H8    S    
C5    C9    A    
Cu1   Cu2   S    
N4    H28   S    
C24   C37   S    
C40   O10   S    
C43   N3    S    
C43   C45   A    
C1    C41   S    
C12   C14   A    
C20   C22   A    
Cu2   O3    S    
Cu1   N2    S    
C36   H2    S    
C32   H18   S    
C15   C17   A    
C21   C25   A    
C3    C41   A    
C8    C14   A    
C19   C21   A    
C20   N2    A    
C36   C39   S    
C8    C44   A    
C29   H9    S    
C3    C5    A    
C6    C10   A    
C23   C38   S    
C33   C38   S    
C36   C38   S    
C35   C40   S    
C29   C31   A    
C30   C32   A    
C11   C13   A    
C24   O6    A    
C4    C42   A    
C1    O3    A    
C30   H10   S    
N4    H27   S    
C33   C35   S    
C34   C36   S    
Cu2   N1    S    
C9    C12   A    
Cu1   O4    S    
C10   C11   A    
O10   H20   S    
C7    C13   A    
C16   C18   A    
C22   C26   A    
C27   C28   A    
C41   C45   A    
N3    H25   S    
C2    O2    A    
C17   H6    S    
