data_mof_unit_66296.cif
_audit_creation_date              2012-10-26T17:22:16-0400
_audit_creation_method            fapswitch 2.2
_symmetry_space_group_name_H-M    P1
_symmetry_Int_Tables_number       1
_space_group_crystal_system       triclinic
_cell_length_a                    21.730791
_cell_length_b                    21.730763
_cell_length_c                    18.344486
_cell_angle_alpha                 89.99924
_cell_angle_beta                  89.998923
_cell_angle_gamma                 90.000095
_cell_volume                      8662.75551642

loop_
_atom_site_label
_atom_site_type_symbol
_atom_type_description
_atom_site_fract_x
_atom_site_fract_y
_atom_site_fract_z
_atom_type_partial_charge
C1    C     C_R   1.000000 0.381507 0.500000 0.533025
C2    C     C_R   0.500000 0.000000 0.360280 0.541350
C3    C     C_3   0.781958 0.497994 0.208897 -0.455172
C4    C     C_3   0.499263 0.180254 0.138564 -0.267717
C5    C     C_3   0.498936 0.218033 0.208905 -0.455140
C6    C     C_3   0.180255 0.502090 0.138546 -0.267703
C7    C     C_3   0.218035 0.503003 0.208880 -0.455118
C8    C     C_3   0.500731 0.180259 0.861435 -0.267715
C9    C     C_3   0.501062 0.218040 0.791095 -0.455151
C10   C     C_3   0.819745 0.501389 0.861439 -0.267704
C11   C     C_3   0.781966 0.501997 0.791099 -0.455110
C12   C     C_3   0.498764 0.819745 0.861438 -0.267703
C13   C     C_R   1.000000 0.500000 0.639720 0.541355
C14   C     C_3   0.498224 0.781965 0.791096 -0.455128
C15   C     C_3   0.180261 0.497914 0.861454 -0.267708
C16   C     C_3   0.218044 0.497021 0.791121 -0.455174
C17   C     C_R   0.500000 1.000000 0.639720 0.541349
C18   C     C_R   0.500000 1.000000 0.860280 0.541349
C19   C     C_R   0.000000 0.500000 0.860280 0.541352
C20   C     C_R   0.500000 0.000000 0.139720 0.541349
C21   C     C_R   1.000000 0.500000 0.139720 0.541353
C22   C     C_1   0.000000 0.500000 0.282680 -0.069704
C23   C     C_1   0.499999 0.000001 0.282680 -0.069711
C24   C     C_1   0.999999 0.500000 0.717320 -0.069706
C25   C     C_R   0.381508 1.000000 0.500000 0.533015
C26   C     C_1   0.500001 0.999999 0.717320 -0.069711
C27   C     C_1   0.500001 0.999999 0.782680 -0.069711
C28   C     C_1   1.000000 0.500001 0.782680 -0.069704
C29   C     C_1   0.499999 0.000001 0.217320 -0.069711
C30   C     C_1   0.000000 0.499999 0.217320 -0.069703
C31   C     C_R   0.001411 0.283255 0.567320 -0.009675
C32   C     C_R   0.283255 0.999610 0.567336 -0.009685
C33   C     C_R   0.999262 0.716742 0.567336 -0.009680
C34   C     C_R   0.716741 0.000462 0.567338 -0.009678
C35   C     C_R   0.000741 0.716744 0.432669 -0.009678
C36   C     C_R   0.000000 0.618492 0.500002 0.533017
C37   C     C_R   0.283258 0.000393 0.432663 -0.009681
C38   C     C_R   0.998582 0.283256 0.432682 -0.009678
C39   C     C_R   0.716744 0.999539 0.432663 -0.009680
C40   C     C_R   0.500611 0.783256 0.067335 -0.009679
C41   C     C_R   0.783256 0.499309 0.067332 -0.009676
C42   C     C_R   0.499635 0.216742 0.067337 -0.009680
C43   C     C_R   0.216743 0.501037 0.067328 -0.009681
C44   C     C_R   0.500363 0.216744 0.932663 -0.009684
C45   C     C_R   0.783258 0.500689 0.932663 -0.009680
C46   C     C_R   0.499387 0.783258 0.932664 -0.009677
C47   C     C_R   0.618492 0.000000 0.500000 0.533018
C48   C     C_R   0.216745 0.498965 0.932673 -0.009678
C49   C     C_R   0.001387 0.218863 0.566148 -0.114947
C50   C     C_R   0.218862 0.999617 0.566163 -0.114970
C51   C     C_R   0.999275 0.781135 0.566164 -0.114944
C52   C     C_R   0.781133 0.000455 0.566167 -0.114928
C53   C     C_R   0.000724 0.781135 0.433841 -0.114951
C54   C     C_R   0.218865 0.000385 0.433835 -0.114931
C55   C     C_R   0.998609 0.218865 0.433853 -0.114942
C56   C     C_R   0.781135 0.999546 0.433836 -0.114966
C57   C     C_R   0.500600 0.718865 0.066163 -0.114955
C58   C     C_R   0.500000 0.881508 0.000000 0.533020
C59   C     C_R   0.718864 0.499325 0.066160 -0.114957
C60   C     C_R   0.499642 0.281134 0.066165 -0.114940
C61   C     C_R   0.281135 0.501017 0.066156 -0.114937
C62   C     C_R   0.500356 0.281137 0.933835 -0.114959
C63   C     C_R   0.718866 0.500676 0.933835 -0.114936
C64   C     C_R   0.499399 0.718867 0.933835 -0.114936
C65   C     C_R   0.281138 0.498984 0.933845 -0.114956
C66   C     C_R   0.999999 0.186771 0.500000 -0.019673
C67   C     C_R   0.186771 0.000001 0.499999 -0.019677
C68   C     C_R   0.999999 0.813229 0.500002 -0.019677
C69   C     C_R   0.881508 0.500000 0.999999 0.533017
C70   C     C_R   0.813228 0.000000 0.500001 -0.019682
C71   C     C_R   0.500000 0.686772 0.999999 -0.019681
C72   C     C_R   0.686772 0.500001 0.999998 -0.019679
C73   C     C_R   0.499999 0.313229 0.000000 -0.019678
C74   C     C_R   0.313229 0.500000 0.000001 -0.019674
C75   C     C_R   0.880594 1.000000 0.500000 0.554968
C76   C     C_R   1.000000 0.119406 0.500000 0.554964
C77   C     C_R   0.119405 0.000000 0.500000 0.554979
C78   C     C_R   0.999999 0.880594 0.500001 0.554976
C79   C     C_R   0.380595 0.500000 0.000000 0.554974
C80   C     C_R   0.500000 0.118492 1.000000 0.533015
C81   C     C_R   0.500000 0.619406 1.000000 0.554969
C82   C     C_R   0.619406 0.500000 0.999999 0.554974
C83   C     C_R   0.500000 0.380595 0.000000 0.554978
C84   C     C_R   0.999999 0.314853 0.500002 0.036352
C85   C     C_R   0.314853 0.000001 0.500000 0.036367
C86   C     C_R   0.000001 0.685146 0.500003 0.036364
C87   C     C_R   0.685145 0.000000 0.500000 0.036365
C88   C     C_R   0.500000 0.814855 1.000000 0.036363
C89   C     C_R   0.814854 0.500000 0.999998 0.036364
C90   C     C_R   0.499999 0.185146 1.000000 0.036367
C91   C     C_R   0.118493 0.500000 1.000000 0.533018
C92   C     C_R   0.185147 0.500000 0.000000 0.036360
C93   C     C_3   0.002845 0.319738 0.638530 -0.267692
C94   C     C_3   0.004030 0.281956 0.708859 -0.455152
C95   C     C_3   0.319740 0.999214 0.638563 -0.267719
C96   C     C_3   0.281958 0.998860 0.708902 -0.455166
C97   C     C_3   0.998514 0.680256 0.638560 -0.267708
C98   C     C_3   0.997865 0.718035 0.708898 -0.455127
C99   C     C_3   0.680253 0.000932 0.638566 -0.267709
C100  C     C_3   0.718032 0.001322 0.708908 -0.455120
C101  C     C_3   0.001499 0.680259 0.361444 -0.267711
C102  C     C_R   0.000000 0.500000 0.360280 0.541357
C103  C     C_3   0.002151 0.718040 0.291106 -0.455161
C104  C     C_3   0.319747 0.000793 0.361436 -0.267721
C105  C     C_3   0.281968 0.001141 0.291097 -0.455134
C106  C     C_3   0.997142 0.319742 0.361470 -0.267689
C107  C     C_3   0.995899 0.281960 0.291143 -0.455124
C108  C     C_3   0.680260 0.999070 0.361435 -0.267707
C109  C     C_3   0.718042 0.998689 0.291093 -0.455154
C110  C     C_3   0.501234 0.819741 0.138561 -0.267701
C111  C     C_3   0.501765 0.781958 0.208903 -0.455140
C112  C     C_3   0.819740 0.498603 0.138558 -0.267709
Cu1   Cu    Cu3+1 0.938190 0.500000 0.500000 0.908099
Cu2   Cu    Cu3+1 1.000000 0.000000 0.427470 0.910184
Cu3   Cu    Cu3+1 0.500000 0.500000 0.072530 0.910182
Cu4   Cu    Cu3+1 0.500000 0.500000 0.927470 0.910181
Cu5   Cu    Cu3+1 0.500000 0.061810 0.500000 0.908102
Cu6   Cu    Cu3+1 0.061810 0.500000 0.500000 0.908109
Cu7   Cu    Cu3+1 0.500000 0.938190 0.500000 0.908108
Cu8   Cu    Cu3+1 0.438190 0.000000 0.000000 0.908103
Cu9   Cu    Cu3+1 0.000000 0.561810 0.000000 0.908104
Cu10  Cu    Cu3+1 0.561810 0.000000 0.000000 0.908105
Cu11  Cu    Cu3+1 0.000000 0.438190 0.000000 0.908123
Cu12  Cu    Cu3+1 0.000000 0.000000 0.572530 0.910183
H1    H     H_    0.002489 0.193091 0.616471 0.141770
H2    H     H_    0.693093 0.498792 0.116498 0.141778
H3    H     H_    0.499360 0.306902 0.116505 0.141788
H4    H     H_    0.306904 0.501821 0.116488 0.141779
H5    H     H_    0.500636 0.306906 0.883495 0.141778
H6    H     H_    0.693097 0.501209 0.883498 0.141785
H7    H     H_    0.498925 0.693097 0.883496 0.141788
H8    H     H_    0.306908 0.498180 0.883514 0.141772
H9    H     H_    0.962131 0.252898 0.713092 0.151054
H10   H     H_    0.045976 0.252805 0.711040 0.150530
H11   H     H_    0.004897 0.313607 0.756394 0.151888
H12   H     H_    0.193094 0.999315 0.616503 0.141771
H13   H     H_    0.044247 0.349777 0.638440 0.159918
H14   H     H_    0.961641 0.350004 0.640592 0.158559
H15   H     H_    0.252861 0.040778 0.712403 0.150801
H16   H     H_    0.252847 0.956918 0.711801 0.150764
H17   H     H_    0.313601 0.998610 0.756453 0.151925
H18   H     H_    0.349875 0.957883 0.639242 0.159408
H19   H     H_    0.349911 0.040509 0.639854 0.159073
H20   H     H_    0.039773 0.747126 0.712654 0.150932
H21   H     H_    0.955916 0.747153 0.711550 0.150668
H22   H     H_    0.997407 0.686385 0.756442 0.151946
H23   H     H_    0.998702 0.806904 0.616500 0.141782
H24   H     H_    0.957162 0.650147 0.638974 0.159576
H25   H     H_    0.039783 0.650058 0.640116 0.158935
H26   H     H_    0.747123 0.959401 0.712452 0.150853
H27   H     H_    0.747150 0.043261 0.711778 0.150768
H28   H     H_    0.686380 0.001605 0.756453 0.151948
H29   H     H_    0.650137 0.042277 0.639197 0.159453
H30   H     H_    0.650063 0.959652 0.639905 0.159054
H31   H     H_    0.960237 0.747121 0.287342 0.150927
H32   H     H_    0.044094 0.747168 0.288465 0.150660
H33   H     H_    0.002625 0.686393 0.243562 0.151912
H34   H     H_    0.806902 0.000815 0.616506 0.141796
H35   H     H_    0.042855 0.650155 0.361036 0.159560
H36   H     H_    0.960233 0.650057 0.359883 0.158916
H37   H     H_    0.252870 0.959223 0.287602 0.150836
H38   H     H_    0.252858 0.043083 0.288193 0.150795
H39   H     H_    0.313613 0.001385 0.243547 0.151954
H40   H     H_    0.349877 0.042127 0.360758 0.159427
H41   H     H_    0.349923 0.959502 0.360147 0.159093
H42   H     H_    0.037786 0.252890 0.286871 0.151050
H43   H     H_    0.953943 0.252821 0.289005 0.150553
H44   H     H_    0.995008 0.313610 0.243607 0.151922
H45   H     H_    0.001295 0.806906 0.383505 0.141780
H46   H     H_    0.955758 0.349805 0.361585 0.159956
H47   H     H_    0.038364 0.349984 0.359386 0.158565
H48   H     H_    0.747131 0.040613 0.287556 0.150821
H49   H     H_    0.747162 0.956752 0.288218 0.150733
H50   H     H_    0.686392 0.998409 0.243548 0.151920
H51   H     H_    0.650147 0.957723 0.360800 0.159433
H52   H     H_    0.650067 0.040348 0.360099 0.159038
H53   H     H_    0.459849 0.752871 0.212568 0.150856
H54   H     H_    0.543708 0.752837 0.211652 0.150714
H55   H     H_    0.502149 0.813609 0.256447 0.151926
H56   H     H_    0.193098 0.000689 0.383495 0.141793
H57   H     H_    0.542583 0.849853 0.139074 0.159528
H58   H     H_    0.459959 0.849935 0.140022 0.158953
H59   H     H_    0.752875 0.539909 0.212626 0.150921
H60   H     H_    0.752833 0.456051 0.211577 0.150650
H61   H     H_    0.813607 0.497552 0.256442 0.151894
H62   H     H_    0.849848 0.457250 0.139005 0.159505
H63   H     H_    0.849939 0.539873 0.140081 0.158946
H64   H     H_    0.540854 0.247133 0.212383 0.150822
H65   H     H_    0.456994 0.247143 0.211830 0.150788
H66   H     H_    0.498707 0.186387 0.256454 0.151943
H67   H     H_    0.997509 0.193094 0.383530 0.141770
H68   H     H_    0.457931 0.150121 0.139264 0.159409
H69   H     H_    0.540557 0.150081 0.139834 0.159094
H70   H     H_    0.247114 0.461102 0.212864 0.151002
H71   H     H_    0.247164 0.544954 0.211300 0.150617
H72   H     H_    0.186387 0.503655 0.256423 0.151954
H73   H     H_    0.150166 0.543458 0.138726 0.159742
H74   H     H_    0.150038 0.460841 0.140336 0.158798
H75   H     H_    0.459143 0.247139 0.787613 0.150805
H76   H     H_    0.543003 0.247151 0.788174 0.150773
H77   H     H_    0.501295 0.186395 0.743545 0.151934
H78   H     H_    0.806907 0.999185 0.383496 0.141773
H79   H     H_    0.542060 0.150122 0.860735 0.159402
H80   H     H_    0.459434 0.150089 0.860166 0.159089
H81   H     H_    0.752875 0.460087 0.787376 0.150938
H82   H     H_    0.752848 0.543945 0.788412 0.150672
H83   H     H_    0.813617 0.502428 0.743555 0.151962
H84   H     H_    0.849858 0.542738 0.860988 0.159544
H85   H     H_    0.849939 0.460116 0.859919 0.158984
H86   H     H_    0.540139 0.752876 0.787426 0.150870
H87   H     H_    0.456279 0.752846 0.788352 0.150732
H88   H     H_    0.497838 0.813618 0.743552 0.151935
H89   H     H_    0.501074 0.693094 0.116502 0.141777
H90   H     H_    0.457417 0.849861 0.860929 0.159536
H91   H     H_    0.540040 0.849937 0.859974 0.158957
H92   H     H_    0.247120 0.538925 0.787150 0.150984
H93   H     H_    0.247177 0.455074 0.788688 0.150589
H94   H     H_    0.186398 0.496377 0.743577 0.151885
H95   H     H_    0.150180 0.456541 0.861266 0.159696
H96   H     H_    0.150037 0.539158 0.859672 0.158763
O1    O     O_R   0.947800 0.409840 0.500040 -0.512239
O2    O     O_R   0.909840 0.552200 0.000040 -0.512225
O3    O     O_R   0.552200 0.090160 0.000040 -0.512223
O4    O     O_R   0.090160 0.447800 0.000040 -0.512226
O5    O     O_R   0.447800 0.090160 0.999960 -0.512224
O6    O     O_R   0.909840 0.447800 0.999960 -0.512228
O7    O     O_R   0.552200 0.909840 0.999960 -0.512224
O8    O     O_R   0.090160 0.552200 0.999960 -0.512232
O9    O     O_R   0.947800 0.500020 0.394230 -0.508826
O10   O     O_R   0.500020 0.052200 0.394230 -0.508705
O11   O     O_R   0.052200 0.499980 0.394230 -0.508594
O12   O     O_R   0.409840 0.052200 0.500040 -0.512225
O13   O     O_R   0.499980 0.947800 0.394230 -0.508725
O14   O     O_R   0.947800 0.499980 0.605770 -0.508602
O15   O     O_R   0.500020 0.947800 0.605770 -0.508704
O16   O     O_R   0.052200 0.500020 0.605770 -0.508819
O17   O     O_R   0.499980 0.052200 0.605770 -0.508727
O18   O     O_R   0.447800 0.000020 0.894230 -0.508758
O19   O     O_R   0.000020 0.552200 0.894230 -0.508658
O20   O     O_R   0.552200 0.999980 0.894230 -0.508672
O21   O     O_R   0.999980 0.447800 0.894230 -0.508763
O22   O     O_R   0.447800 0.999980 0.105770 -0.508672
O23   O     O_R   0.052200 0.590160 0.500040 -0.512229
O24   O     O_R   0.000020 0.447800 0.105770 -0.508646
O25   O     O_R   0.552200 0.000020 0.105770 -0.508758
O26   O     O_R   0.999980 0.552200 0.105770 -0.508773
O27   O     O_R   0.909720 0.000020 0.561240 -0.515096
O28   O     O_R   0.000020 0.090280 0.561240 -0.515138
O29   O     O_R   0.090280 0.999980 0.561240 -0.515187
O30   O     O_R   0.999980 0.909720 0.561240 -0.515133
O31   O     O_R   0.909720 0.999980 0.438760 -0.515183
O32   O     O_R   0.000020 0.909720 0.438760 -0.515145
O33   O     O_R   0.090280 0.000020 0.438760 -0.515100
O34   O     O_R   0.590160 0.947800 0.500040 -0.512223
O35   O     O_R   0.999980 0.090280 0.438760 -0.515126
O36   O     O_R   0.409720 0.500020 0.061240 -0.515119
O37   O     O_R   0.500020 0.590280 0.061240 -0.515161
O38   O     O_R   0.590280 0.499980 0.061240 -0.515157
O39   O     O_R   0.499980 0.409720 0.061240 -0.515120
O40   O     O_R   0.409720 0.499980 0.938760 -0.515156
O41   O     O_R   0.500020 0.409720 0.938760 -0.515165
O42   O     O_R   0.590280 0.500020 0.938760 -0.515120
O43   O     O_R   0.499980 0.590280 0.938760 -0.515116
O44   O     O_R   0.947800 0.590160 0.499960 -0.512223
O45   O     O_R   0.409840 0.947800 0.499960 -0.512224
O46   O     O_R   0.052200 0.409840 0.499960 -0.512227
O47   O     O_R   0.590160 0.052200 0.499960 -0.512225
O48   O     O_R   0.447800 0.909840 0.000040 -0.512226

loop_
_geom_bond_atom_site_label_1
_geom_bond_atom_site_label_2
_ccdc_geom_bond_type
C41   C89   A    
C99   H30   S    
C25   O12   A    
C95   H19   S    
C93   C94   S    
Cu8   O48   S    
C91   O8    A    
C35   C53   A    
C78   O32   A    
C106  H47   S    
C4    H68   S    
C19   O21   A    
C95   C96   S    
C67   C77   S    
C12   H90   S    
C69   O6    A    
C65   H8    S    
C112  H63   S    
C3    H59   S    
C97   C98   S    
C44   C90   A    
Cu11  O6    S    
C100  H28   S    
C1    C84   S    
C20   O22   A    
Cu2   O35   S    
C26   C27   T    
Cu9   O8    S    
C14   H87   S    
C17   C26   S    
C23   C29   T    
C37   C85   A    
Cu12  O28   S    
C44   C62   A    
C5    H66   S    
Cu5   Cu7   S    
C112  H62   S    
C35   C86   A    
C109  H49   S    
C63   H6    S    
C82   O38   A    
C106  C107  S    
Cu2   O31   S    
C15   C16   S    
Cu7   O45   S    
C108  H51   S    
C99   H29   S    
Cu5   O10   S    
C94   H9    S    
C108  C109  S    
C1    O1    A    
C69   O2    A    
C64   C71   A    
C16   H92   S    
C53   C68   A    
C10   H84   S    
C110  C111  S    
Cu11  O24   S    
Cu12  O30   S    
C93   H14   S    
C2    O13   A    
C96   H17   S    
Cu6   O46   S    
Cu7   O13   S    
Cu10  O20   S    
C38   C55   A    
C99   C100  S    
C110  H57   S    
C18   O20   A    
C8    C9    S    
C41   C112  S    
C82   O42   A    
C102  O9    A    
Cu9   O2    S    
C105  H39   S    
C62   C73   A    
C16   H94   S    
Cu4   O41   S    
C11   H82   S    
C39   C87   A    
C48   C65   A    
C45   C89   A    
C3    H60   S    
C3    C112  S    
C21   C30   S    
Cu4   O40   S    
C9    H76   S    
C53   H45   S    
C59   C72   A    
C103  H31   S    
Cu2   Cu12  S    
C32   C85   A    
C104  H41   S    
C107  H42   S    
Cu5   O17   S    
C101  C103  S    
C96   H15   S    
C106  H46   S    
C62   H5    S    
C76   O28   A    
C11   H83   S    
C15   C48   S    
C31   C49   A    
C75   O31   A    
C60   C73   A    
C3    H61   S    
C104  C105  S    
Cu8   Cu10  S    
C91   O4    A    
C34   C99   S    
C6    C7    S    
C46   C88   A    
C20   C29   S    
C17   O15   A    
C100  H27   S    
C68   C78   S    
Cu1   O14   S    
C107  H43   S    
C49   C66   A    
C1    O46   A    
C58   O48   A    
C8    C44   S    
C8    H80   S    
C52   C70   A    
C111  H55   S    
C101  H36   S    
C52   H34   S    
C12   C46   S    
Cu3   O37   S    
C42   C60   A    
C91   C92   S    
C6    H74   S    
C14   H86   S    
C109  H50   S    
C103  H33   S    
C40   C110  S    
C54   C67   A    
C98   H22   S    
C100  H26   S    
C31   C93   S    
C45   C63   A    
C57   C71   A    
C65   C74   A    
C13   C24   S    
C46   C64   A    
C59   H2    S    
Cu1   O44   S    
C47   C87   S    
C38   C106  S    
C33   C86   A    
C96   H16   S    
Cu12  O29   S    
C19   O19   A    
C34   C87   A    
C111  H54   S    
Cu8   O18   S    
C10   H85   S    
C39   C56   A    
C64   H7    S    
C51   H23   S    
Cu6   O11   S    
C79   O36   A    
Cu2   O32   S    
C10   C45   S    
C25   C85   S    
C94   H11   S    
C77   O33   A    
C16   H93   S    
Cu8   O22   S    
C39   C108  S    
C7    H70   S    
C83   O39   A    
C19   C28   S    
Cu1   O1    S    
Cu5   O47   S    
C9    H77   S    
C47   O34   A    
Cu10  O25   S    
C37   C54   A    
C5    H64   S    
Cu7   O15   S    
C20   O25   A    
C12   C14   S    
C81   O43   A    
C56   C70   A    
Cu10  O3    S    
C21   O24   A    
C102  O11   A    
C80   O5    A    
C97   H24   S    
C105  H37   S    
C83   O41   A    
C77   O29   A    
C79   O40   A    
C7    H71   S    
C58   O7    A    
Cu7   O34   S    
C36   O44   A    
Cu11  O21   S    
C55   C66   A    
C75   O27   A    
Cu6   O23   S    
C43   C61   A    
C50   C67   A    
Cu3   O39   S    
C47   O47   A    
Cu2   O33   S    
C107  H44   S    
Cu9   O26   S    
C40   C57   A    
C22   C30   T    
C98   H20   S    
C105  H38   S    
C36   O23   A    
C81   O37   A    
C8    H79   S    
C18   C27   S    
C24   C28   T    
C57   H89   S    
C4    C5    S    
C35   C101  S    
Cu3   O38   S    
C58   C88   S    
C104  H40   S    
C37   C104  S    
C25   O45   A    
C109  H48   S    
Cu4   O42   S    
Cu1   O9    S    
C21   O26   A    
C98   H21   S    
C71   C81   S    
C61   C74   A    
C33   C51   A    
C49   H1    S    
Cu11  O4    S    
Cu5   O12   S    
C34   C52   A    
C43   C92   A    
C22   C102  S    
C14   H88   S    
C74   C79   S    
C36   C86   S    
C40   C88   A    
Cu12  O27   S    
C15   H96   S    
C101  H35   S    
C5    H65   S    
Cu4   O43   S    
Cu9   O19   S    
C80   O3    A    
C31   C84   A    
C55   H67   S    
Cu3   Cu4   S    
C4    C42   S    
C78   O30   A    
Cu10  O7    S    
C108  H52   S    
C60   H3    S    
C63   C72   A    
C94   H10   S    
C54   H56   S    
C32   C50   A    
C61   H4    S    
C33   C97   S    
C51   C68   A    
C80   C90   S    
C69   C89   S    
Cu9   Cu11  S    
C93   H13   S    
C10   C11   S    
C2    O10   A    
C9    H75   S    
Cu1   Cu6   S    
C6    H73   S    
Cu6   O16   S    
C103  H32   S    
C32   C95   S    
C56   H78   S    
C4    H69   S    
C110  H58   S    
C95   H18   S    
C48   C92   A    
C38   C84   A    
C13   O16   A    
C2    C23   S    
C111  H53   S    
C97   H25   S    
C6    C43   S    
C70   C75   S    
C50   H12   S    
C11   H81   S    
C12   H91   S    
C42   C90   A    
C7    H72   S    
C15   H95   S    
Cu8   O5    S    
C73   C83   S    
C72   C82   S    
C66   C76   S    
C18   O18   A    
C41   C59   A    
Cu3   O36   S    
C13   O14   A    
C76   O35   A    
C17   O17   A    
