data_mof_unit_49139.cif
_audit_creation_date              2012-12-11T14:30:22-0500
_audit_creation_method            fapswitch 2.2
_symmetry_space_group_name_H-M    P1
_symmetry_Int_Tables_number       1
_space_group_crystal_system       triclinic
_cell_length_a                    12.686777
_cell_length_b                    12.686775
_cell_length_c                    27.017174
_cell_angle_alpha                 90.000015
_cell_angle_beta                  90.000025
_cell_angle_gamma                 120.000213
_cell_volume                      3765.92930665

loop_
_atom_site_label
_atom_site_type_symbol
_atom_type_description
_atom_site_fract_x
_atom_site_fract_y
_atom_site_fract_z
_atom_type_partial_charge
C1    C     C_R   0.555646 0.456744 0.821369 0.534976
C2    C     C_R   0.455617 0.558867 0.177386 0.539287
C3    C     C_R   0.087068 0.371177 0.482405 -0.115250
C4    C     C_R   0.284109 0.912932 0.017594 -0.115250
C5    C     C_R   0.628822 0.715892 0.482406 -0.115250
C6    C     C_R   0.292143 0.924262 0.533247 -0.116143
C7    C     C_R   0.075737 0.367881 0.966753 -0.116143
C8    C     C_R   0.632117 0.707857 0.533247 -0.116142
C9    C     C_R   0.292143 0.924262 0.966753 -0.116143
C10   C     C_R   0.075738 0.367882 0.533247 -0.116143
C11   C     C_R   0.632119 0.707856 0.966753 -0.116143
C12   C     C_1   0.984099 0.672430 0.138534 0.225604
C13   C     C_R   0.441133 0.896750 0.322614 0.539286
C14   C     C_1   0.688331 0.015901 0.361467 0.225604
C15   C     C_1   0.327566 0.311669 0.138533 0.225604
C16   C     C_1   0.984102 0.672433 0.361466 0.225604
C17   C     C_1   0.688331 0.015899 0.138533 0.225604
C18   C     C_1   0.327571 0.311668 0.361466 0.225604
C19   C     C_1   0.709549 0.019274 0.637731 0.228284
C20   C     C_1   0.980725 0.690275 0.862269 0.228284
C21   C     C_1   0.309725 0.290448 0.637731 0.228284
C22   C     C_1   0.709549 0.019274 0.862269 0.228284
C23   C     C_1   0.980725 0.690275 0.637731 0.228284
C24   C     C_R   0.103250 0.544383 0.177386 0.539287
C25   C     C_1   0.309725 0.290450 0.862269 0.228284
C26   C     C_1   0.936307 0.762809 0.053118 0.210603
C27   C     C_1   0.826502 0.063692 0.446882 0.210602
C28   C     C_1   0.237189 0.173496 0.053118 0.210603
C29   C     C_1   0.936306 0.762809 0.446882 0.210603
C30   C     C_1   0.826503 0.063692 0.053118 0.210602
C31   C     C_1   0.237188 0.173497 0.446882 0.210602
C32   C     C_1   0.834726 0.064810 0.548754 0.207919
C33   C     C_1   0.935191 0.769916 0.951246 0.207918
C34   C     C_1   0.230082 0.165273 0.548754 0.207919
C35   C     C_R   0.015519 0.523011 0.970619 0.041211
C36   C     C_1   0.834726 0.064809 0.951246 0.207918
C37   C     C_1   0.935189 0.769915 0.548754 0.207920
C38   C     C_1   0.230082 0.165273 0.951246 0.207919
C39   C     C_R   0.507492 0.984481 0.529381 0.041211
C40   C     C_R   0.476989 0.492507 0.970619 0.041211
C41   C     C_R   0.015519 0.523011 0.529381 0.041211
C42   C     C_R   0.507492 0.984481 0.970619 0.041211
C43   C     C_R   0.476988 0.492507 0.529381 0.041211
C44   C     C_R   0.499779 0.973851 0.477211 0.041087
C45   C     C_R   0.901098 0.444354 0.678631 0.534975
C46   C     C_R   0.026149 0.525927 0.022789 0.041086
C47   C     C_R   0.474072 0.500221 0.477211 0.041086
C48   C     C_R   0.499779 0.973851 0.022789 0.041087
C49   C     C_R   0.026148 0.525927 0.477211 0.041087
C50   C     C_R   0.474072 0.500221 0.022789 0.041087
C51   C     C_R   0.964549 0.684479 0.974337 -0.045180
C52   C     C_R   0.719930 0.035451 0.525663 -0.045180
C53   C     C_R   0.315519 0.280069 0.974337 -0.045180
C54   C     C_R   0.964548 0.684479 0.525663 -0.045180
C55   C     C_R   0.719930 0.035450 0.974337 -0.045180
C56   C     C_R   0.543256 0.098902 0.821369 0.534975
C57   C     C_R   0.315520 0.280069 0.525663 -0.045180
C58   C     C_R   0.714715 0.032580 0.473241 -0.048229
C59   C     C_R   0.967419 0.682134 0.026760 -0.048229
C60   C     C_R   0.317865 0.285285 0.473240 -0.048229
C61   C     C_R   0.714714 0.032579 0.026759 -0.048229
C62   C     C_R   0.967419 0.682134 0.473240 -0.048229
C63   C     C_R   0.317864 0.285285 0.026759 -0.048229
C64   C     C_R   0.975113 0.593606 0.892829 -0.035394
C65   C     C_R   0.618492 0.024887 0.607171 -0.035394
C66   C     C_R   0.406394 0.381507 0.892829 -0.035394
C67   C     C_R   0.555645 0.456744 0.678631 0.534975
C68   C     C_R   0.975113 0.593606 0.607170 -0.035394
C69   C     C_R   0.618492 0.024886 0.892829 -0.035394
C70   C     C_R   0.406394 0.381506 0.607170 -0.035395
C71   C     C_R   0.588255 0.985555 0.395175 -0.045142
C72   C     C_R   0.014445 0.602700 0.104825 -0.045141
C73   C     C_R   0.397300 0.411745 0.395175 -0.045141
C74   C     C_R   0.588255 0.985554 0.104825 -0.045141
C75   C     C_R   0.014446 0.602700 0.395175 -0.045142
C76   C     C_R   0.397298 0.411745 0.104825 -0.045142
C77   C     C_R   0.056546 0.528569 0.126115 -0.019020
C78   C     C_R   0.901098 0.444354 0.821369 0.534974
C79   C     C_R   0.472024 0.943454 0.373885 -0.019020
C80   C     C_R   0.471430 0.527976 0.126115 -0.019020
C81   C     C_R   0.056546 0.528570 0.373885 -0.019020
C82   C     C_R   0.472024 0.943454 0.126115 -0.019020
C83   C     C_R   0.471430 0.527977 0.373885 -0.019020
C84   C     C_R   0.523313 0.032355 0.631320 -0.024934
C85   C     C_R   0.967645 0.490958 0.868680 -0.024934
C86   C     C_R   0.509042 0.476686 0.631320 -0.024934
C87   C     C_R   0.523313 0.032355 0.868680 -0.024934
C88   C     C_R   0.967645 0.490958 0.631320 -0.024934
C89   C     C_R   0.543256 0.098902 0.678631 0.534975
C90   C     C_R   0.509042 0.476686 0.868680 -0.024934
C91   C     C_R   0.986275 0.603077 0.945575 -0.026761
C92   C     C_R   0.616802 0.013725 0.554425 -0.026761
C93   C     C_R   0.396923 0.383197 0.945575 -0.026761
C94   C     C_R   0.986274 0.603077 0.554425 -0.026761
C95   C     C_R   0.616802 0.013725 0.945575 -0.026761
C96   C     C_R   0.396923 0.383197 0.554425 -0.026761
C97   C     C_R   0.603225 0.998829 0.448026 -0.026928
C98   C     C_R   0.001171 0.604395 0.051974 -0.026928
C99   C     C_R   0.395603 0.396775 0.448026 -0.026928
C100  C     C_R   0.455617 0.558867 0.322614 0.539287
C101  C     C_R   0.603225 0.998829 0.051974 -0.026927
C102  C     C_R   0.001171 0.604396 0.448026 -0.026928
C103  C     C_R   0.395603 0.396774 0.051974 -0.026928
C104  C     C_R   0.007880 0.421235 0.893248 -0.136278
C105  C     C_R   0.413354 0.992119 0.606752 -0.136278
C106  C     C_R   0.578765 0.586645 0.893248 -0.136278
C107  C     C_R   0.007880 0.421235 0.606752 -0.136278
C108  C     C_R   0.413355 0.992120 0.893248 -0.136278
C109  C     C_R   0.578764 0.586645 0.606752 -0.136278
C110  C     C_R   0.374769 0.925964 0.403654 -0.125324
C111  C     C_R   0.441133 0.896750 0.177386 0.539286
C112  C     C_R   0.074035 0.448804 0.096346 -0.125323
C113  C     C_R   0.551194 0.625231 0.403654 -0.125324
C114  C     C_R   0.374770 0.925964 0.096346 -0.125324
C115  C     C_R   0.074035 0.448805 0.403654 -0.125323
C116  C     C_R   0.551196 0.625230 0.096346 -0.125323
C117  C     C_R   0.035618 0.439190 0.943280 0.011293
C118  C     C_R   0.403572 0.964382 0.556719 0.011293
C119  C     C_R   0.560810 0.596427 0.943281 0.011293
C120  C     C_R   0.035618 0.439190 0.556719 0.011293
C121  C     C_R   0.403572 0.964382 0.943280 0.011293
C122  C     C_R   0.103250 0.544383 0.322614 0.539287
C123  C     C_R   0.560809 0.596428 0.556720 0.011293
C124  C     C_R   0.386850 0.939210 0.454334 0.010451
C125  C     C_R   0.060789 0.447639 0.045665 0.010451
C126  C     C_R   0.552360 0.613151 0.454335 0.010451
C127  C     C_R   0.386850 0.939211 0.045665 0.010451
C128  C     C_R   0.060789 0.447640 0.454334 0.010451
C129  C     C_R   0.552361 0.613150 0.045666 0.010451
C130  C     C_R   0.087068 0.371177 0.017594 -0.115250
C131  C     C_R   0.284108 0.912931 0.482405 -0.115250
C132  C     C_R   0.628824 0.715891 0.017595 -0.115250
Cr1   Cr    Cr6+3 0.487630 0.241180 0.750000 1.088132
Cr2   Cr    Cr6+3 0.753550 0.512370 0.750000 1.088132
Cr3   Cr    Cr6+3 0.758820 0.246450 0.750000 1.088132
Cr4   Cr    Cr6+3 0.241180 0.487630 0.250000 1.089674
Cr5   Cr    Cr6+3 0.512370 0.753550 0.250000 1.089674
Cr6   Cr    Cr6+3 0.246450 0.758820 0.250000 1.089673
H1    H     H_    0.105890 0.391261 0.112336 0.158949
H2    H     H_    0.336588 0.988757 0.874061 0.161567
H3    H     H_    0.011243 0.347832 0.625939 0.161567
H4    H     H_    0.652169 0.663412 0.874061 0.161567
H5    H     H_    0.115295 0.312709 0.035165 0.140874
H6    H     H_    0.197412 0.884703 0.464835 0.140873
H7    H     H_    0.687292 0.802587 0.035165 0.140874
H8    H     H_    0.115296 0.312710 0.464835 0.140873
H9    H     H_    0.197413 0.884704 0.035165 0.140874
H10   H     H_    0.687290 0.802588 0.464836 0.140874
H11   H     H_    0.211334 0.903037 0.554273 0.150631
H12   H     H_    0.285371 0.894108 0.387664 0.158949
H13   H     H_    0.096962 0.308297 0.945726 0.150631
H14   H     H_    0.691702 0.788666 0.554274 0.150632
H15   H     H_    0.211335 0.903038 0.945727 0.150632
H16   H     H_    0.096963 0.308298 0.554273 0.150631
H17   H     H_    0.691704 0.788665 0.945727 0.150632
H18   H     H_    0.608740 0.714628 0.112336 0.158950
H19   H     H_    0.105890 0.391262 0.387664 0.158949
H20   H     H_    0.285371 0.894110 0.112336 0.158949
H21   H     H_    0.608736 0.714630 0.387664 0.158949
H22   H     H_    0.336588 0.988757 0.625939 0.161567
H23   H     H_    0.011243 0.347832 0.874061 0.161567
H24   H     H_    0.652168 0.663412 0.625939 0.161567
N1    N     N_1   0.960160 0.727243 0.166081 -0.222156
N2    N     N_1   0.781135 0.014084 0.837385 -0.228971
N3    N     N_1   0.985916 0.767052 0.662615 -0.228971
N4    N     N_1   0.232947 0.218862 0.837385 -0.228971
N5    N     N_1   0.911146 0.827628 0.073374 -0.231544
N6    N     N_1   0.916483 0.088851 0.426627 -0.231544
N7    N     N_1   0.172369 0.083516 0.073373 -0.231544
N8    N     N_1   0.911145 0.827628 0.426627 -0.231544
N9    N     N_1   0.916483 0.088852 0.073373 -0.231544
N10   N     N_1   0.172368 0.083517 0.426626 -0.231542
N11   N     N_1   0.926226 0.087244 0.566856 -0.239409
N12   N     N_1   0.767084 0.039841 0.333919 -0.222157
N13   N     N_1   0.912756 0.838982 0.933145 -0.239409
N14   N     N_1   0.161016 0.073772 0.566855 -0.239409
N15   N     N_1   0.926226 0.087243 0.933144 -0.239410
N16   N     N_1   0.912755 0.838981 0.566855 -0.239409
N17   N     N_1   0.161016 0.073773 0.933144 -0.239409
N18   N     N_1   0.272751 0.232917 0.166080 -0.222155
N19   N     N_1   0.960165 0.727248 0.333919 -0.222155
N20   N     N_1   0.767083 0.039837 0.166081 -0.222156
N21   N     N_1   0.272760 0.232916 0.333919 -0.222157
N22   N     N_1   0.781135 0.014083 0.662615 -0.228971
N23   N     N_1   0.985916 0.767053 0.837385 -0.228971
N24   N     N_1   0.232948 0.218861 0.662614 -0.228971
O1    O     O_R   0.460870 0.120930 0.805240 -0.500587
O2    O     O_R   0.120930 0.460870 0.194760 -0.499804
O3    O     O_R   0.539130 0.660060 0.305240 -0.499804
O4    O     O_R   0.339940 0.879070 0.194760 -0.499804
O5    O     O_R   0.498910 0.350470 0.801870 -0.486894
O6    O     O_R   0.851560 0.501090 0.698130 -0.486894
O7    O     O_R   0.649530 0.148440 0.801870 -0.486894
O8    O     O_R   0.498910 0.350470 0.698130 -0.486894
O9    O     O_R   0.851560 0.501090 0.801870 -0.486894
O10   O     O_R   0.649530 0.148440 0.698130 -0.486894
O11   O     O_R   0.350470 0.498910 0.301870 -0.488859
O12   O     O_R   0.660060 0.539130 0.694760 -0.500586
O13   O     O_R   0.501090 0.851560 0.198130 -0.488858
O14   O     O_R   0.148440 0.649530 0.301870 -0.488859
O15   O     O_R   0.350470 0.498910 0.198130 -0.488858
O16   O     O_R   0.501090 0.851560 0.301870 -0.488859
O17   O     O_R   0.148440 0.649530 0.198130 -0.488859
O18   O     O_3   0.666667 0.333333 0.750000 -0.261487
O19   O     O_3   0.333333 0.666667 0.250000 -0.271496
O20   O     O_R   0.879070 0.339940 0.805240 -0.500587
O21   O     O_R   0.460870 0.120930 0.694760 -0.500587
O22   O     O_R   0.660060 0.539130 0.805240 -0.500587
O23   O     O_R   0.879070 0.339940 0.694760 -0.500587
O24   O     O_R   0.120930 0.460870 0.305240 -0.499804
O25   O     O_R   0.539130 0.660060 0.194760 -0.499804
O26   O     O_R   0.339940 0.879070 0.305240 -0.499804

loop_
_geom_bond_atom_site_label_1
_geom_bond_atom_site_label_2
_ccdc_geom_bond_type
C31   C60   S    
C65   C92   A    
C13   C79   S    
C24   O17   A    
C1    C90   S    
C106  C119  A    
C16   C75   S    
C53   C63   A    
C14   C71   S    
C83   C113  A    
C46   C125  A    
C70   C96   A    
C100  O3    A    
C112  H1    S    
C40   C93   A    
C60   C99   A    
C11   C119  A    
C11   C132  A    
C10   H16   S    
C71   C79   A    
C107  C120  A    
C21   N24   T    
C66   C90   A    
C72   C98   A    
C37   N16   T    
C71   C97   A    
C2    O25   A    
C56   C87   S    
C115  H19   S    
C132  H7    S    
C8    H14   S    
C48   C127  A    
C109  H24   S    
C2    O15   A    
Cr4   O19   S    
C105  H22   S    
C52   C92   A    
C31   N10   T    
C47   C99   A    
C13   O16   A    
Cr2   O12   S    
Cr6   O17   S    
Cr2   O6    S    
C1    O22   A    
C7    C117  A    
C114  H20   S    
C7    C130  A    
C111  O13   A    
C20   N23   T    
C23   N3    T    
C6    H11   S    
C17   N20   T    
C32   C52   S    
C116  C129  A    
C80   C116  A    
Cr1   O8    S    
C57   C96   A    
C5    C126  A    
C34   C57   S    
C9    C121  A    
C122  O24   A    
C81   C122  S    
C29   N8    T    
C107  H3    S    
C67   O8    A    
C33   C51   S    
C26   C59   S    
C108  C121  A    
C22   C69   S    
C69   C87   A    
C11   H17   S    
C27   N6    T    
C129  C132  A    
C51   C91   A    
C100  O11   A    
C67   O12   A    
C76   C103  A    
C15   C76   S    
C46   C98   A    
C9    H15   S    
C50   C103  A    
C5    H10   S    
C10   C120  A    
C15   N18   T    
Cr4   O2    S    
C13   O26   A    
Cr6   O4    S    
C58   C97   A    
C74   C82   A    
C125  C130  A    
C41   C49   A    
Cr4   O15   S    
Cr6   O19   S    
C106  H4    S    
C35   C91   A    
C26   N5    T    
C116  H18   S    
C87   C108  A    
C53   C93   A    
C42   C95   A    
Cr5   O13   S    
C45   C88   S    
C34   N14   T    
C82   C114  A    
C55   C95   A    
C64   C85   A    
C104  H23   S    
C108  H2    S    
C88   C107  A    
C16   N19   T    
C75   C81   A    
C65   C84   A    
Cr5   O19   S    
C113  C126  A    
C54   C62   A    
C110  H12   S    
Cr3   O10   S    
Cr5   O3    S    
C89   O10   A    
C44   C124  A    
C68   C94   A    
C115  C128  A    
C124  C131  A    
C23   C68   S    
C20   C64   S    
C77   C112  A    
C61   C101  A    
C78   O20   A    
C72   C77   A    
C50   C129  A    
Cr3   O7    S    
C22   N2    T    
C44   C97   A    
C28   N7    T    
C45   O6    A    
Cr2   O22   S    
C41   C94   A    
C56   O1    A    
C86   C109  A    
C81   C115  A    
C84   C105  A    
Cr4   O11   S    
C42   C48   A    
C113  H21   S    
C130  H5    S    
C90   C106  A    
C112  C125  A    
C39   C44   A    
C85   C104  A    
C52   C58   A    
C111  O4    A    
C66   C93   A    
C7    H13   S    
C37   C54   S    
C1    O5    A    
C78   C85   S    
C63   C103  A    
Cr2   O9    S    
Cr3   O23   S    
Cr5   O25   S    
C18   C73   S    
C83   C100  S    
C74   C101  A    
C17   C74   S    
C68   C88   A    
Cr4   O24   S    
C105  C118  A    
C35   C117  A    
C51   C59   A    
C84   C89   S    
C70   C86   A    
C43   C123  A    
C39   C92   A    
C49   C102  A    
Cr1   O5    S    
C47   C126  A    
C104  C117  A    
C73   C99   A    
C49   C128  A    
C29   C62   S    
C67   C86   S    
C38   N17   T    
C79   C110  A    
C3    C128  A    
C109  C123  A    
C25   C66   S    
C76   C80   A    
C6    C131  A    
C69   C95   A    
C27   C58   S    
C19   N22   T    
C5    C8    A    
C8    C123  A    
Cr2   O18   S    
Cr3   O18   S    
C25   N4    T    
Cr1   O21   S    
C39   C118  A    
C32   N11   T    
C36   N15   T    
Cr3   O20   S    
C21   C70   S    
C24   O2    A    
C82   C111  S    
C14   N12   T    
C36   C55   S    
C12   N1    T    
C114  C127  A    
C4    H9    S    
C89   O21   A    
C38   C53   S    
C18   N21   T    
Cr1   O18   S    
C40   C50   A    
C48   C101  A    
C55   C61   A    
Cr6   O26   S    
C73   C83   A    
C19   C65   S    
C78   O9    A    
C41   C120  A    
C12   C72   S    
C33   N13   T    
C45   O23   A    
C30   N9    T    
C54   C94   A    
C2    C80   S    
Cr1   O1    S    
C56   O7    A    
C28   C63   S    
C24   C77   S    
C57   C60   A    
C40   C119  A    
C3    H8    S    
Cr5   O16   S    
C30   C61   S    
C59   C98   A    
C3    C10   A    
C43   C96   A    
C110  C124  A    
C64   C91   A    
C122  O14   A    
C4    C9    A    
C35   C46   A    
C43   C47   A    
C4    C127  A    
C75   C102  A    
C131  H6    S    
C42   C121  A    
C6    C118  A    
C62   C102  A    
Cr6   O14   S    
