data_mof_unit_21368.cif
_audit_creation_date              2012-12-11T14:38:20-0500
_audit_creation_method            fapswitch 2.2
_symmetry_space_group_name_H-M    P1
_symmetry_Int_Tables_number       1
_space_group_crystal_system       triclinic
_cell_length_a                    19.473347
_cell_length_b                    11.23567
_cell_length_c                    19.721035
_cell_angle_alpha                 89.990048
_cell_angle_beta                  96.818703
_cell_angle_gamma                 89.830285
_cell_volume                      4284.34613623

loop_
_atom_site_label
_atom_site_type_symbol
_atom_type_description
_atom_site_fract_x
_atom_site_fract_y
_atom_site_fract_z
_atom_type_partial_charge
Br1   Br    Br    0.665055 0.226211 0.613042 -0.599401
Br2   Br    Br    0.327440 0.213726 0.387052 -0.617443
Br3   Br    Br    0.165637 0.724644 0.616944 -0.593578
Br4   Br    Br    0.829039 0.718661 0.386998 -0.618856
C1    C     C_R   0.726430 0.951673 0.359000 0.584087
C2    C     C_3   0.186428 0.451359 0.469145 -0.260596
C3    C     C_3   0.320051 0.934209 0.534813 -0.261480
C4    C     C_3   0.685901 0.952074 0.469277 -0.260360
C5    C     C_3   0.741674 0.279412 0.563773 0.002762
C6    C     C_3   0.250306 0.274944 0.433358 0.006696
C7    C     C_3   0.240725 0.776841 0.565189 0.005652
C8    C     C_3   0.751160 0.776902 0.433271 0.005223
C9    C     C_3   0.754760 0.412350 0.571223 0.077148
C10   C     C_3   0.247066 0.410429 0.429049 0.080467
C11   C     C_3   0.253934 0.910038 0.571349 0.075549
C12   C     C_R   0.273150 0.949754 0.641891 0.597536
C13   C     C_3   0.746824 0.912024 0.429282 0.080170
C14   C     C_3   0.735416 0.368555 0.440756 0.023183
C15   C     C_3   0.267995 0.353346 0.558593 0.019496
C16   C     C_3   0.233139 0.861225 0.440976 0.024558
C17   C     C_3   0.767850 0.854376 0.558663 0.019328
C18   C     C_3   0.806637 0.428354 0.459238 -0.244586
C19   C     C_3   0.208152 0.444437 0.545550 -0.229588
C20   C     C_3   0.304884 0.920579 0.458757 -0.235789
C21   C     C_3   0.707534 0.944516 0.545716 -0.229406
C22   C     C_3   0.728986 0.255787 0.485985 -0.226928
C23   C     C_R   0.226671 0.450875 0.358756 0.582347
C24   C     C_3   0.251738 0.243949 0.510083 -0.230078
C25   C     C_3   0.225915 0.750787 0.487601 -0.233493
C26   C     C_3   0.752306 0.745342 0.509821 -0.230850
C27   C     C_3   0.483469 0.306005 0.962737 -0.228978
C28   C     C_3   0.504591 0.306191 0.038607 -0.232400
C29   C     C_3   0.981351 0.805837 0.963155 -0.229121
C30   C     C_3   0.001435 0.805934 0.039233 -0.232315
C31   C     C_3   0.432966 0.099734 0.970799 -0.232798
C32   C     C_3   0.579633 0.123984 0.026752 -0.234534
C33   C     C_3   0.931310 0.599196 0.970424 -0.231384
C34   C     C_R   0.773205 0.449893 0.641964 0.598118
C35   C     C_3   0.077289 0.624416 0.028247 -0.229838
C36   C     C_3   0.557966 0.123509 0.948583 -0.241191
C37   C     C_3   0.454824 0.098848 0.048703 -0.237124
C38   C     C_3   0.056707 0.624013 0.949903 -0.242898
C39   C     C_3   0.952094 0.598102 0.048521 -0.240624
C40   C     C_R   0.539177 0.181009 0.340614 0.550578
C41   C     C_R   0.459592 0.181024 0.658904 0.552624
C42   C     C_R   0.039276 0.681016 0.340669 0.548043
C43   C     C_R   0.959708 0.681019 0.658966 0.553365
C44   C     C_3   0.484706 0.176092 0.934302 0.051368
C45   C     C_3   0.678339 0.457239 0.458005 -0.241506
C46   C     C_3   0.519865 0.176374 0.064119 0.048868
C47   C     C_3   0.983418 0.676067 0.934679 0.050733
C48   C     C_3   0.016679 0.676123 0.064870 0.050449
C49   C     C_1   0.778108 0.467853 0.913308 -0.017074
C50   C     C_1   0.236101 0.434415 0.092708 -0.013942
C51   C     C_1   0.278324 0.968281 0.913386 -0.016736
C52   C     C_1   0.736162 0.934311 0.092743 -0.014643
C53   C     C_1   0.756222 0.428604 0.039855 -0.047121
C54   C     C_1   0.250216 0.412242 0.963325 -0.050097
C55   C     C_1   0.256374 0.928890 0.039921 -0.046490
C56   C     C_3   0.333785 0.413427 0.537614 -0.232265
C57   C     C_1   0.750271 0.912145 0.963357 -0.050466
C58   C     C_1   0.766970 0.450069 0.971657 -0.048219
C59   C     C_1   0.243864 0.423923 0.033577 -0.050433
C60   C     C_1   0.267197 0.950491 0.971745 -0.047898
C61   C     C_1   0.743939 0.923804 0.033615 -0.050982
C62   C     C_1   0.747242 0.403687 0.098153 -0.011541
C63   C     C_1   0.255408 0.395538 0.903870 -0.009367
C64   C     C_1   0.247315 0.903842 0.098188 -0.010954
C65   C     C_1   0.755436 0.895475 0.903894 -0.010064
C66   C     C_R   0.728173 0.326922 0.369261 0.547622
C67   C     C_3   0.177052 0.952481 0.458072 -0.239601
C68   C     C_R   0.275104 0.315321 0.631374 0.543001
C69   C     C_R   0.225135 0.816956 0.369270 0.540385
C70   C     C_R   0.775023 0.815671 0.631328 0.542538
C71   C     C_R   0.721314 0.957399 0.162103 0.557189
C72   C     C_R   0.293553 0.993586 0.845514 0.549949
C73   C     C_R   0.221293 0.457440 0.162086 0.558151
C74   C     C_R   0.793461 0.493377 0.845513 0.549224
C75   C     C_R   0.541330 0.180747 0.137626 0.547706
C76   C     C_R   0.463351 0.180077 0.860819 0.542129
C77   C     C_R   0.037065 0.680300 0.138654 0.545387
C78   C     C_3   0.833357 0.915742 0.537927 -0.232119
C79   C     C_R   0.963036 0.680090 0.860963 0.542616
C80   C     C_R   0.736730 0.359928 0.164367 0.560059
C81   C     C_R   0.263572 0.359478 0.835457 0.559955
C82   C     C_R   0.236737 0.859941 0.164367 0.562399
C83   C     C_R   0.763578 0.859461 0.835466 0.559245
C84   C     C_1   0.480881 0.173823 0.592085 0.021111
C85   C     C_1   0.517349 0.173912 0.407179 0.020211
C86   C     C_1   0.981169 0.673847 0.592218 0.020940
C87   C     C_1   0.017636 0.673915 0.407313 0.019644
C88   C     C_1   0.505119 0.171019 0.465268 -0.006519
C89   C     C_3   0.821400 0.438228 0.535504 -0.259635
C90   C     C_1   0.492787 0.170964 0.533853 -0.007115
C91   C     C_1   0.005520 0.671027 0.465438 -0.008614
C92   C     C_1   0.993188 0.670999 0.534023 -0.008601
C93   C     C_3   0.687124 0.474361 0.536184 -0.222260
C94   C     C_3   0.319932 0.455403 0.462457 -0.204910
C95   C     C_3   0.186209 0.971339 0.536165 -0.223999
C96   C     C_3   0.819177 0.958333 0.462920 -0.204233
Cr1   Cr    Cr6+3 0.765780 0.160710 0.267420 1.035600
Cr2   Cr    Cr6+3 0.383970 0.323720 0.751490 1.028987
Cr3   Cr    Cr6+3 0.116030 0.823720 0.248510 1.030309
Cr4   Cr    Cr6+3 0.883970 0.823720 0.751490 1.028914
Cr5   Cr    Cr6+3 0.234220 0.160710 0.732580 1.037244
Cr6   Cr    Cr6+3 0.265780 0.660710 0.267420 1.035021
Cr7   Cr    Cr6+3 0.734220 0.660710 0.732580 1.036446
Cr8   Cr    Cr6+3 0.612200 0.009560 0.248850 1.029058
Cr9   Cr    Cr6+3 0.387800 0.009560 0.751150 1.026134
Cr10  Cr    Cr6+3 0.112200 0.509560 0.248850 1.027945
Cr11  Cr    Cr6+3 0.887800 0.509560 0.751150 1.026006
Cr12  Cr    Cr6+3 0.616030 0.323720 0.248510 1.029699
H1    H     H_    0.683588 0.566094 0.552094 0.122373
H2    H     H_    0.141485 0.390620 0.456950 0.129652
H3    H     H_    0.360721 0.867093 0.552443 0.134021
H4    H     H_    0.641150 0.891045 0.456745 0.129608
H5    H     H_    0.850672 0.380294 0.439221 0.159244
H6    H     H_    0.161777 0.420242 0.570450 0.177482
H7    H     H_    0.348910 0.870946 0.439686 0.160484
H8    H     H_    0.661228 0.919295 0.570431 0.176975
H9    H     H_    0.430393 0.345558 0.952650 0.142365
H10   H     H_    0.551540 0.363685 0.048935 0.145585
H11   H     H_    0.928241 0.844984 0.952390 0.142507
H12   H     H_    0.328108 0.550854 0.459175 0.102898
H13   H     H_    0.048252 0.863679 0.049935 0.148119
H14   H     H_    0.519331 0.364990 0.938368 0.148369
H15   H     H_    0.462506 0.347241 0.064201 0.144181
H16   H     H_    0.017457 0.865206 0.939350 0.148084
H17   H     H_    0.959042 0.846759 0.064454 0.141444
H18   H     H_    0.379733 0.137619 0.960836 0.104862
H19   H     H_    0.627624 0.178479 0.037765 0.115429
H20   H     H_    0.878099 0.636923 0.959852 0.104839
H21   H     H_    0.125055 0.679292 0.039912 0.117089
H22   H     H_    0.412248 0.134472 0.076179 0.129002
H23   H     H_    0.182687 0.063423 0.551288 0.121311
H24   H     H_    0.594892 0.177620 0.922432 0.132656
H25   H     H_    0.908991 0.633242 0.075432 0.126888
H26   H     H_    0.093942 0.678419 0.924316 0.132529
H27   H     H_    0.558989 0.030446 0.928830 0.136091
H28   H     H_    0.465744 0.005554 0.066484 0.140074
H29   H     H_    0.058228 0.531007 0.930123 0.135850
H30   H     H_    0.963159 0.504882 0.066363 0.138958
H31   H     H_    0.592548 0.031103 0.043887 0.139733
H32   H     H_    0.431310 0.006056 0.952056 0.141092
H33   H     H_    0.090356 0.531568 0.045374 0.140973
H34   H     H_    0.825888 0.053500 0.459984 0.102743
H35   H     H_    0.930114 0.505585 0.951602 0.141498
H36   H     H_    0.640170 0.437275 0.555887 0.181160
H37   H     H_    0.363149 0.424189 0.434208 0.181004
H38   H     H_    0.139502 0.934362 0.556349 0.180633
H39   H     H_    0.862715 0.929336 0.434667 0.181371
H40   H     H_    0.625548 0.420670 0.440460 0.144194
H41   H     H_    0.377914 0.349109 0.543162 0.144052
H42   H     H_    0.123850 0.917360 0.440912 0.141711
H43   H     H_    0.877777 0.851994 0.543218 0.145212
H44   H     H_    0.683069 0.544603 0.431239 0.133594
H45   H     H_    0.773682 0.202876 0.474470 0.105833
H46   H     H_    0.349288 0.491794 0.570604 0.134584
H47   H     H_    0.182629 0.039392 0.430952 0.138290
H48   H     H_    0.848542 0.993924 0.571172 0.134427
H49   H     H_    0.345901 0.020064 0.548450 0.122136
H50   H     H_    0.663433 0.038089 0.453626 0.118434
H51   H     H_    0.847344 0.523327 0.550669 0.122438
H52   H     H_    0.164124 0.537074 0.453126 0.116190
H53   H     H_    0.302628 0.009802 0.435282 0.203379
H54   H     H_    0.725733 0.032324 0.565421 0.186048
H55   H     H_    0.803692 0.518240 0.437102 0.201234
H56   H     H_    0.197472 0.224010 0.515829 0.101830
H57   H     H_    0.226681 0.532313 0.564937 0.183843
H58   H     H_    0.788100 0.227992 0.586725 0.136001
H59   H     H_    0.202968 0.234707 0.404731 0.142494
H60   H     H_    0.287645 0.726023 0.587503 0.136292
H61   H     H_    0.704299 0.736055 0.404259 0.142263
H62   H     H_    0.676077 0.216845 0.471048 0.132775
H63   H     H_    0.286197 0.169040 0.524216 0.126935
H64   H     H_    0.171837 0.714998 0.474189 0.132498
H65   H     H_    0.786944 0.670769 0.524032 0.126610
H66   H     H_    0.268919 0.694475 0.475265 0.104106
H67   H     H_    0.697979 0.725114 0.514962 0.101739
H68   H     H_    0.861783 0.370131 0.552233 0.134777
O1    O     O_R   0.783100 0.287550 0.345460 -0.515856
O2    O     O_R   0.454350 0.284910 0.836260 -0.519307
O3    O     O_R   0.045650 0.784910 0.163740 -0.521209
O4    O     O_R   0.954350 0.784910 0.836260 -0.518816
O5    O     O_R   0.677950 0.374280 0.185410 -0.494492
O6    O     O_R   0.322050 0.374280 0.814590 -0.493924
O7    O     O_R   0.177950 0.874280 0.185410 -0.492226
O8    O     O_R   0.822050 0.874280 0.814590 -0.494325
O9    O     O_3   0.664670 0.164660 0.254930 -0.290650
O10   O     O_3   0.335330 0.164660 0.745070 -0.310993
O11   O     O_3   0.164670 0.664660 0.254930 -0.292506
O12   O     O_R   0.216900 0.287550 0.654540 -0.514023
O13   O     O_3   0.835330 0.664660 0.745070 -0.310669
O14   O     O_R   0.760020 0.037400 0.337700 -0.513942
O15   O     O_R   0.239980 0.037400 0.662300 -0.515250
O16   O     O_R   0.260020 0.537400 0.337700 -0.517687
O17   O     O_R   0.739980 0.537400 0.662300 -0.515821
O18   O     O_R   0.666600 0.921990 0.332020 -0.524566
O19   O     O_R   0.333400 0.921990 0.667980 -0.521519
O20   O     O_R   0.166600 0.421990 0.332020 -0.524010
O21   O     O_R   0.833400 0.421990 0.667980 -0.522383
O22   O     O_R   0.557260 0.082670 0.312540 -0.495407
O23   O     O_R   0.283100 0.787550 0.345460 -0.512707
O24   O     O_R   0.442740 0.082670 0.687460 -0.497412
O25   O     O_R   0.057260 0.582670 0.312540 -0.496479
O26   O     O_R   0.942740 0.582670 0.687460 -0.497409
O27   O     O_R   0.548410 0.285740 0.316480 -0.509268
O28   O     O_R   0.451590 0.285740 0.683520 -0.505551
O29   O     O_R   0.048410 0.785740 0.316480 -0.510743
O30   O     O_R   0.951590 0.785740 0.683520 -0.505242
O31   O     O_R   0.680500 0.375040 0.327000 -0.490524
O32   O     O_R   0.319500 0.375040 0.673000 -0.488868
O33   O     O_R   0.180500 0.875040 0.327000 -0.486650
O34   O     O_R   0.716900 0.787550 0.654540 -0.514505
O35   O     O_R   0.819500 0.875040 0.673000 -0.489221
O36   O     O_R   0.780350 0.286720 0.192720 -0.501921
O37   O     O_R   0.219650 0.286720 0.807280 -0.506982
O38   O     O_R   0.280350 0.786720 0.192720 -0.501314
O39   O     O_R   0.719650 0.786720 0.807280 -0.506999
O40   O     O_R   0.757470 0.036630 0.196110 -0.492503
O41   O     O_R   0.242530 0.036630 0.803890 -0.479705
O42   O     O_R   0.257470 0.536630 0.196110 -0.492523
O43   O     O_R   0.742530 0.536630 0.803890 -0.480108
O44   O     O_R   0.663840 0.921160 0.179280 -0.506954
O45   O     O_R   0.554710 0.081900 0.170950 -0.502988
O46   O     O_R   0.336160 0.921160 0.820720 -0.494881
O47   O     O_R   0.163840 0.421160 0.179280 -0.506173
O48   O     O_R   0.836160 0.421160 0.820720 -0.495474
O49   O     O_R   0.445290 0.081900 0.829050 -0.516434
O50   O     O_R   0.054710 0.581900 0.170950 -0.502701
O51   O     O_R   0.945290 0.581900 0.829050 -0.515980
O52   O     O_R   0.545650 0.284910 0.163740 -0.521423

loop_
_geom_bond_atom_site_label_1
_geom_bond_atom_site_label_2
_ccdc_geom_bond_type
C14   C66   S    
C18   H5    S    
C66   O31   A    
C70   O35   A    
C38   H26   S    
C64   C82   S    
C78   H48   S    
C45   H44   S    
C91   C92   S    
C14   C22   S    
Cr4   O30   S    
C76   O49   A    
C46   C75   S    
Cr11  O21   S    
C19   H6    S    
C5    H58   S    
Cr1   O1    S    
C53   C58   S    
Cr6   O42   S    
C94   H12   S    
C69   O23   A    
C55   C60   S    
Cr2   O6    S    
Cr3   O3    S    
Cr11  O48   S    
C28   H15   S    
C32   H31   S    
C56   H46   S    
Cr1   O9    S    
Cr10  O47   S    
C30   H13   S    
C33   C47   S    
Cr5   O41   S    
C39   C48   S    
C1    C13   S    
C50   C59   T    
C89   H51   S    
Cr1   O36   S    
C6    C24   S    
C52   C61   T    
C36   H27   S    
Cr10  O11   S    
C81   O6    A    
Cr11  O51   S    
C22   H45   S    
C36   C44   S    
C82   O38   A    
C3    H3    S    
C5    C9    S    
C56   H41   S    
C2    H2    S    
C37   H28   S    
Cr8   O22   S    
Cr10  O50   S    
C67   C95   S    
Cr6   O23   S    
Cr9   O49   S    
C16   C20   S    
C30   H17   S    
C96   H34   S    
C34   O21   A    
C8    C13   S    
C79   O4    A    
C26   H67   S    
C16   C67   S    
C39   H25   S    
C76   O2    A    
C10   C23   S    
Br4   C8    S    
C93   H36   S    
Cr3   O33   S    
C95   H23   S    
C45   H40   S    
C74   O43   A    
C50   C73   S    
C3    C11   S    
C35   C48   S    
Cr12  O9    S    
C82   O7    A    
C52   C71   S    
C70   O34   A    
C40   O22   A    
C4    C21   S    
Cr5   O12   S    
C69   O33   A    
C15   C68   S    
Cr5   O37   S    
C7    C11   S    
Cr6   O11   S    
C31   C37   S    
C31   C44   S    
C37   H22   S    
Cr4   O35   S    
C89   H68   S    
C5    C22   S    
C10   C94   S    
C35   C38   S    
Cr7   O43   S    
C16   C25   S    
C96   H39   S    
C74   O48   A    
Cr4   O8    S    
C95   H38   S    
C81   O37   A    
C63   C81   S    
Cr10  O20   S    
Cr2   O2    S    
Cr12  O31   S    
C28   H10   S    
C32   C36   S    
C41   C84   S    
Br1   C5    S    
C27   H9    S    
Cr11  O26   S    
C6    C10   S    
C32   H19   S    
Cr12  O5    S    
Cr7   O17   S    
C4    H4    S    
Cr6   O16   S    
C42   C87   S    
C6    H59   S    
C67   H42   S    
C72   O46   A    
C80   O5    A    
C40   O27   A    
C9    C89   S    
C62   C80   S    
C33   C39   S    
C42   O25   A    
C15   C19   S    
C57   C61   S    
C55   C64   T    
C2    C10   S    
C3    H49   S    
C49   C58   T    
C73   O42   A    
C66   O1    A    
C27   C28   S    
C19   H57   S    
Cr9   O10   S    
Cr4   O13   S    
C56   C94   S    
C51   C60   T    
C35   H33   S    
C38   H29   S    
C88   C90   S    
C29   C30   S    
C34   O17   A    
Cr3   O7    S    
C33   H35   S    
C85   C88   T    
C15   C24   S    
C31   H18   S    
C28   C46   S    
C9    C34   S    
C1    O18   A    
C12   O19   A    
Cr11  O13   S    
Cr7   O39   S    
C51   C72   S    
Cr4   O4    S    
C2    H52   S    
C71   O44   A    
C73   O47   A    
C41   O28   A    
C83   O39   A    
C27   C44   S    
C43   C86   S    
C15   C56   S    
C18   C89   S    
Cr3   O29   S    
Cr9   O19   S    
Cr3   O11   S    
C78   H43   S    
C25   H64   S    
C93   H1    S    
Br2   C6    S    
C21   H8    S    
C47   C79   S    
C37   C46   S    
Cr7   O13   S    
C32   C46   S    
Cr1   O14   S    
C29   H11   S    
C35   H21   S    
C57   C65   T    
C54   C59   S    
Cr5   O15   S    
C22   H62   S    
C17   C21   S    
C20   H7    S    
C43   O26   A    
C8    C26   S    
C14   C18   S    
C78   C96   S    
Cr5   O10   S    
Cr9   O24   S    
C23   O20   A    
Cr12  O27   S    
C11   C95   S    
C65   C83   S    
Cr9   O46   S    
C24   H63   S    
C86   C92   T    
C83   O8    A    
C72   O41   A    
C21   H54   S    
C29   C47   S    
C42   O29   A    
C67   H47   S    
C17   C26   S    
C38   C47   S    
C30   C48   S    
C4    C13   S    
Cr12  O52   S    
C33   H20   S    
C25   H66   S    
C44   C76   S    
C49   C74   S    
C3    C20   S    
C53   C62   T    
C4    H50   S    
C31   H32   S    
Cr1   O40   S    
Cr2   O32   S    
C68   O32   A    
Cr7   O34   S    
C79   O51   A    
C71   O40   A    
C41   O24   A    
Cr8   O44   S    
C2    C19   S    
C17   C70   S    
Cr2   O10   S    
C26   H65   S    
C68   O12   A    
C16   C69   S    
C20   H53   S    
Cr10  O25   S    
C29   H16   S    
Cr8   O18   S    
C9    C93   S    
C48   C77   S    
Cr8   O9    S    
C13   C96   S    
C75   O52   A    
C45   C93   S    
Br3   C7    S    
C24   H56   S    
C87   C91   T    
Cr6   O38   S    
C80   O36   A    
C54   C63   T    
C7    H60   S    
C17   C78   S    
C7    C25   S    
Cr8   O45   S    
C43   O30   A    
C12   O15   A    
C84   C90   T    
C77   O3    A    
C77   O50   A    
C8    H61   S    
C39   H30   S    
C23   O16   A    
C36   H24   S    
C27   H14   S    
Cr2   O28   S    
C75   O45   A    
C40   C85   S    
C11   C12   S    
C14   C45   S    
C1    O14   A    
C94   H37   S    
C18   H55   S    
