data_mof_unit_37151.cif
_audit_creation_date              2012-12-10T17:34:59-0500
_audit_creation_method            fapswitch 2.2
_symmetry_space_group_name_H-M    P1
_symmetry_Int_Tables_number       1
_space_group_crystal_system       triclinic
_cell_length_a                    12.366857
_cell_length_b                    13.288857
_cell_length_c                    13.869865
_cell_angle_alpha                 105.837861
_cell_angle_beta                  73.895222
_cell_angle_gamma                 116.908546
_cell_volume                      1923.72548636

loop_
_atom_site_label
_atom_site_type_symbol
_atom_type_description
_atom_site_fract_x
_atom_site_fract_y
_atom_site_fract_z
_atom_type_partial_charge
C1    C     C_R   0.144187 0.713920 0.510762 0.808926
C2    C     C_1   0.974133 0.504798 0.791375 -0.156633
C3    C     C_R   0.710070 0.002589 0.571970 0.154154
C4    C     C_R   0.772083 0.167960 0.495065 -0.074904
C5    C     C_R   0.190879 0.895837 0.455541 0.093421
C6    C     C_R   0.276704 0.003381 0.430729 0.151032
C7    C     C_R   0.397094 0.047290 0.447366 -0.191805
C8    C     C_R   0.434194 0.989265 0.494725 0.039358
C9    C     C_R   0.343529 0.887461 0.529903 0.039607
C10   C     C_R   0.557932 0.029071 0.509366 0.062101
C11   C     C_R   0.586917 0.968847 0.562010 0.143921
C12   C     C_R   0.984078 0.504025 0.686303 0.792367
C13   C     C_R   0.491530 0.879530 0.608423 -0.202995
C14   C     C_R   0.371683 0.840918 0.594086 -0.193778
C15   C     C_R   0.653355 0.128274 0.475693 -0.248678
C16   C     C_R   0.801936 0.102788 0.538399 -0.228867
C17   C     C_R   0.225243 0.835763 0.502992 -0.126518
C18   C     C_R   0.626954 0.658766 0.671349 -0.272425
C19   C     C_R   0.255371 0.358477 0.357707 0.057409
C20   C     C_R   0.354863 0.326743 0.324110 0.132494
C21   C     C_R   0.450599 0.376161 0.380234 -0.220485
C22   C     C_R   0.447448 0.457727 0.469235 -0.023942
C23   C     C_R   0.855853 0.286846 0.487875 0.804427
C24   C     C_R   0.343343 0.486930 0.499484 0.268954
C25   C     C_R   0.544793 0.514413 0.527952 -0.017068
C26   C     C_R   0.531404 0.593932 0.616994 0.109598
C27   C     C_R   0.425443 0.614155 0.648594 -0.266950
C28   C     C_R   0.337210 0.566707 0.587935 -0.139940
C29   C     C_R   0.655971 0.497958 0.502466 -0.008335
C30   C     C_R   0.737449 0.647042 0.637989 0.354803
C31   C     C_R   0.016324 0.496475 0.313711 0.836231
C32   C     C_1   0.028853 0.498138 0.208719 -0.188176
C33   C     C_2   0.055651 0.503363 0.013498 0.535612
C34   C     C_2   0.961409 0.503450 0.983925 -0.255891
C35   C     C_1   0.967063 0.504576 0.879424 0.082843
C36   C     C_1   0.041089 0.500356 0.120225 -0.150246
Cu1   Cu    Cu3+1 0.899780 0.525060 0.522890 0.941320
Cu2   Cu    Cu3+1 0.100220 0.474940 0.477110 0.932470
H1    H     H_    0.878343 0.501892 0.038189 0.112991
H2    H     H_    0.299680 0.776494 0.636148 0.126392
H3    H     H_    0.413609 0.672636 0.718361 0.151788
H4    H     H_    0.618739 0.723977 0.736433 0.165385
H5    H     H_    0.670893 0.434733 0.439048 0.126284
H6    H     H_    0.181132 0.319745 0.314801 0.141067
H7    H     H_    0.526125 0.349989 0.352886 0.125379
H8    H     H_    0.267235 0.597644 0.611300 0.192876
H9    H     H_    0.894769 0.133754 0.552129 0.151834
H10   H     H_    0.509331 0.841296 0.658253 0.170506
H11   H     H_    0.637647 0.180284 0.438250 0.136641
H12   H     H_    0.458471 0.128159 0.423331 0.151692
N1    N     N_R   0.748810 0.563010 0.557590 -0.191024
N2    N     N_R   0.250540 0.437620 0.443020 -0.229143
O1    O     O_R   0.025040 0.682470 0.528790 -0.560475
O2    O     O_R   0.194310 0.640150 0.490130 -0.593512
O3    O     O_R   0.903380 0.524130 0.659910 -0.587546
O4    O     O_R   0.072660 0.481800 0.621240 -0.585482
O5    O     O_R   0.805690 0.359850 0.509870 -0.580003
O6    O     O_R   0.974960 0.317530 0.471210 -0.586735
O7    O     O_R   0.927340 0.518200 0.378760 -0.571931
O8    O     O_R   0.096620 0.475870 0.340090 -0.586002
N3    N     N_3   0.838759 0.730638 0.685907 -0.605774
H13   H     H_    0.876873 0.692471 0.715071 0.250978
H14   H     H_    0.904221 0.781749 0.633636 0.243441
N4    N     N_3   0.356836 0.243935 0.232887 -0.591955
H15   H     H_    0.365775 0.280967 0.172013 0.206657
H16   H     H_    0.434445 0.226167 0.219417 0.225613
O9    O     O_3   0.160717 0.505188 0.940923 -0.565682
C37   C     C_3   0.254328 0.509417 0.983354 -0.289164
H17   H     H_    0.223109 0.431200 0.016388 0.166154
H18   H     H_    0.285812 0.588217 0.041242 0.162815
H19   H     H_    0.334674 0.512417 0.921713 0.187800
N5    N     N_3   0.740408 0.936993 0.619066 -0.606638
H20   H     H_    0.729192 0.859289 0.569577 0.221340
H21   H     H_    0.833292 0.977588 0.626235 0.218532
N6    N     N_3   0.070476 0.845502 0.429372 -0.572617
H22   H     H_    0.026082 0.900322 0.465285 0.207064
H23   H     H_    0.079856 0.835824 0.350530 0.214434
N7    N     N_3   0.244616 0.068425 0.385132 -0.575699
H24   H     H_    0.171450 0.085428 0.434199 0.219881
H25   H     H_    0.216051 0.019804 0.316536 0.228430

loop_
_geom_bond_atom_site_label_1
_geom_bond_atom_site_label_2
_ccdc_geom_bond_type
C2    C35   T    
C24   N2    A    
C23   O6    A    
C30   N1    A    
C5    N6    S    
C19   C20   A    
C18   C26   A    
C9    C14   A    
C2    C12   S    
C7    C8    A    
C28   H8    S    
C26   C27   A    
C32   C36   T    
C10   C15   A    
C18   H4    S    
C5    C6    A    
Cu1   N1    S    
N7    H25   S    
C6    N7    S    
C5    C17   A    
C33   C36   S    
C34   C35   S    
C31   O7    A    
N3    H14   S    
C1    O1    A    
Cu2   O6    S    
C19   N2    A    
C37   H17   S    
C22   C25   A    
C18   C30   A    
Cu1   O1    S    
C13   C14   A    
C29   H5    S    
C16   H9    S    
C4    C16   A    
C21   H7    S    
C25   C29   A    
C34   H1    S    
N5    H21   S    
C4    C23   S    
N7    H24   S    
C8    C9    A    
C25   C26   A    
O9    C37   S    
N4    H16   S    
C31   O8    A    
C20   N4    S    
N6    H22   S    
Cu1   Cu2   S    
C27   H3    S    
C31   C32   S    
Cu2   O2    S    
C33   C34   D    
C12   O4    A    
N6    H23   S    
Cu1   O7    S    
C1    O2    A    
Cu2   O8    S    
C9    C17   A    
C22   C24   A    
C19   H6    S    
C33   O9    S    
C29   N1    A    
C23   O5    A    
C24   C28   A    
C7    H12   S    
N5    H20   S    
C13   H10   S    
C6    C7    A    
C1    C17   S    
N4    H15   S    
C4    C15   A    
C3    N5    S    
C11   C13   A    
C37   H19   S    
Cu2   N2    S    
C15   H11   S    
N3    H13   S    
C12   O3    A    
C3    C11   A    
C10   C11   A    
C14   H2    S    
Cu1   O3    S    
Cu2   O4    S    
C20   C21   A    
C8    C10   A    
C30   N3    S    
C27   C28   A    
C37   H18   S    
C21   C22   A    
Cu1   O5    S    
C3    C16   A    
