data_mof_unit_52921.cif
_audit_creation_date              2012-12-11T15:48:54-0500
_audit_creation_method            fapswitch 2.2
_symmetry_space_group_name_H-M    P1
_symmetry_Int_Tables_number       1
_space_group_crystal_system       triclinic
_cell_length_a                    10.987386
_cell_length_b                    10.993297
_cell_length_c                    18.824465
_cell_angle_alpha                 89.991194
_cell_angle_beta                  90.114433
_cell_angle_gamma                 60.425432
_cell_volume                      1977.51712467

loop_
_atom_site_label
_atom_site_type_symbol
_atom_type_description
_atom_site_fract_x
_atom_site_fract_y
_atom_site_fract_z
_atom_type_partial_charge
C1    C     C_R   0.241106 0.644543 0.610677 0.544826
C2    C     C_R   0.575409 0.145544 0.710715 -0.195866
C3    C     C_R   0.572134 0.152169 0.783772 -0.167203
C4    C     C_R   0.652528 0.620050 0.601700 0.540270
C5    C     C_3   0.932742 0.093764 0.786318 -0.281553
C6    C     C_3   0.927571 0.100618 0.705843 -0.295276
C7    C     C_R   0.672362 0.166348 0.672763 0.010774
C8    C     C_R   0.182439 0.667772 0.835724 0.065375
C9    C     C_R   0.160938 0.573020 0.795504 0.016707
C10   C     C_R   0.169751 0.569750 0.721884 -0.008759
C11   C     C_R   0.210278 0.765124 0.725322 -0.171161
C12   C     C_3   0.695688 0.535518 0.799935 0.076735
C13   C     C_R   0.209339 0.763141 0.799255 -0.130725
C14   C     C_3   0.234592 0.417856 0.800336 -0.273045
C15   C     C_3   0.242549 0.414965 0.719775 -0.268406
C16   C     C_R   0.629697 0.226175 0.602021 0.541502
C17   C     C_R   0.197744 0.663441 0.685219 0.010483
C18   C     C_R   0.709063 0.710564 0.181674 0.009247
C19   C     C_R   0.807294 0.593805 0.218458 0.016662
C20   C     C_R   0.793940 0.575675 0.289438 0.030696
C21   C     C_R   0.587864 0.801911 0.294515 -0.168172
C22   C     C_R   0.602139 0.819903 0.221155 -0.158758
C23   C     C_3   0.697324 0.673870 0.812843 0.081244
C24   C     C_3   0.859167 0.443995 0.201826 -0.274097
C25   C     C_3   0.847939 0.422478 0.279978 -0.268628
C26   C     C_R   0.677521 0.672837 0.327440 0.010206
C27   C     C_R   0.667756 0.138667 0.179494 0.033277
C28   C     C_R   0.220122 0.650948 0.402446 0.542461
C29   C     C_R   0.558459 0.138729 0.215919 0.017212
C30   C     C_R   0.547954 0.153337 0.287941 0.005584
C31   C     C_R   0.772423 0.142039 0.293184 -0.144606
C32   C     C_R   0.780397 0.135619 0.219124 -0.030151
C33   C     C_3   0.404949 0.224737 0.203286 -0.145306
C34   C     C_3   0.668884 0.645354 0.677099 0.018434
C35   C     C_3   0.391969 0.247115 0.283371 -0.237614
C36   C     C_R   0.650685 0.163590 0.327171 0.005370
C37   C     C_R   0.122561 0.686945 0.188123 0.001921
C38   C     C_R   0.147731 0.783587 0.222360 0.010413
C39   C     C_R   0.156994 0.785772 0.294023 0.048619
C40   C     C_R   0.644912 0.625671 0.393921 0.536068
C41   C     C_R   0.107507 0.595167 0.303120 -0.168643
C42   C     C_R   0.091382 0.599308 0.229355 -0.167188
C43   C     C_3   0.256927 0.823244 0.208391 -0.259022
C44   C     C_3   0.268504 0.827611 0.288368 -0.113166
C45   C     C_3   0.807959 0.643698 0.689316 -0.240323
C46   C     C_R   0.150916 0.682596 0.334945 0.009912
C47   C     C_R   0.701562 0.101034 0.895609 0.561809
C48   C     C_R   0.722249 0.687737 0.888838 0.610725
C49   C     C_R   0.119438 0.705756 0.906318 0.551736
C50   C     C_R   0.678744 0.102207 0.105183 0.541767
C51   C     C_R   0.731157 0.716940 0.105358 0.568711
C52   C     C_R   0.616485 0.228823 0.395720 0.545041
C53   C     C_R   0.088011 0.712050 0.114023 0.546140
C54   C     C_3   0.556427 0.797422 0.785206 -0.223885
C55   C     C_3   0.547117 0.786810 0.704223 -0.245106
C56   C     C_3   0.669808 0.524344 0.720505 -0.188583
C57   C     C_3   0.821782 0.669133 0.768909 -0.145925
C58   C     C_3   0.905349 0.133623 0.185124 -0.379205
C59   C     C_3   0.363975 0.355785 0.158215 -0.389788
C60   C     C_3   0.220710 0.974226 0.318194 -0.397111
C61   C     C_3   0.834628 0.801473 0.777868 -0.403591
C62   C     C_R   0.680546 0.155370 0.822871 0.065010
C63   C     C_R   0.777892 0.176122 0.785003 0.046527
C64   C     C_R   0.771919 0.184601 0.710981 0.017160
Cl1   Cl    Cl    0.568047 0.520763 0.853257 -0.670100
Cr1   Cr    Cr6+3 0.392960 0.397920 0.502240 1.001511
Cr2   Cr    Cr6+3 0.398340 0.708480 0.501250 0.993024
Cr3   Cr    Cr6+3 0.708670 0.393570 0.496460 1.002095
Cr4   Cr    Cr6+3 0.937650 0.938540 0.007610 1.001770
Cr5   Cr    Cr6+3 0.625330 0.937370 0.994520 1.011298
Cr6   Cr    Cr6+3 0.937940 0.625230 0.001190 1.006633
H1    H     H_    0.545485 0.900446 0.798713 0.124050
H2    H     H_    0.962643 0.997861 0.679874 0.141279
H3    H     H_    0.225136 0.844883 0.699868 0.129591
H4    H     H_    0.466616 0.795209 0.810874 0.168409
H5    H     H_    0.219832 0.843233 0.827597 0.135201
H6    H     H_    0.165901 0.378707 0.821500 0.126508
H7    H     H_    0.336872 0.377195 0.827691 0.178150
H8    H     H_    0.349045 0.374200 0.698587 0.186589
H9    H     H_    0.178182 0.374842 0.694089 0.121460
H10   H     H_    0.502226 0.883541 0.323828 0.129660
H11   H     H_    0.525868 0.914276 0.194830 0.135325
H12   H     H_    0.755706 0.423369 0.700915 0.124359
H13   H     H_    0.968372 0.388477 0.181775 0.129807
H14   H     H_    0.781478 0.431696 0.169270 0.159343
H15   H     H_    0.767458 0.392262 0.291690 0.164773
H16   H     H_    0.444856 0.796170 0.690961 0.145855
H17   H     H_    0.951091 0.357863 0.306255 0.128838
H18   H     H_    0.854551 0.145213 0.323634 0.126357
H19   H     H_    0.359243 0.160574 0.183563 0.137235
H20   H     H_    0.359665 0.355496 0.300423 0.167859
H21   H     H_    0.334221 0.200341 0.309505 0.114014
H22   H     H_    0.097864 0.516977 0.333781 0.129547
H23   H     H_    0.920601 0.578978 0.788283 0.149233
H24   H     H_    0.063365 0.528823 0.204380 0.136072
H25   H     H_    0.215497 0.926225 0.181603 0.139884
H26   H     H_    0.551401 0.875230 0.677895 0.116227
H27   H     H_    0.352111 0.737045 0.183357 0.132016
H28   H     H_    0.372204 0.745810 0.308090 0.170747
H29   H     H_    0.812309 0.723753 0.654764 0.127780
H30   H     H_    0.799366 0.445575 0.814798 0.136867
H31   H     H_    0.569560 0.524069 0.712074 0.171900
H32   H     H_    0.976462 0.028603 0.165382 0.195923
H33   H     H_    0.872993 0.207835 0.140015 0.142990
H34   H     H_    0.897404 0.540653 0.673482 0.122582
H35   H     H_    0.965979 0.159960 0.222881 0.098425
H36   H     H_    0.379929 0.434523 0.187507 0.137534
H37   H     H_    0.425007 0.330781 0.108480 0.166219
H38   H     H_    0.254344 0.399258 0.140885 0.139651
H39   H     H_    0.254829 0.966168 0.374342 0.160215
H40   H     H_    0.267607 0.026455 0.287142 0.103653
H41   H     H_    0.105413 0.040583 0.316518 0.131139
H42   H     H_    0.740680 0.892156 0.756834 0.150043
H43   H     H_    0.850299 0.819507 0.834211 0.156102
H44   H     H_    0.922560 0.794751 0.746494 0.129475
H45   H     H_    0.495104 0.132549 0.683978 0.130271
H46   H     H_    0.491287 0.138254 0.808828 0.136817
H47   H     H_    0.968848 0.987902 0.807950 0.158019
H48   H     H_    0.980343 0.152606 0.810664 0.133603
H49   H     H_    0.973569 0.162507 0.683490 0.133998
O1    O     O_R   0.507380 0.255700 0.581440 -0.534501
O2    O     O_R   0.837170 0.593410 0.915250 -0.521232
O3    O     O_R   0.065200 0.635530 0.931570 -0.506402
O4    O     O_R   0.280320 0.527350 0.578930 -0.502581
O5    O     O_R   0.068260 0.828890 0.091840 -0.529052
O6    O     O_R   0.798870 0.057410 0.079340 -0.512909
O7    O     O_R   0.584930 0.080350 0.076780 -0.529257
O8    O     O_R   0.626960 0.809650 0.067060 -0.496774
O9    O     O_R   0.816040 0.596610 0.076510 -0.512842
O10   O     O_R   0.045610 0.638500 0.081060 -0.526950
O11   O     O_3   0.833640 0.833710 0.001100 -0.285140
O12   O     O_R   0.524480 0.695810 0.424040 -0.516284
O13   O     O_R   0.260510 0.739590 0.584590 -0.534118
O14   O     O_R   0.532300 0.695080 0.573820 -0.509620
O15   O     O_R   0.744840 0.503500 0.576370 -0.528597
O16   O     O_R   0.699120 0.276560 0.571960 -0.500663
O17   O     O_R   0.498940 0.256500 0.419860 -0.523267
O18   O     O_R   0.272500 0.528080 0.429150 -0.511323
O19   O     O_R   0.252060 0.740380 0.423010 -0.524301
O20   O     O_R   0.736390 0.504290 0.414790 -0.519305
O21   O     O_R   0.691300 0.277290 0.422170 -0.514030
O22   O     O_3   0.499990 0.499990 0.499980 -0.249916
O23   O     O_R   0.089400 0.825690 0.930570 -0.527983
O24   O     O_R   0.818460 0.054440 0.929850 -0.498773
O25   O     O_R   0.606060 0.077150 0.915510 -0.536736
O26   O     O_R   0.646550 0.806680 0.917570 -0.503030

loop_
_geom_bond_atom_site_label_1
_geom_bond_atom_site_label_2
_ccdc_geom_bond_type
Cr5   O7    S    
C21   C26   A    
C47   O25   A    
C34   C56   S    
C8    C13   A    
C27   C29   A    
C23   C54   S    
C41   C42   A    
Cr6   O2    S    
Cr2   O12   S    
C43   H27   S    
C32   C58   S    
C9    C14   S    
C47   C62   S    
C51   O9    A    
C31   C32   A    
Cr4   O24   S    
C12   C23   S    
C45   C57   S    
C37   C38   A    
C30   C35   S    
C5    H48   S    
C51   O8    A    
C22   H11   S    
Cr6   O3    S    
Cr2   O13   S    
C10   C15   S    
C31   C36   A    
C48   O2    A    
C38   C39   A    
C44   H28   S    
C20   C25   S    
C10   C17   A    
C49   O3    A    
C29   C33   S    
C5    C63   S    
C18   C19   A    
C14   H6    S    
C6    C64   S    
C37   C42   A    
Cr5   O11   S    
C3    H46   S    
C33   C35   S    
C2    H45   S    
C15   H8    S    
C2    C7    A    
C8    C9    A    
C31   H18   S    
C48   O26   A    
Cr1   O22   S    
C61   H44   S    
C41   C46   A    
Cr3   O22   S    
Cr5   O26   S    
C29   C30   A    
Cr2   O19   S    
C24   H14   S    
C36   C52   S    
C27   C50   S    
C37   C53   S    
C35   H21   S    
C14   H7    S    
C40   O12   A    
Cr4   O5    S    
C34   C55   S    
C33   C59   S    
C21   C22   A    
C28   O19   A    
C1    O13   A    
C6    H49   S    
C45   H34   S    
C18   C51   S    
C52   O17   A    
C4    C34   S    
C42   H24   S    
Cr3   O16   S    
Cr2   O14   S    
C28   O18   A    
C24   C25   S    
Cr5   O25   S    
C53   O10   A    
C47   O24   A    
C45   H29   S    
C25   H17   S    
C59   H36   S    
C63   C64   A    
C58   H35   S    
C16   O1    A    
C62   C63   A    
C60   H41   S    
Cr6   O9    S    
C15   H9    S    
Cr1   O18   S    
C13   H5    S    
Cr4   O11   S    
C28   C46   S    
C55   H26   S    
C43   H25   S    
Cr1   O1    S    
Cr3   O21   S    
C34   C45   S    
C12   C56   S    
C53   O5    A    
C39   C46   A    
C50   O6    A    
C7    C16   S    
C21   H10   S    
Cr4   O6    S    
C57   H23   S    
C4    O15   A    
C43   C44   S    
C61   H42   S    
Cr1   O4    S    
Cr3   O20   S    
C58   H33   S    
C16   O16   A    
C56   H12   S    
C4    O14   A    
C9    C10   A    
C3    C62   A    
Cr5   O8    S    
C23   C57   S    
C54   C55   S    
C11   C17   A    
C23   C48   S    
C27   C32   A    
C18   C22   A    
Cr3   O15   S    
C59   H37   S    
C11   H3    S    
C57   C61   S    
C39   C44   S    
C50   O7    A    
Cr4   O23   S    
C12   Cl1   S    
C1    C17   S    
C52   O21   A    
C30   C36   A    
C5    H47   S    
C41   H22   S    
C19   C20   A    
C2    C3    A    
C24   H13   S    
C1    O4    A    
C56   H31   S    
C38   C43   S    
C60   H40   S    
C33   H19   S    
Cr6   O10   S    
C11   C13   A    
C26   C40   S    
C5    C6    S    
Cr1   O17   S    
C20   C26   A    
C44   C60   S    
C49   O23   A    
C25   H15   S    
C59   H38   S    
C19   C24   S    
C6    H2    S    
C55   H16   S    
C7    C64   A    
C60   H39   S    
Cr6   O11   S    
C54   H4    S    
C12   H30   S    
C54   H1    S    
C61   H43   S    
C14   C15   S    
C58   H32   S    
Cr2   O22   S    
C8    C49   S    
C40   O20   A    
C35   H20   S    
