data_mof_unit_47186.cif
_audit_creation_date              2012-12-10T17:13:39-0500
_audit_creation_method            fapswitch 2.2
_symmetry_space_group_name_H-M    P1
_symmetry_Int_Tables_number       1
_space_group_crystal_system       triclinic
_cell_length_a                    10.746923
_cell_length_b                    12.984617
_cell_length_c                    11.819383
_cell_angle_alpha                 99.072668
_cell_angle_beta                  94.605727
_cell_angle_gamma                 92.996495
_cell_volume                      1619.90137993

loop_
_atom_site_label
_atom_site_type_symbol
_atom_type_description
_atom_site_fract_x
_atom_site_fract_y
_atom_site_fract_z
_atom_type_partial_charge
C1    C     C_R   0.498298 0.299506 0.478963 0.804083
C2    C     C_3   0.878308 0.494279 0.499092 0.082616
C3    C     C_3   0.941357 0.597340 0.567908 -0.391397
C4    C     C_3   0.916729 0.485355 0.373677 -0.437831
C5    C     C_R   0.508219 0.814074 0.531977 -0.049338
C6    C     C_R   0.495885 0.186118 0.466353 -0.047215
C7    C     C_R   0.446323 0.015805 0.350064 -0.217520
C8    C     C_R   0.452512 0.124118 0.360790 -0.199792
C9    C     C_R   0.535431 0.139274 0.560396 -0.263198
C10   C     C_R   0.526579 0.031177 0.551263 0.167358
C11   C     C_R   0.482202 0.968842 0.445145 0.177227
C12   C     C_R   0.260085 0.498171 0.499041 0.761190
C13   C     C_R   0.474214 0.860588 0.435985 -0.270445
C14   C     C_R   0.549904 0.876482 0.637567 -0.200182
C15   C     C_R   0.560097 0.984540 0.647013 -0.214864
C16   C     C_R   0.354369 0.425291 0.029582 -0.324056
C17   C     C_R   0.373878 0.428259 0.148726 0.067289
C18   C     C_R   0.557291 0.536666 0.155727 0.042034
C19   C     C_R   0.541576 0.533021 0.034620 0.006418
C20   C     C_R   0.445542 0.468966 0.967505 0.086447
C21   C     C_R   0.444481 0.454217 0.843240 0.194460
C22   C     C_R   0.608966 0.590729 0.861158 0.319652
C23   C     C_R   0.502738 0.700571 0.520803 0.791975
C24   C     C_R   0.617514 0.596062 0.981682 -0.329528
C25   C     C_R   0.739905 0.496948 0.499870 0.784455
C26   C     C_3   0.073083 0.401691 0.550797 -0.404885
C27   C     C_3   0.928800 0.398992 0.550522 0.246394
C28   C     C_3   0.084428 0.598411 0.567792 -0.362301
C29   C     C_3   0.059444 0.485597 0.372630 -0.384998
C30   C     C_3   0.122139 0.495882 0.497294 0.108656
Cu1   Cu    Cu3+1 0.509350 0.507730 0.615930 0.938099
Cu2   Cu    Cu3+1 0.490650 0.492270 0.384070 0.924532
H1    H     H_    0.117653 0.407166 0.639971 0.210052
H2    H     H_    0.883109 0.551970 0.333359 0.187011
H3    H     H_    0.119274 0.666753 0.530339 0.155774
H4    H     H_    0.906396 0.665520 0.531468 0.146935
H5    H     H_    0.440827 0.812784 0.354389 0.152914
H6    H     H_    0.576063 0.841998 0.712529 0.148594
H7    H     H_    0.412187 0.968985 0.268194 0.135680
H8    H     H_    0.593370 0.031498 0.729055 0.142729
H9    H     H_    0.421926 0.159267 0.286949 0.156041
H10   H     H_    0.572803 0.186619 0.640846 0.163145
H11   H     H_    0.100483 0.327487 0.501088 0.119593
H12   H     H_    0.263237 0.395931 0.991438 0.147486
H13   H     H_    0.680081 0.653905 0.037114 0.135642
H14   H     H_    0.303679 0.391911 0.193002 0.121087
H15   H     H_    0.632896 0.585388 0.206909 0.112057
H16   H     H_    0.887922 0.325692 0.495332 0.101013
H17   H     H_    0.127347 0.607876 0.658069 0.187303
H18   H     H_    0.917125 0.604813 0.657209 0.221058
H19   H     H_    0.093420 0.551836 0.331291 0.183799
H20   H     H_    0.084319 0.411933 0.319927 0.166296
H21   H     H_    0.873059 0.412054 0.320361 0.175848
N1    N     N_R   0.523430 0.519360 0.790130 -0.204689
N2    N     N_R   0.476570 0.480640 0.209880 -0.178546
O1    O     O_R   0.506640 0.354460 0.582000 -0.597938
O2    O     O_R   0.490840 0.341410 0.386200 -0.586592
O3    O     O_R   0.325590 0.506510 0.597900 -0.607065
O4    O     O_R   0.309790 0.493450 0.402100 -0.595111
O5    O     O_R   0.509160 0.658590 0.613800 -0.609457
O6    O     O_R   0.493360 0.645540 0.418000 -0.582402
O7    O     O_R   0.690210 0.506550 0.597900 -0.542018
O8    O     O_R   0.674410 0.493490 0.402100 -0.600036
C31   C     C_3   0.385381 0.351895 0.770649 -0.353975
C32   C     C_3   0.286664 0.279041 0.810876 -0.472345
C33   C     C_3   0.252001 0.182036 0.719909 -0.816254
H22   H     H_    0.217410 0.204533 0.636679 0.251086
H23   H     H_    0.334319 0.134734 0.707104 0.256948
H24   H     H_    0.176917 0.133046 0.748935 0.254560
H25   H     H_    0.323706 0.250531 0.889916 0.241648
H26   H     H_    0.199294 0.319956 0.823183 0.250095
H27   H     H_    0.339611 0.369407 0.690775 0.250223
H28   H     H_    0.465276 0.303002 0.754154 0.221779
C34   C     C_3   0.691355 0.672873 0.818738 -0.365764
C35   C     C_3   0.830431 0.678872 0.865604 -0.383249
C36   C     C_3   0.902975 0.771336 0.829882 -0.882648
H29   H     H_    0.884037 0.773427 0.736634 0.249741
H30   H     H_    0.875180 0.845819 0.878199 0.258823
H31   H     H_    0.004888 0.765636 0.849813 0.251935
H32   H     H_    0.843437 0.690535 0.960620 0.216310
H33   H     H_    0.872124 0.604459 0.834738 0.264421
H34   H     H_    0.690112 0.661541 0.725222 0.245082
H35   H     H_    0.653664 0.749711 0.847408 0.166517
Cl1   Cl    Cl    0.885780 0.392018 0.693141 -0.676474

loop_
_geom_bond_atom_site_label_1
_geom_bond_atom_site_label_2
_ccdc_geom_bond_type
C27   H16   S    
C33   H23   S    
C4    H21   S    
C19   C20   A    
C36   H31   S    
C34   H35   S    
C18   H15   S    
C6    C9    A    
C7    C8    A    
C22   N1    A    
C7    C11   A    
C9    H10   S    
C24   H13   S    
Cu1   O3    S    
C3    C28   S    
C1    O1    A    
C36   H30   S    
Cu2   O6    S    
C10   C15   A    
C29   H19   S    
C21   N1    A    
C33   H24   S    
C32   H25   S    
C18   C19   A    
C25   O8    A    
C21   C31   S    
C12   O4    A    
C28   H3    S    
C16   C17   A    
C31   H28   S    
C2    C27   S    
Cu1   O1    S    
C35   H32   S    
C16   H12   S    
Cu2   N2    S    
C13   H5    S    
C4    C29   S    
C12   O3    A    
C33   H22   S    
C8    H9    S    
Cu1   O7    S    
Cu2   O2    S    
C34   H34   S    
C3    H18   S    
C26   H11   S    
C23   O5    A    
C4    H2    S    
C34   C35   S    
C1    C6    S    
C17   H14   S    
C35   H33   S    
C6    C8    A    
C32   H26   S    
Cu1   O5    S    
C2    C4    S    
C35   C36   S    
C29   C30   S    
C1    O2    A    
C14   H6    S    
C28   H17   S    
C26   H1    S    
Cu1   Cu2   S    
C5    C23   S    
C16   C20   A    
C26   C27   S    
C36   H29   S    
C5    C14   A    
C18   N2    A    
C26   C30   S    
C22   C24   A    
C22   C34   S    
C9    C10   A    
C17   N2    A    
C27   Cl1   S    
C12   C30   S    
C5    C13   A    
Cu2   O8    S    
C31   C32   S    
C28   C30   S    
C19   C24   A    
C11   C13   A    
C3    H4    S    
C2    C3    S    
C2    C25   S    
C25   O7    A    
C31   H27   S    
Cu1   N1    S    
C15   H8    S    
C10   C11   A    
C23   O6    A    
C20   C21   A    
C32   C33   S    
C7    H7    S    
C14   C15   A    
Cu2   O4    S    
C29   H20   S    
