data_mof_unit_54081.cif
_audit_creation_date              2012-12-11T16:33:28-0500
_audit_creation_method            fapswitch 2.2
_symmetry_space_group_name_H-M    P1
_symmetry_Int_Tables_number       1
_space_group_crystal_system       triclinic
_cell_length_a                    7.001991
_cell_length_b                    18.457873
_cell_length_c                    19.956498
_cell_angle_alpha                 68.408853
_cell_angle_beta                  89.821581
_cell_angle_gamma                 91.143355
_cell_volume                      2397.61089985

loop_
_atom_site_label
_atom_site_type_symbol
_atom_type_description
_atom_site_fract_x
_atom_site_fract_y
_atom_site_fract_z
_atom_type_partial_charge
O1    O     O_R   0.488960 0.443750 0.941980 -0.514553
O2    O     O_R   0.823890 0.406510 0.087590 -0.542448
O3    O     O_R   0.999680 0.556250 0.058020 -0.539163
C1    C     C_R   0.654441 0.385611 0.116373 0.664417
O4    O     O_R   0.818360 0.434410 0.944340 -0.525528
O5    O     O_R   0.994110 0.584350 0.913750 -0.532010
C2    C     C_R   0.649183 0.420497 0.923881 0.725508
O6    O     O_R   0.494530 0.415650 0.086250 -0.541868
O7    O     O_3   0.662590 0.549160 0.990130 -0.374683
V1    V     V_3+5 0.935320 0.490880 0.001830 1.567007
O8    O     O_R   0.324180 0.593490 0.912410 -0.537020
C3    C     C_R   0.158035 0.617134 0.885542 0.801064
O9    O     O_R   0.329720 0.565590 0.055660 -0.535844
C4    C     C_R   0.161414 0.580029 0.075543 0.680735
V2    V     V_3+5 0.435990 0.509120 0.998170 1.571285
O10   O     O_3   0.158850 0.450840 0.009870 -0.362644
C5    C     C_3   0.046825 0.714531 0.307829 -0.216828
C6    C     C_3   0.225782 0.691917 0.276291 0.439847
H1    H     H_    0.982743 0.680166 0.361403 0.256294
H2    H     H_    0.447412 0.802757 0.259584 0.219062
C7    C     C_1   0.152308 0.627174 0.119462 -0.043398
C8    C     C_1   0.110694 0.878543 0.374625 -0.058526
C9    C     C_3   0.951657 0.734208 0.234217 0.318349
C10   C     C_3   0.129825 0.713467 0.202561 -0.200590
C11   C     C_3   0.017753 0.819788 0.212254 -0.185497
C12   C     C_3   0.121176 0.799016 0.285007 -0.122015
C13   C     C_3   0.201024 0.798808 0.180391 0.433182
C14   C     C_3   0.305618 0.778185 0.254046 -0.173558
C15   C     C_1   0.142029 0.666328 0.156534 0.287004
C16   C     C_1   0.115440 0.843189 0.333877 0.213695
H3    H     H_    0.928696 0.871241 0.185759 0.268754
H4    H     H_    0.085618 0.535894 0.676168 0.205521
C17   C     C_R   0.305499 0.771173 0.870731 -0.247724
C18   C     C_R   0.362782 0.845011 0.867022 0.711882
C19   C     C_R   0.303149 0.910179 0.810478 -0.204464
C20   C     C_R   0.191861 0.902283 0.755344 0.332691
C21   C     C_R   0.167871 0.827282 0.750188 -0.046229
C22   C     C_R   0.209110 0.760567 0.812741 -0.081007
C23   C     C_R   0.100290 0.816385 0.686871 -0.047233
C24   C     C_R   0.051512 0.739200 0.690746 -0.153604
C25   C     C_R   0.103474 0.673943 0.752153 -0.072902
C26   C     C_R   0.158125 0.684747 0.815849 -0.053295
C27   C     C_R   0.953087 0.723611 0.635085 0.288189
C28   C     C_R   0.988700 0.653252 0.625206 0.308949
C29   C     C_R   0.066587 0.591673 0.681395 -0.271158
C30   C     C_R   0.109904 0.599717 0.746299 0.558922
H5    H     H_    0.344197 0.722670 0.918467 0.154352
H6    H     H_    0.331741 0.967114 0.812734 0.197422
C31   C     C_R   0.604580 0.099775 0.247079 -0.334602
C32   C     C_R   0.600588 0.089263 0.181340 0.389524
C33   C     C_R   0.601013 0.154245 0.116967 0.614768
C34   C     C_R   0.612365 0.229064 0.118394 -0.284043
C35   C     C_R   0.623137 0.240987 0.184278 -0.017223
C36   C     C_R   0.616619 0.175019 0.249885 -0.008846
C37   C     C_R   0.642696 0.317056 0.185448 -0.052334
C38   C     C_R   0.659752 0.326675 0.252717 -0.039272
C39   C     C_R   0.648913 0.260555 0.318300 0.000874
C40   C     C_R   0.625053 0.184925 0.316835 -0.042136
C41   C     C_R   0.689382 0.401079 0.256359 -0.312836
C42   C     C_R   0.708501 0.409846 0.322715 0.693597
C43   C     C_R   0.695216 0.345203 0.387030 0.390180
C44   C     C_R   0.664556 0.271369 0.384625 -0.320137
H7    H     H_    0.600297 0.048378 0.295993 0.169655
H8    H     H_    0.614104 0.277429 0.067145 0.145449
H9    H     H_    0.699709 0.453027 0.207992 0.174339
H10   H     H_    0.654772 0.222444 0.435411 0.153699
O11   O     O_R   0.770540 0.084530 0.414050 -0.555126
O12   O     O_R   0.445710 0.065660 0.555720 -0.524446
O13   O     O_R   0.270420 0.915650 0.586190 -0.543641
C45   C     C_R   0.614623 0.079860 0.576043 0.761176
O14   O     O_R   0.441140 0.093540 0.412470 -0.549632
O15   O     O_R   0.265820 0.943740 0.441930 -0.546663
C46   C     C_R   0.611353 0.116113 0.385235 0.630376
O16   O     O_R   0.775150 0.056440 0.558310 -0.498481
O17   O     O_3   0.602370 0.950960 0.510050 -0.333186
V3    V     V_3+5 0.329450 0.009140 0.498150 1.613089
O18   O     O_R   0.935790 0.934280 0.444060 -0.519698
C47   C     C_R   0.103870 0.921339 0.422830 0.690837
O19   O     O_R   0.940370 0.906390 0.587310 -0.465298
C48   C     C_R   0.105532 0.882880 0.615222 0.799232
V4    V     V_3+5 0.828810 0.990710 0.501460 1.731550
O20   O     O_3   0.105780 0.049100 0.489960 -0.364754
C49   C     C_3   0.686979 0.324841 0.710559 -0.252349
C50   C     C_3   0.508248 0.282619 0.694556 -0.124230
H11   H     H_    0.405363 0.308264 0.650344 0.201296
H12   H     H_    0.733214 0.385854 0.678890 0.203108
C51   C     C_1   0.622962 0.125777 0.621271 -0.037028
C52   C     C_1   0.639813 0.375015 0.878167 -0.072496
C53   C     C_3   0.807647 0.251450 0.721777 -0.126890
C54   C     C_3   0.628779 0.209758 0.706713 -0.068385
C55   C     C_3   0.750963 0.219671 0.802451 0.692551
C56   C     C_3   0.632831 0.292182 0.791543 -0.110722
C57   C     C_3   0.574334 0.176527 0.787648 -0.271423
C58   C     C_3   0.457356 0.250263 0.775744 0.627483
C59   C     C_1   0.626353 0.163813 0.659584 0.134820
C60   C     C_1   0.635449 0.337503 0.839333 0.170955
H13   H     H_    0.527966 0.115600 0.819552 0.198206
H14   H     H_    0.953518 0.251264 0.699871 0.190601
S1    S     S_3+6 0.280980 0.591563 0.326628 0.172406
O21   O     O_2   0.097991 0.544140 0.342693 -0.247517
O22   O     O_2   0.407833 0.560919 0.282918 -0.249227
O23   O     O_3   0.384047 0.582042 0.405369 -0.427677
H15   H     H_    0.412551 0.525938 0.428181 0.418230
S2    S     S_3+6 0.039027 0.980887 0.712558 -0.006620
O24   O     O_2   0.121719 0.031754 0.640843 -0.356224
O25   O     O_2   0.844964 0.950068 0.702974 -0.331120
O26   O     O_3   0.015657 0.034776 0.764141 -0.477457
H16   H     H_    0.970920 0.085977 0.731124 0.361328
S3    S     S_3+6 0.717908 0.758792 0.614525 0.069251
O27   O     O_2   0.702540 0.804570 0.535247 -0.282340
O28   O     O_2   0.580163 0.690359 0.634434 -0.324534
O29   O     O_3   0.658011 0.814157 0.661837 -0.486016
H17   H     H_    0.520330 0.803204 0.673314 0.341843
S4    S     S_3+6 0.924127 0.638116 0.545637 0.102754
O30   O     O_2   0.727167 0.601750 0.554785 -0.247908
O31   O     O_2   0.926278 0.714033 0.482352 -0.324147
O32   O     O_3   0.078116 0.577389 0.529743 -0.462761
H18   H     H_    0.204323 0.604313 0.524136 0.373397
F1    F     F_    0.175993 0.536134 0.800165 -0.676806
S5    S     S_3+6 0.713817 0.354792 0.471682 0.063114
O33   O     O_2   0.519681 0.339948 0.507048 -0.340175
O34   O     O_2   0.848854 0.295114 0.517986 -0.341755
O35   O     O_3   0.793732 0.444275 0.463403 -0.390405
H19   H     H_    0.790327 0.444437 0.512980 0.397619
S6    S     S_3+6 0.591345 0.994123 0.180938 0.064628
O36   O     O_2   0.678033 0.938231 0.248563 -0.357928
O37   O     O_2   0.385760 0.970748 0.178309 -0.306536
O38   O     O_3   0.711447 0.990668 0.109049 -0.418466
H20   H     H_    0.619254 0.006540 0.068997 0.429852
F2    F     F_    0.590268 0.145893 0.052344 -0.625661
F3    F     F_    0.740638 0.481630 0.324151 -0.505984
F4    F     F_    0.276217 0.250106 0.803543 -0.603532
F5    F     F_    0.876540 0.187319 0.858352 -0.559648
S7    S     S_3+6 0.267501 0.859810 0.089773 0.172737
O39   O     O_2   0.479836 0.872238 0.081276 -0.225563
O40   O     O_2   0.197025 0.822566 0.038765 -0.298640
O41   O     O_3   0.164010 0.946731 0.068746 -0.432131
H21   H     H_    0.207098 0.977360 0.018784 0.402962
S8    S     S_3+6 0.729250 0.691855 0.231896 0.127557
O42   O     O_2   0.611441 0.745072 0.172643 -0.299160
O43   O     O_2   0.754458 0.617072 0.219803 -0.243241
O44   O     O_3   0.633532 0.674379 0.313533 -0.423110
H22   H     H_    0.664166 0.720682 0.325650 0.329294
F6    F     F_    0.465729 0.853625 0.921152 -0.576513

loop_
_geom_bond_atom_site_label_1
_geom_bond_atom_site_label_2
_ccdc_geom_bond_type
C11   H3    S    
C37   C38   A    
C52   C60   T    
C57   C58   S    
C31   H7    S    
H4    C29   S    
C19   C20   A    
C10   C13   S    
O15   V3    S    
O38   H20   S    
S7    O41   S    
S2    O25   D    
S4    O30   D    
O35   H19   S    
O18   C47   A    
C34   C35   A    
C49   C56   S    
C18   F6    S    
C5    C9    S    
C49   C50   S    
C6    C10   S    
C5    C12   S    
C4    C7    S    
C9    S8    S    
C20   C21   A    
C22   C26   A    
S3    O28   D    
O5    C3    A    
O14   V3    S    
S8    O44   S    
C19   H6    S    
C31   C36   A    
C56   C60   S    
C38   C39   A    
O13   V3    S    
C5    C6    S    
C18   C19   A    
C25   C26   A    
C10   C15   S    
O29   H17   S    
O15   C47   A    
O8    V2    S    
C24   C27   A    
C2    C52   S    
C51   C59   T    
C45   O16   A    
S6    O38   S    
C3    C26   S    
O26   H16   S    
O11   C46   A    
C53   C55   S    
O7    V1    S    
S5    O35   S    
C1    O6    A    
C28   S4    S    
C41   C42   A    
O9    C4    A    
C43   S5    S    
C43   C44   A    
C50   C54   S    
C45   C51   S    
C42   F3    S    
S2    O24   D    
C33   F2    S    
S5    O34   D    
V4    O20   S    
C35   C37   A    
C49   C53   S    
S8    O42   D    
C44   H10   S    
C33   C34   A    
C54   C59   S    
C6    C14   S    
C50   H11   S    
C8    C47   S    
C34   H8    S    
S3    O29   S    
V3    O20   S    
C55   C56   S    
O19   V4    S    
O17   V4    S    
S7    O40   D    
H2    C14   S    
C39   C44   A    
C11   C12   S    
C35   C36   A    
C7    C15   T    
C58   F4    S    
C42   C43   A    
O2    C1    A    
O17   V3    S    
C21   C22   A    
C55   C57   S    
S1    O21   D    
C55   F5    S    
O18   V4    S    
C25   C30   A    
S1    O23   S    
C56   C58   S    
C32   C33   A    
C32   S6    S    
C50   C58   S    
O3    C4    A    
O1    V2    S    
C24   C25   A    
S1    O22   D    
C12   C16   S    
O6    V2    S    
O9    V2    S    
C1    C37   S    
S6    O36   D    
C17   H5    S    
O12   V3    S    
C6    S1    S    
O16   V4    S    
O2    V1    S    
C57   H13   S    
C23   C24   A    
S5    O33   D    
C54   C57   S    
O4    C2    A    
C36   C40   A    
C8    C16   T    
O1    C2    A    
C13   S7    S    
C28   C29   A    
O5    V1    S    
S4    O31   D    
O8    C3    A    
O11   V4    S    
S7    O39   D    
C11   C13   S    
O41   H21   S    
C12   C14   S    
C17   C22   A    
C38   C41   A    
C53   H14   S    
C20   S2    S    
C23   C48   S    
O7    V2    S    
O4    V1    S    
C21   C23   A    
O3    V1    S    
V1    O10   S    
S3    O27   D    
C41   H9    S    
S8    O43   D    
C39   C40   A    
C27   C28   A    
C5    H1    S    
C17   C18   A    
C30   F1    S    
C9    C11   S    
O23   H15   S    
S4    O32   S    
C9    C10   S    
O19   C48   A    
C29   C30   A    
C49   H12   S    
O12   C45   A    
C31   C32   A    
O14   C46   A    
C13   C14   S    
S6    O37   D    
O44   H22   S    
O13   C48   A    
C27   S3    S    
C53   C54   S    
O32   H18   S    
S2    O26   S    
V2    O10   S    
C40   C46   S    
