data_mof_unit_27329.cif
_audit_creation_date              2012-12-10T18:33:46-0500
_audit_creation_method            fapswitch 2.2
_symmetry_space_group_name_H-M    P1
_symmetry_Int_Tables_number       1
_space_group_crystal_system       triclinic
_cell_length_a                    10.508044
_cell_length_b                    14.981639
_cell_length_c                    15.47065
_cell_angle_alpha                 81.723674
_cell_angle_beta                  89.12399
_cell_angle_gamma                 104.824362
_cell_volume                      2326.461489

loop_
_atom_site_label
_atom_site_type_symbol
_atom_type_description
_atom_site_fract_x
_atom_site_fract_y
_atom_site_fract_z
_atom_type_partial_charge
C1    C     C_R   0.475859 0.441240 0.662125 0.916322
C2    C     C_R   0.476290 0.486933 0.046167 0.130612
C3    C     C_R   0.461288 0.391985 0.081093 -0.133332
C4    C     C_R   0.548316 0.608322 0.920010 -0.257703
C5    C     C_R   0.457400 0.325545 0.026029 -0.233770
C6    C     C_R   0.589961 0.674735 0.974939 -0.212334
C7    C     C_R   0.693674 0.840872 0.639379 -0.100007
C8    C     C_R   0.299047 0.157950 0.364365 -0.108532
C9    C     C_R   0.661269 0.752244 0.615003 -0.053441
C10   C     C_R   0.335721 0.247384 0.386806 -0.063588
C11   C     C_R   0.516282 0.794527 0.510481 -0.066443
C12   C     C_R   0.514463 0.558630 0.338108 0.831611
C13   C     C_R   0.481875 0.204694 0.490171 -0.064930
C14   C     C_R   0.542720 0.885736 0.531324 -0.033869
C15   C     C_R   0.449545 0.112248 0.472192 -0.035374
C16   C     C_R   0.742703 0.501654 0.498500 0.903344
C17   C     C_R   0.257331 0.498744 0.500443 0.929543
C18   C     C_R   0.629787 0.907796 0.599445 0.143618
C19   C     C_R   0.360666 0.090056 0.405109 0.150421
C20   C     C_R   0.482883 0.954112 0.488399 0.097157
C21   C     C_R   0.506006 0.042842 0.516692 0.087979
C22   C     C_R   0.583942 0.059273 0.589079 -0.264266
C23   C     C_R   0.428482 0.463665 0.813496 -0.073357
C24   C     C_R   0.401770 0.936940 0.417528 -0.284693
C25   C     C_R   0.645135 0.993801 0.628749 -0.160963
C26   C     C_R   0.341007 0.002716 0.377855 -0.161038
C27   C     C_3   0.930073 0.436231 0.564260 -0.312543
C28   C     C_3   0.070052 0.564586 0.432667 -0.338388
C29   C     C_3   0.046935 0.519581 0.576872 -0.293626
C30   C     C_3   0.952707 0.481246 0.420076 -0.337804
C31   C     C_3   0.121819 0.497744 0.499742 -0.100730
C32   C     C_3   0.878254 0.503110 0.497542 -0.100058
C33   C     C_3   0.006688 0.415968 0.487378 0.594682
C34   C     C_R   0.449466 0.537606 0.188277 -0.075819
C35   C     C_3   0.993453 0.584763 0.509684 0.589632
C36   C     C_R   0.452325 0.404862 0.755420 -0.062410
C37   C     C_R   0.517972 0.595350 0.245355 -0.149394
C38   C     C_R   0.458303 0.286468 0.878715 -0.181289
C39   C     C_R   0.613466 0.713836 0.121831 -0.198811
C40   C     C_R   0.464468 0.315230 0.788470 -0.229233
C41   C     C_R   0.597001 0.684812 0.211977 -0.187267
C42   C     C_2   0.795155 0.858836 0.704940 0.336101
C43   C     C_2   0.195215 0.140281 0.300258 0.332436
C44   C     C_3   0.919118 0.275860 0.437845 0.034601
C45   C     C_R   0.457991 0.443981 0.901010 0.000194
C46   C     C_3   0.919724 0.172872 0.453023 -0.291209
C47   C     C_3   0.825676 0.117014 0.394206 -0.872519
C48   C     C_3   0.097689 0.734315 0.536217 0.068262
C49   C     C_3   0.090926 0.755954 0.629534 -0.337950
C50   C     C_3   0.218253 0.823397 0.650180 -0.881905
C51   C     C_2   0.319225 0.470248 0.218148 0.344042
C52   C     C_2   0.350279 0.533362 0.788785 0.393552
C53   C     C_R   0.494121 0.557070 0.099926 0.087846
C54   C     C_R   0.457066 0.351118 0.935613 0.172657
C55   C     C_R   0.565020 0.649499 0.065177 0.141040
C56   C     C_R   0.489497 0.513833 0.954912 0.037270
H1    H     H_    0.086834 0.536070 0.640145 0.212633
H2    H     H_    0.131806 0.617303 0.380566 0.156502
H3    H     H_    0.454077 0.254364 0.054122 0.145820
H4    H     H_    0.642202 0.745454 0.946915 0.148875
H5    H     H_    0.646316 0.731744 0.255354 0.174412
H6    H     H_    0.478452 0.267733 0.744797 0.163232
H7    H     H_    0.462277 0.215909 0.903699 0.144625
H8    H     H_    0.671327 0.784003 0.096660 0.149223
H9    H     H_    0.462422 0.369825 0.150779 0.147061
H10   H     H_    0.571498 0.629973 0.850476 0.142412
H11   H     H_    0.700915 0.010885 0.684867 0.197531
H12   H     H_    0.909294 0.465872 0.357173 0.161261
H13   H     H_    0.282826 0.984918 0.322903 0.200827
H14   H     H_    0.805708 0.801546 0.753513 0.058403
H15   H     H_    0.184613 0.197494 0.251607 0.098599
H16   H     H_    0.932358 0.302415 0.366420 0.159182
H17   H     H_    0.821778 0.281271 0.463233 0.141744
H18   H     H_    0.020863 0.166442 0.439438 0.252167
H19   H     H_    0.889969 0.143172 0.522628 0.236745
H20   H     H_    0.725696 0.127669 0.401671 0.253021
H21   H     H_    0.819419 0.041471 0.412197 0.285180
H22   H     H_    0.862107 0.139413 0.324684 0.271934
H23   H     H_    0.553287 0.229441 0.536158 0.126362
H24   H     H_    0.111901 0.800368 0.489745 0.181877
H25   H     H_    0.186137 0.707893 0.526042 0.139923
H26   H     H_    0.007396 0.787457 0.637558 0.240224
H27   H     H_    0.073105 0.690154 0.676726 0.220279
H28   H     H_    0.302421 0.791835 0.645452 0.265275
H29   H     H_    0.209137 0.838630 0.717799 0.267474
H30   H     H_    0.237717 0.890082 0.604123 0.274787
H31   H     H_    0.284570 0.457092 0.286274 0.087821
H32   H     H_    0.336159 0.580108 0.833226 0.082328
H33   H     H_    0.447853 0.769748 0.462923 0.125655
H34   H     H_    0.290681 0.300839 0.357212 0.138690
H35   H     H_    0.706585 0.698950 0.644920 0.135903
H36   H     H_    0.598034 0.121887 0.618301 0.140825
H37   H     H_    0.383772 0.873362 0.389671 0.141574
H38   H     H_    0.868537 0.383399 0.616374 0.161148
N1    N     N_R   0.574200 0.731700 0.552740 -0.091530
N2    N     N_R   0.425800 0.268300 0.447260 -0.095148
O1    O     O_R   0.462600 0.383110 0.605620 -0.623862
O2    O     O_2   0.115347 0.064424 0.304356 -0.571446
O3    O     O_3   0.024520 0.326931 0.480719 -0.624100
O4    O     O_3   0.976580 0.673260 0.519700 -0.630311
O5    O     O_2   0.244151 0.433895 0.166169 -0.575259
O6    O     O_2   0.291598 0.534710 0.721420 -0.592014
O7    O     O_R   0.537400 0.616890 0.394380 -0.614682
O8    O     O_R   0.510210 0.531900 0.639510 -0.589437
O9    O     O_R   0.489790 0.468100 0.360490 -0.634695
O10   O     O_R   0.662240 0.425610 0.483080 -0.640913
O11   O     O_R   0.337760 0.574390 0.516920 -0.615607
O12   O     O_R   0.709860 0.574400 0.516970 -0.577063
O13   O     O_R   0.290140 0.425600 0.483030 -0.586892
O14   O     O_2   0.873295 0.935221 0.702177 -0.565243
Zn1   Zn    Zn3+2 0.468210 0.400660 0.477370 0.952496
Zn2   Zn    Zn3+2 0.531790 0.599340 0.522630 0.979849

loop_
_geom_bond_atom_site_label_1
_geom_bond_atom_site_label_2
_ccdc_geom_bond_type
C4    H10   S    
C13   H23   S    
C23   C45   A    
C27   C29   S    
C34   C37   A    
O11   Zn2   S    
C14   C18   A    
C25   H11   S    
C43   O2    D    
C41   H5    S    
C6    C55   A    
C9    H35   S    
C50   H28   S    
C39   C41   A    
C27   C33   S    
C15   C19   A    
C39   H8    S    
C52   O6    D    
C34   C51   S    
C24   C26   A    
C47   H20   S    
N1    Zn2   S    
C17   O11   A    
C12   O9    A    
O1    Zn1   S    
C11   C14   A    
C42   H14   S    
C40   H6    S    
C48   H25   S    
C7    C42   S    
C12   C37   S    
C19   C26   A    
C50   H29   S    
C39   C55   A    
C20   C24   A    
C45   C56   A    
C22   C25   A    
C31   C33   S    
C30   C32   S    
C9    N1    A    
C16   O10   A    
O9    Zn1   S    
C21   C22   A    
C4    C56   A    
C3    H9    S    
C18   C25   A    
C46   H19   S    
C44   C46   S    
O10   Zn1   S    
C53   C55   A    
C48   O4    S    
N2    Zn1   S    
C8    C19   A    
C5    H3    S    
C13   N2    A    
C32   C35   S    
C14   C20   A    
C5    C54   A    
C36   C40   A    
C28   C35   S    
C12   O7    A    
C4    C6    A    
C1    O1    A    
O8    Zn2   S    
C50   H30   S    
O12   Zn2   S    
O7    Zn2   S    
C33   O3    S    
C49   H26   S    
C6    H4    S    
C11   H33   S    
C38   C54   A    
C10   N2    A    
C7    C18   A    
C1    O8    A    
C48   C49   S    
C29   H1    S    
C45   C54   A    
C23   C36   A    
C13   C15   A    
C17   C31   S    
C16   C32   S    
C47   H21   S    
C51   H31   S    
C35   O4    S    
C46   H18   S    
C38   H7    S    
C11   N1    A    
C7    C9    A    
C46   C47   S    
C43   H15   S    
C30   C33   S    
C27   C32   S    
C28   C31   S    
C3    C5    A    
C2    C53   A    
C17   O13   A    
C28   H2    S    
C51   O5    D    
C29   C35   S    
C49   H27   S    
C28   C30   S    
C2    C3    A    
C42   O14   D    
C29   C31   S    
C2    C56   A    
C24   H37   S    
C38   C40   A    
C48   H24   S    
C23   C52   S    
O13   Zn1   S    
C8    C43   S    
C44   O3    S    
C44   H16   S    
C37   C41   A    
C44   H17   S    
C52   H32   S    
C16   O12   A    
C15   C21   A    
C20   C21   A    
C10   H34   S    
C34   C53   A    
C8    C10   A    
C49   C50   S    
C26   H13   S    
C22   H36   S    
C27   H38   S    
C47   H22   S    
C30   H12   S    
C1    C36   S    
