data_mof_unit_55798.cif
_audit_creation_date              2012-12-11T17:11:31-0500
_audit_creation_method            fapswitch 2.2
_symmetry_space_group_name_H-M    P1
_symmetry_Int_Tables_number       1
_space_group_crystal_system       triclinic
_cell_length_a                    15.021048
_cell_length_b                    6.938862
_cell_length_c                    13.642437
_cell_angle_alpha                 89.934187
_cell_angle_beta                  101.013381
_cell_angle_gamma                 90.127013
_cell_volume                      1395.74507622

loop_
_atom_site_label
_atom_site_type_symbol
_atom_type_description
_atom_site_fract_x
_atom_site_fract_y
_atom_site_fract_z
_atom_type_partial_charge
O1    O     O_R   0.398250 0.605080 0.401520 -0.536597
O2    O     O_R   0.898250 0.394920 0.901520 -0.542527
O3    O     O_R   0.584130 0.932110 0.405450 -0.508311
O4    O     O_R   0.084130 0.067890 0.905450 -0.508223
O5    O     O_R   0.601750 0.105090 0.598480 -0.536767
O6    O     O_R   0.101750 0.894910 0.098480 -0.534497
C1    C     C_R   0.614100 0.763876 0.386463 0.747831
C2    C     C_R   0.110699 0.237049 0.882126 0.748798
O7    O     O_R   0.397870 0.934620 0.389680 -0.539937
O8    O     O_R   0.897870 0.065380 0.889680 -0.542678
O9    O     O_R   0.414160 0.107620 0.582600 -0.555567
O10   O     O_R   0.914160 0.892380 0.082600 -0.557805
C3    C     C_R   0.364013 0.765672 0.362637 0.732847
C4    C     C_R   0.864007 0.234217 0.862632 0.716954
O11   O     O_R   0.585840 0.602550 0.417400 -0.547811
O12   O     O_R   0.085840 0.397450 0.917400 -0.545445
O13   O     O_3   0.505560 0.772440 0.563310 -0.373827
O14   O     O_3   0.005560 0.227560 0.063310 -0.370499
V1    V     V_3+5 0.498970 0.046250 0.488250 1.452559
V2    V     V_3+5 0.998970 0.953750 0.988250 1.443766
O15   O     O_R   0.415870 0.437500 0.594550 -0.524283
O16   O     O_R   0.915870 0.562500 0.094550 -0.523032
C5    C     C_R   0.388774 0.268855 0.617039 0.653188
C6    C     C_R   0.885975 0.729983 0.113446 0.659568
O17   O     O_R   0.602130 0.434980 0.610320 -0.544928
O18   O     O_R   0.102130 0.565020 0.110320 -0.538776
C7    C     C_R   0.635828 0.265947 0.637522 0.715259
C8    C     C_R   0.135996 0.734127 0.137290 0.742735
V3    V     V_3+5 0.501030 0.546580 0.511750 1.435533
V4    V     V_3+5 0.001030 0.453420 0.011750 1.437047
O19   O     O_3   0.494440 0.270520 0.436690 -0.362791
O20   O     O_3   0.994440 0.729480 0.936690 -0.371952
C9    C     C_1   0.716268 0.255289 0.716972 -0.197728
C10   C     C_1   0.216358 0.744843 0.216850 -0.192282
C11   C     C_1   0.783633 0.244921 0.783084 -0.199951
C12   C     C_1   0.283672 0.754942 0.283051 -0.189170
C13   C     C_2   0.267294 0.122604 0.691233 -0.302083
C14   C     C_2   0.797609 0.882220 0.227139 -0.327246
C15   C     C_2   0.329218 0.264980 0.692110 0.217384
C16   C     C_2   0.813239 0.727209 0.172734 0.212773
H1    H     H_    0.267613 0.004978 0.638780 0.126552
H2    H     H_    0.836703 0.012077 0.220776 0.143010
C17   C     C_2   0.199628 0.103282 0.758777 0.457422
C18   C     C_2   0.731366 0.898773 0.296427 0.455515
C19   C     C_2   0.173669 0.252687 0.811128 -0.398664
C20   C     C_2   0.681336 0.749415 0.321037 -0.403253
H3    H     H_    0.195348 0.397740 0.799403 0.190486
H4    H     H_    0.690886 0.604545 0.297721 0.191419
O21   O     O_3   0.333947 0.418549 0.757573 -0.547744
C21   C     C_3   0.413653 0.402259 0.830998 0.112557
H5    H     H_    0.475305 0.416311 0.797322 0.103390
H6    H     H_    0.415451 0.261818 0.871130 0.109185
C22   C     C_3   0.415191 0.563403 0.906824 -0.691085
H7    H     H_    0.355091 0.551672 0.942953 0.223645
H8    H     H_    0.477624 0.553334 0.965123 0.161044
H9    H     H_    0.414132 0.705618 0.869145 0.226199
O22   O     O_3   0.768407 0.554113 0.177550 -0.548806
C23   C     C_3   0.703747 0.529261 0.088613 0.095655
H10   H     H_    0.736329 0.528031 0.021788 0.108606
H11   H     H_    0.651936 0.645863 0.080314 0.109267
C24   C     C_3   0.655959 0.336773 0.092935 -0.676898
H12   H     H_    0.620928 0.333966 0.157641 0.237071
H13   H     H_    0.605163 0.314592 0.023232 0.151514
H14   H     H_    0.706098 0.217698 0.100708 0.226225
O23   O     O_3   0.161913 0.922195 0.764947 -0.531583
C25   C     C_3   0.086474 0.902490 0.685796 0.135473
H15   H     H_    0.104407 0.936047 0.611994 0.088558
H16   H     H_    0.030516 0.999430 0.697743 0.098398
C26   C     C_3   0.052247 0.695662 0.682010 -0.703604
H17   H     H_    0.034503 0.654991 0.754570 0.238663
H18   H     H_    0.990923 0.680900 0.622418 0.155117
H19   H     H_    0.105382 0.596683 0.665332 0.214718
O24   O     O_3   0.722402 0.079697 0.336310 -0.534597
C27   C     C_3   0.790764 0.102326 0.422467 0.130861
H20   H     H_    0.859436 0.067521 0.407656 0.094740
H21   H     H_    0.776330 0.008113 0.483729 0.101372
C28   C     C_3   0.792528 0.310568 0.457268 -0.704959
H22   H     H_    0.724558 0.352964 0.470100 0.228017
H23   H     H_    0.842502 0.327325 0.528101 0.155492
H24   H     H_    0.812365 0.406623 0.399890 0.229488

loop_
_geom_bond_atom_site_label_1
_geom_bond_atom_site_label_2
_ccdc_geom_bond_type
C25   H16   S    
C26   H19   S    
O13   V3    S    
O24   C27   S    
C22   H8    S    
O4    C2    A    
V1    O19   S    
C28   H22   S    
C7    C9    S    
O9    V1    S    
C27   H21   S    
C14   H2    S    
O3    C1    A    
C26   H17   S    
C28   H24   S    
C25   C26   S    
C23   H11   S    
C26   H18   S    
O9    C5    A    
C24   H13   S    
O7    C3    A    
C2    C19   S    
C9    C11   T    
O5    C7    A    
O7    V1    S    
O6    C8    A    
O8    V2    S    
C27   C28   S    
C21   H6    S    
O3    V1    S    
O14   V4    S    
V4    O20   S    
O14   V2    S    
C23   C24   S    
C28   H23   S    
C25   H15   S    
C8    C10   S    
C2    O12   A    
C24   H12   S    
C18   C20   D    
O11   V3    S    
C19   H3    S    
O17   V3    S    
C20   H4    S    
C21   C22   S    
C27   H20   S    
C1    C20   S    
C3    C12   S    
O8    C4    A    
C4    C11   S    
O13   V1    S    
C23   H10   S    
C22   H7    S    
O15   V3    S    
C13   C17   S    
C24   H14   S    
C14   C18   S    
C17   O23   S    
O10   V2    S    
O1    V3    S    
C21   H5    S    
C17   C19   D    
C15   O21   S    
O18   V4    S    
O15   C5    A    
O21   C21   S    
O16   C6    A    
O1    C3    A    
V2    O20   S    
C22   H9    S    
C16   O22   S    
O16   V4    S    
O5    V1    S    
O17   C7    A    
O6    V2    S    
O10   C6    A    
O18   C8    A    
O2    V4    S    
V3    O19   S    
C14   C16   D    
O22   C23   S    
C5    C15   S    
C1    O11   A    
C6    C16   S    
C10   C12   T    
C13   H1    S    
C18   O24   S    
O2    C4    A    
O4    V2    S    
C13   C15   D    
O23   C25   S    
O12   V4    S    
