data_mof_unit_14028.cif
_audit_creation_date              2012-12-10T17:42:42-0500
_audit_creation_method            fapswitch 2.2
_symmetry_space_group_name_H-M    P1
_symmetry_Int_Tables_number       1
_space_group_crystal_system       triclinic
_cell_length_a                    9.93486
_cell_length_b                    10.623867
_cell_length_c                    13.120873
_cell_angle_alpha                 91.352779
_cell_angle_beta                  69.875204
_cell_angle_gamma                 89.987872
_cell_volume                      1299.89802698

loop_
_atom_site_label
_atom_site_type_symbol
_atom_type_description
_atom_site_fract_x
_atom_site_fract_y
_atom_site_fract_z
_atom_type_partial_charge
C1    C     C_R   0.501195 0.739246 0.497237 0.857076
C2    C     C_R   0.368355 0.486470 0.821913 -0.115788
C3    C     C_R   0.463466 0.863587 0.313909 -0.176976
C4    C     C_R   0.420173 0.494104 0.703887 0.840951
C5    C     C_R   0.444502 0.926854 0.227815 -0.142451
C6    C     C_R   0.445399 0.057860 0.227519 -0.134402
C7    C     C_R   0.464985 0.126020 0.313417 -0.186816
C8    C     C_R   0.482730 0.063254 0.402006 0.092294
C9    C     C_R   0.482216 0.931296 0.402186 0.101005
C10   C     C_R   0.504758 0.871386 0.489896 -0.090432
C11   C     C_R   0.532719 0.937860 0.572870 -0.215259
C12   C     C_R   0.432243 0.478940 0.984156 0.081180
C13   C     C_R   0.532854 0.066458 0.572815 -0.203228
C14   C     C_R   0.505214 0.128130 0.489715 -0.095880
C15   C     C_R   0.797279 0.665973 0.642116 -0.134718
C16   C     C_R   0.501428 0.260635 0.497035 0.861251
C17   C     C_R   0.835692 0.744389 0.713839 -0.190165
C18   C     C_R   0.974211 0.741219 0.715456 -0.194059
C19   C     C_R   0.075526 0.660376 0.644683 -0.162073
C20   C     C_R   0.040474 0.579642 0.571032 0.163164
C21   C     C_R   0.896344 0.580896 0.570346 0.175131
C22   C     C_R   0.959362 0.423206 0.432308 -0.126261
C23   C     C_R   0.460105 0.442082 0.875038 0.088723
C24   C     C_R   0.102410 0.423498 0.432108 -0.111322
C25   C     C_R   0.579917 0.499213 0.295931 0.841086
C26   C     C_R   0.771815 0.367085 0.017186 -0.197620
C27   C     C_R   0.628305 0.481844 0.178948 -0.057896
C28   C     C_R   0.234998 0.540291 0.882304 -0.203288
C29   C     C_R   0.197323 0.558587 0.993759 -0.147052
C30   C     C_R   0.295962 0.531709 0.044303 -0.205313
C31   C     C_R   0.541667 0.460950 0.028613 0.077555
C32   C     C_R   0.666153 0.388953 0.970786 0.173219
C33   C     C_R   0.681645 0.337723 0.868734 -0.254499
C34   C     C_R   0.579850 0.363651 0.821378 -0.201713
C35   C     C_R   0.531393 0.514336 0.128745 -0.266233
C36   C     C_R   0.751425 0.411293 0.122379 -0.206239
H1    H     H_    0.827207 0.385079 0.161147 0.153764
H2    H     H_    0.003743 0.802307 0.771423 0.147328
H3    H     H_    0.773508 0.279042 0.824765 0.150639
H4    H     H_    0.181178 0.360862 0.376572 0.149276
H5    H     H_    0.866586 0.311342 0.974104 0.141409
H6    H     H_    0.444488 0.577586 0.172158 0.144531
H7    H     H_    0.161912 0.572030 0.842974 0.155718
H8    H     H_    0.261324 0.549904 0.130768 0.135579
H9    H     H_    0.093701 0.598938 0.040479 0.149782
H10   H     H_    0.595046 0.320219 0.742775 0.168605
H11   H     H_    0.551405 0.889903 0.638934 0.136114
H12   H     H_    0.465436 0.761903 0.309615 0.142419
H13   H     H_    0.180125 0.663548 0.649811 0.201496
H14   H     H_    0.430524 0.873999 0.160639 0.135484
H15   H     H_    0.432229 0.106851 0.160083 0.140224
H16   H     H_    0.468244 0.227502 0.308727 0.145231
H17   H     H_    0.551559 0.118251 0.638861 0.139736
H18   H     H_    0.930949 0.360394 0.376972 0.144434
H19   H     H_    0.689393 0.675840 0.645374 0.197494
H20   H     H_    0.757310 0.808306 0.768352 0.143764
N1    N     N_R   0.856860 0.501200 0.500990 -0.118786
N2    N     N_R   0.142450 0.501280 0.501020 -0.118997
O1    O     O_R   0.385310 0.683220 0.500000 -0.633085
O2    O     O_R   0.614640 0.683250 0.500010 -0.625956
O3    O     O_R   0.328400 0.499950 0.653610 -0.627191
O4    O     O_R   0.557730 0.499970 0.653620 -0.629927
O5    O     O_R   0.385360 0.316750 0.499990 -0.610466
O6    O     O_R   0.614690 0.316780 0.500000 -0.615770
O7    O     O_R   0.442270 0.500030 0.346380 -0.622944
O8    O     O_R   0.671600 0.500050 0.346390 -0.608796
Zn1   Zn    Zn3+2 0.346880 0.499980 0.499990 0.926259
Zn2   Zn    Zn3+2 0.653120 0.500020 0.500010 0.929681

loop_
_geom_bond_atom_site_label_1
_geom_bond_atom_site_label_2
_ccdc_geom_bond_type
O8    Zn2   S    
C21   N1    A    
C6    C7    A    
C3    C9    A    
C16   O5    A    
C6    H15   S    
C25   C27   S    
C2    C28   A    
C9    C10   A    
O3    Zn1   S    
C28   H7    S    
C11   H11   S    
C19   C20   A    
C12   C23   A    
O4    Zn2   S    
C3    C5    A    
C23   C34   A    
O1    Zn1   S    
C32   C33   A    
C22   N1    A    
C17   C18   A    
C18   H2    S    
C7    C8    A    
C22   H18   S    
N2    Zn1   S    
C33   H3    S    
C13   C14   A    
C26   C32   A    
C11   C13   A    
C17   H20   S    
C30   H8    S    
C29   C30   A    
C34   H10   S    
C2    C4    S    
O6    Zn2   S    
C31   C35   A    
C26   C36   A    
C28   C29   A    
C24   H4    S    
C7    H16   S    
C33   C34   A    
C13   H17   S    
C1    O1    A    
C12   C31   A    
C5    C6    A    
C27   C36   A    
O5    Zn1   S    
C5    H14   S    
C1    O2    A    
C10   C11   A    
C1    C10   S    
N1    Zn2   S    
C20   N2    A    
C4    O4    A    
C3    H12   S    
C15   C21   A    
C25   O7    A    
C20   C21   A    
O2    Zn2   S    
C24   N2    A    
C18   C19   A    
C22   C24   A    
C2    C23   A    
C15   C17   A    
C35   H6    S    
C19   H13   S    
C36   H1    S    
C8    C14   A    
C16   O6    A    
C27   C35   A    
C14   C16   S    
C12   C30   A    
C4    O3    A    
C25   O8    A    
C31   C32   A    
C26   H5    S    
C29   H9    S    
C8    C9    A    
O7    Zn1   S    
C15   H19   S    
