data_mof_unit_54318.cif
_audit_creation_date              2012-12-10T16:54:56-0500
_audit_creation_method            fapswitch 2.2
_symmetry_space_group_name_H-M    P1
_symmetry_Int_Tables_number       1
_space_group_crystal_system       triclinic
_cell_length_a                    7.773764
_cell_length_b                    8.578108
_cell_length_c                    15.718383
_cell_angle_alpha                 90.844063
_cell_angle_beta                  85.843225
_cell_angle_gamma                 93.630364
_cell_volume                      1043.2583669

loop_
_atom_site_label
_atom_site_type_symbol
_atom_type_description
_atom_site_fract_x
_atom_site_fract_y
_atom_site_fract_z
_atom_type_partial_charge
C1    C     C_R   0.545760 0.794718 0.497797 0.961354
C2    C     C_3   0.384622 0.634060 0.052615 0.134039
C3    C     C_3   0.493226 0.501726 0.082838 0.251753
C4    C     C_3   0.421040 0.341149 0.049982 -0.368993
C5    C     C_3   0.424612 0.341305 0.951731 -0.391440
C6    C     C_1   0.492187 0.501258 0.174374 -0.041192
C7    C     C_1   0.505746 0.500240 0.825753 -0.103473
C8    C     C_1   0.505966 0.499936 0.750374 -0.178015
C9    C     C_2   0.569838 0.958196 0.496524 -0.374144
C10   C     C_2   0.430158 0.041802 0.503406 -0.374226
C11   C     C_R   0.501995 0.500040 0.661597 0.900492
C12   C     C_R   0.454238 0.205281 0.502175 0.958713
C13   C     C_R   0.497977 0.499974 0.338411 0.901524
C14   C     C_3   0.387715 0.631269 0.954060 -0.416348
C15   C     C_3   0.686856 0.530917 0.946480 -0.400864
C16   C     C_3   0.681962 0.530716 0.044764 -0.424879
C17   C     C_1   0.493660 0.500702 0.249675 -0.125920
C18   C     C_3   0.501655 0.500954 0.917326 0.300813
H1    H     H_    0.443073 0.748886 0.073535 0.126757
H2    H     H_    0.254609 0.611229 0.932739 0.206600
H3    H     H_    0.500300 0.246777 0.070600 0.167610
H4    H     H_    0.701773 0.009225 0.489954 0.182336
H5    H     H_    0.298223 0.990773 0.509971 0.182170
H6    H     H_    0.013402 0.381958 0.436554 0.199184
H7    H     H_    0.986600 0.618056 0.563438 0.191063
H8    H     H_    0.439663 0.746928 0.929007 0.149213
H9    H     H_    0.771026 0.438909 0.920046 0.185685
H10   H     H_    0.744314 0.645426 0.922277 0.180403
H11   H     H_    0.738176 0.644812 0.067920 0.207416
H12   H     H_    0.763382 0.438206 0.065704 0.216307
H13   H     H_    0.290968 0.318020 0.931508 0.181905
H14   H     H_    0.503320 0.245539 0.925162 0.169539
H15   H     H_    0.286554 0.314418 0.077274 0.213755
N1    N     N_2   0.950340 0.457950 0.477370 -0.166809
N2    N     N_2   0.049660 0.542050 0.522630 -0.171692
O1    O     O_R   0.389240 0.738570 0.505550 -0.612521
O2    O     O_R   0.678400 0.711630 0.491050 -0.628190
O3    O     O_R   0.355360 0.513470 0.630110 -0.614294
O4    O     O_R   0.644510 0.486530 0.615610 -0.624240
O5    O     O_R   0.321600 0.288370 0.508950 -0.631818
O6    O     O_R   0.610760 0.261430 0.494450 -0.613889
O7    O     O_R   0.355490 0.513470 0.384390 -0.609630
O8    O     O_R   0.644640 0.486530 0.369890 -0.605029
Zn1   Zn    Zn3+2 0.306930 0.517990 0.509680 0.955603
Zn2   Zn    Zn3+2 0.693070 0.482010 0.490320 0.958224
Br1   Br    Br    0.146589 0.620911 0.103051 -0.604852

loop_
_geom_bond_atom_site_label_1
_geom_bond_atom_site_label_2
_ccdc_geom_bond_type
C12   O5    A    
C11   O3    A    
O3    Zn1   S    
C12   O6    A    
C4    H3    S    
C7    C18   S    
C13   C17   S    
C10   H5    S    
C15   C18   S    
C9    C10   D    
C14   C18   S    
C15   H9    S    
C1    O2    A    
O4    Zn2   S    
C5    H14   S    
C3    C6    S    
C13   O8    A    
C2    C3    S    
C2    H1    S    
C7    C8    T    
N1    Zn2   S    
C14   H8    S    
C11   O4    A    
N2    Zn1   S    
O8    Zn2   S    
C15   H10   S    
O7    Zn1   S    
H7    N2    S    
C8    C11   S    
C10   C12   S    
C13   O7    A    
C2    C14   S    
H6    N1    S    
C9    H4    S    
O1    Zn1   S    
C16   H12   S    
C3    C4    S    
C14   H2    S    
O5    Zn1   S    
C1    C9    S    
N1    N2    D    
C6    C17   T    
O6    Zn2   S    
C4    H15   S    
C5    C18   S    
C16   H11   S    
O2    Zn2   S    
C2    Br1   S    
C3    C16   S    
C15   C16   S    
C1    O1    A    
C4    C5    S    
C5    H13   S    
