data_mof_unit_58529.cif
_audit_creation_date              2012-12-11T17:02:12-0500
_audit_creation_method            fapswitch 2.2
_symmetry_space_group_name_H-M    P1
_symmetry_Int_Tables_number       1
_space_group_crystal_system       triclinic
_cell_length_a                    21.649394
_cell_length_b                    7.072229
_cell_length_c                    14.840846
_cell_angle_alpha                 90.007196
_cell_angle_beta                  105.989803
_cell_angle_gamma                 90.001564
_cell_volume                      2184.36146265

loop_
_atom_site_label
_atom_site_type_symbol
_atom_type_description
_atom_site_fract_x
_atom_site_fract_y
_atom_site_fract_z
_atom_type_partial_charge
O1    O     O_R   0.585850 0.505770 0.002130 -0.537184
O2    O     O_R   0.414150 0.005770 0.997870 -0.537176
O3    O     O_R   0.467530 0.173560 0.861970 -0.538308
O4    O     O_R   0.532470 0.673560 0.138030 -0.538297
C1    C     C_R   0.455600 0.344311 0.825334 0.683392
C2    C     C_R   0.544397 0.844339 0.174663 0.683399
O5    O     O_R   0.588690 0.175900 0.993250 -0.544826
O6    O     O_R   0.411310 0.675900 0.006750 -0.544828
O7    O     O_R   0.536170 0.007950 0.130090 -0.537448
O8    O     O_R   0.463830 0.507950 0.869910 -0.537452
C3    C     C_R   0.615060 0.344636 0.997701 0.689303
C4    C     C_R   0.384939 0.844633 0.002297 0.689276
O9    O     O_3   0.482630 0.339970 0.044740 -0.372721
O10   O     O_3   0.517370 0.839970 0.955260 -0.372729
V1    V     V_3+5 0.503220 0.064200 0.991700 1.408820
V2    V     V_3+5 0.496780 0.564200 0.008300 1.408816
C5    C     C_R   0.292358 0.009809 0.041543 0.104272
C6    C     C_R   0.707643 0.509780 0.958449 0.104283
C7    C     C_R   0.317029 0.852724 0.005438 -0.108422
C8    C     C_R   0.682970 0.352727 0.994560 -0.108456
C9    C     C_R   0.274896 0.699724 0.974039 -0.179982
C10   C     C_R   0.725101 0.199750 0.025964 -0.179949
H1    H     H_    0.291608 0.575194 0.945751 0.134228
H2    H     H_    0.708387 0.075241 0.054257 0.134239
C11   C     C_R   0.209537 0.711477 0.972323 -0.183618
C12   C     C_R   0.790459 0.211502 0.027681 -0.183625
H3    H     H_    0.178087 0.594449 0.943778 0.133135
H4    H     H_    0.821908 0.094496 0.056235 0.133135
C13   C     C_R   0.184181 0.877183 0.001353 -0.106449
C14   C     C_R   0.815818 0.377180 0.998642 -0.106487
C15   C     C_R   0.227737 0.021703 0.039621 0.108189
C16   C     C_R   0.772264 0.521672 0.960369 0.108246
C17   C     C_3   0.224940 0.227230 0.016966 -0.422262
C18   C     C_3   0.775062 0.727213 0.983016 -0.422225
C19   C     C_3   0.295451 0.214304 0.019282 -0.401817
C20   C     C_3   0.704553 0.714285 0.980702 -0.401830
H5    H     H_    0.216409 0.314957 0.074544 0.170544
H6    H     H_    0.783594 0.814889 0.925431 0.170530
H7    H     H_    0.192830 0.257556 0.945965 0.170769
H8    H     H_    0.807174 0.757595 0.054015 0.170743
H9    H     H_    0.327597 0.294435 0.078255 0.174187
H10   H     H_    0.672404 0.794363 0.921725 0.174179
H11   H     H_    0.304184 0.237545 0.949694 0.166726
H12   H     H_    0.695820 0.737575 0.050291 0.166702
C21   C     C_R   0.927174 0.885863 0.723615 -0.030135
C22   C     C_R   0.072823 0.386015 0.276392 -0.030218
C23   C     C_R   0.572461 0.850925 0.276054 -0.027380
C24   C     C_R   0.427542 0.350773 0.723938 -0.027463
C25   C     C_R   0.938440 0.913582 0.567000 -0.165408
C26   C     C_R   0.061606 0.415124 0.432984 -0.165408
C27   C     C_R   0.965986 0.909381 0.663454 -0.177667
C28   C     C_R   0.034047 0.410508 0.336537 -0.177599
C29   C     C_R   0.860618 0.867293 0.687509 -0.211452
C30   C     C_R   0.139359 0.366897 0.312511 -0.211488
C31   C     C_R   0.831050 0.874689 0.589705 0.084423
C32   C     C_R   0.168947 0.374780 0.410302 0.084411
C33   C     C_R   0.871582 0.897670 0.529772 0.140730
C34   C     C_R   0.128448 0.398731 0.470218 0.140720
C35   C     C_R   0.762942 0.862436 0.549653 0.058544
C36   C     C_R   0.237046 0.362146 0.450356 0.058544
C37   C     C_R   0.736698 0.873295 0.450041 0.059344
C38   C     C_R   0.263313 0.373598 0.549950 0.059344
C39   C     C_R   0.779429 0.895054 0.393860 -0.188571
C40   C     C_R   0.220612 0.396294 0.606114 -0.188591
C41   C     C_R   0.845303 0.906650 0.433119 -0.205198
C42   C     C_R   0.154747 0.408250 0.566855 -0.205188
C43   C     C_R   0.720214 0.840420 0.605825 -0.188427
C44   C     C_R   0.279744 0.339194 0.394201 -0.188442
C45   C     C_R   0.654333 0.828927 0.566554 -0.204555
C46   C     C_R   0.345616 0.327334 0.433472 -0.204543
C47   C     C_R   0.628048 0.838282 0.469903 0.139905
C48   C     C_R   0.371922 0.337225 0.530108 0.139897
C49   C     C_R   0.668588 0.861301 0.409986 0.084662
C50   C     C_R   0.331415 0.361221 0.590006 0.084648
C51   C     C_R   0.561179 0.822710 0.432650 -0.165893
C52   C     C_R   0.438775 0.321163 0.567366 -0.165891
C53   C     C_R   0.533634 0.827339 0.336191 -0.176142
C54   C     C_R   0.466332 0.326204 0.663818 -0.176075
C55   C     C_R   0.639023 0.869108 0.312190 -0.211100
C56   C     C_R   0.360999 0.369514 0.687790 -0.211141
H13   H     H_    0.876063 0.923989 0.387074 0.121804
H14   H     H_    0.124012 0.426330 0.612886 0.121817
H15   H     H_    0.666008 0.885107 0.261604 0.089290
H16   H     H_    0.334037 0.386219 0.738364 0.089354
H17   H     H_    0.482097 0.811569 0.308359 0.105324
H18   H     H_    0.517850 0.309952 0.691658 0.105358
H19   H     H_    0.623573 0.811436 0.612588 0.122835
H20   H     H_    0.376352 0.309101 0.387453 0.122844
H21   H     H_    0.969410 0.931800 0.521357 0.118471
H22   H     H_    0.030662 0.434109 0.478611 0.118478
H23   H     H_    0.017516 0.925389 0.691264 0.104879
H24   H     H_    0.982537 0.426989 0.308718 0.104911
H25   H     H_    0.833637 0.851380 0.738107 0.092275
H26   H     H_    0.166318 0.350287 0.261924 0.092333
H27   H     H_    0.763764 0.904210 0.318636 0.119980
H28   H     H_    0.236296 0.405943 0.681323 0.119988
H29   H     H_    0.735892 0.830930 0.681043 0.122179
H30   H     H_    0.264047 0.329214 0.318998 0.122185
H31   H     H_    0.530198 0.804442 0.478274 0.118753
H32   H     H_    0.469729 0.302121 0.521758 0.118759
O11   O     O_R   0.036080 0.231270 0.130120 -0.538553
O12   O     O_R   0.963920 0.731270 0.869880 -0.538549
O13   O     O_R   0.911300 0.558970 0.006750 -0.541146
O14   O     O_R   0.088700 0.058970 0.993250 -0.541148
C57   C     C_R   0.884871 0.389928 0.001936 0.688586
C58   C     C_R   0.115129 0.889930 0.998062 0.688563
O15   O     O_R   0.032450 0.561140 0.138040 -0.538884
O16   O     O_R   0.967550 0.061140 0.861960 -0.538875
O17   O     O_R   0.085870 0.728910 0.002130 -0.540330
O18   O     O_R   0.914130 0.228910 0.997870 -0.540336
C59   C     C_R   0.044732 0.392652 0.175012 0.692195
C60   C     C_R   0.955270 0.892623 0.824989 0.692194
O19   O     O_3   0.017320 0.394650 0.955270 -0.374043
O20   O     O_3   0.982680 0.894650 0.044730 -0.374051
V3    V     V_3+5 0.996780 0.670490 0.008300 1.410175
V4    V     V_3+5 0.003220 0.170490 0.991700 1.410169

loop_
_geom_bond_atom_site_label_1
_geom_bond_atom_site_label_2
_ccdc_geom_bond_type
C14   C16   A    
C57   O18   A    
C39   C41   A    
C31   C35   A    
C20   H10   S    
O1    C3    A    
C23   C55   A    
C56   H16   S    
O2    C4    A    
C2    O7    A    
O14   C58   A    
O20   V3    S    
C21   C60   S    
O5    C3    A    
C17   H7    S    
C18   H8    S    
C7    C9    A    
C52   C54   A    
C17   C19   S    
C21   C27   A    
C22   C28   A    
C25   C33   A    
C36   C38   A    
C24   C54   A    
C45   C47   A    
C38   C40   A    
O12   V3    S    
C35   C43   A    
O14   V4    S    
O12   C60   A    
C34   C42   A    
C25   C27   A    
C26   C28   A    
C15   C17   S    
C19   H11   S    
C18   C20   S    
C45   H19   S    
C48   C52   A    
O19   V4    S    
C27   H23   S    
C54   H18   S    
O5    V1    S    
C53   H17   S    
O6    V2    S    
C50   C56   A    
C22   C59   S    
C26   H22   S    
C29   C31   A    
C11   C13   A    
C1    C24   S    
C30   C32   A    
C3    C8    S    
C35   C37   A    
C2    C23   S    
C29   H25   S    
C26   C34   A    
C39   H27   S    
C40   H28   S    
C48   C50   A    
C25   H21   S    
C47   C49   A    
C43   H29   S    
C37   C49   A    
C17   H5    S    
C32   C36   A    
C43   C45   A    
C16   C18   S    
O4    V2    S    
O13   V3    S    
C42   H14   S    
C41   H13   S    
O6    C4    A    
C22   C30   A    
C51   H31   S    
C49   C55   A    
O13   C57   A    
O1    V2    S    
O2    V1    S    
C51   C53   A    
O15   V3    S    
O4    C2    A    
C8    C10   A    
C12   C14   A    
C31   C33   A    
C14   C57   S    
C5    C15   A    
C10   H2    S    
C13   C58   S    
C20   H12   S    
C11   H3    S    
C23   C53   A    
O18   V4    S    
O3    V1    S    
C9    C11   A    
C18   H6    S    
O15   C59   A    
C37   C39   A    
C46   H20   S    
C33   C41   A    
O3    C1    A    
O20   V4    S    
C52   H32   S    
C12   H4    S    
O16   V4    S    
C9    H1    S    
O7    V1    S    
C1    O8    A    
C13   C15   A    
O8    V2    S    
C47   C51   A    
C24   C56   A    
O11   C59   A    
C4    C7    S    
C5    C7    A    
C32   C34   A    
C6    C8    A    
C19   H9    S    
C44   H30   S    
C30   H26   S    
C28   H24   S    
O17   V3    S    
C21   C29   A    
C55   H15   S    
O16   C60   A    
C6    C16   A    
C36   C44   A    
C44   C46   A    
C10   C12   A    
O9    V2    S    
O11   V4    S    
O10   V1    S    
C38   C50   A    
C46   C48   A    
C5    C19   S    
C6    C20   S    
C40   C42   A    
O19   V3    S    
C58   O17   A    
