data_mof_unit_30839.cif
_audit_creation_date              2012-12-11T18:07:18-0500
_audit_creation_method            fapswitch 2.2
_symmetry_space_group_name_H-M    P1
_symmetry_Int_Tables_number       1
_space_group_crystal_system       triclinic
_cell_length_a                    8.26149
_cell_length_b                    12.683186
_cell_length_c                    26.975162
_cell_angle_alpha                 96.466363
_cell_angle_beta                  93.246196
_cell_angle_gamma                 81.041208
_cell_volume                      2772.06664591

loop_
_atom_site_label
_atom_site_type_symbol
_atom_type_description
_atom_site_fract_x
_atom_site_fract_y
_atom_site_fract_z
_atom_type_partial_charge
Ba1   Ba    Ba6+2 0.859560 0.448380 0.523550 1.664627
Ba2   Ba    Ba6+2 0.330270 0.551530 0.476440 1.671900
C1    C     C_3   0.611691 0.127889 0.701568 0.293596
C2    C     C_R   0.943824 0.618900 0.182881 0.586932
C3    C     C_2   0.768393 0.590286 0.274846 -0.116479
C4    C     C_3   0.163027 0.207400 0.659057 0.357488
C5    C     C_3   0.739302 0.609094 0.330234 -0.072313
C6    C     C_1   0.981340 0.475818 0.342371 0.013602
C7    C     C_2   0.023554 0.473046 0.295251 -0.073348
C8    C     C_2   0.909751 0.530889 0.258105 0.223638
C9    C     C_R   0.027095 0.515794 0.104015 -0.080369
C10   C     C_R   0.037627 0.421134 0.127629 -0.032682
C11   C     C_R   0.086142 0.322323 0.099822 -0.068555
C12   C     C_3   0.682685 0.161471 0.655621 0.380124
C13   C     C_R   0.979229 0.615197 0.131968 -0.028331
C14   C     C_2   0.838774 0.524902 0.358771 -0.170617
C15   C     C_2   0.356932 0.479534 0.642362 -0.244438
C16   C     C_3   0.147899 0.170879 0.710133 -0.325495
C17   C     C_R   0.161506 0.406289 0.974303 0.020012
C18   C     C_R   0.078951 0.602147 0.976812 0.020246
C19   C     C_R   0.138759 0.501910 0.950073 0.048913
C20   C     C_R   0.228775 0.309472 0.946629 -0.102816
C21   C     C_R   0.268106 0.306241 0.896946 -0.057231
C22   C     C_R   0.242098 0.399194 0.872224 -0.023528
C23   C     C_3   0.416086 0.779106 0.630595 0.490134
C24   C     C_R   0.176863 0.497217 0.898569 -0.080578
C25   C     C_R   0.150864 0.590524 0.873507 -0.031144
C26   C     C_R   0.189569 0.584438 0.822533 0.589756
C27   C     C_R   0.281285 0.395498 0.821672 0.580439
C28   C     C_3   0.219000 0.225035 0.421071 0.288901
C29   C     C_2   0.439132 0.428757 0.727931 -0.113361
C30   C     C_3   0.460068 0.399341 0.672712 -0.076649
C31   C     C_1   0.211698 0.526218 0.658147 0.018575
C32   C     C_2   0.170553 0.528854 0.705588 -0.105840
C33   C     C_2   0.292653 0.481229 0.744095 0.213171
C34   C     C_3   0.296446 0.883131 0.638621 -0.286247
C35   C     C_R   0.118073 0.410415 0.025169 0.020844
C36   C     C_R   0.064421 0.511131 0.052455 0.048504
C37   C     C_R   0.047748 0.607267 0.028773 0.019451
C38   C     C_R   0.125527 0.316890 0.049938 -0.102088
C39   C     C_R   0.968544 0.709406 0.108612 -0.064902
C40   C     C_3   0.287656 0.107232 0.407483 -0.432750
C41   C     C_R   0.051873 0.694025 0.950279 -0.099950
C42   C     C_R   0.087007 0.688154 0.899979 -0.066534
C43   C     C_R   0.001521 0.705735 0.058331 -0.102465
C44   C     C_R   0.750889 0.818968 0.475526 -0.266695
C45   C     C_3   0.944974 0.861278 0.343462 0.294733
C46   C     C_R   0.445152 0.191529 0.524594 -0.258925
C47   C     C_R   0.413012 0.010601 0.535088 -0.119048
C48   C     C_R   0.355697 0.119502 0.541401 -0.014362
C49   C     C_R   0.582617 0.154076 0.496181 0.082682
C50   C     C_R   0.641680 0.041917 0.488593 -0.052309
C51   C     C_R   0.556801 0.969894 0.509777 -0.063512
C52   C     C_3   0.968007 0.774120 0.578411 0.289950
C53   C     C_R   0.614435 0.858556 0.503812 0.048399
C54   C     C_R   0.840386 0.888724 0.456742 -0.036330
C55   C     C_R   0.783206 0.999088 0.461394 -0.096825
C56   C     C_3   0.980581 0.886390 0.291789 -0.301830
C57   C     C_3   0.898009 0.892326 0.591336 -0.436613
C58   C     C_3   0.741474 0.264164 0.368895 0.731414
C59   C     C_3   0.862357 0.173899 0.343050 -0.352911
C60   C     C_3   0.533755 0.267580 0.303939 0.324487
C61   C     C_3   0.575616 0.253055 0.248761 -0.237327
C62   C     C_3   0.546023 0.359126 0.225698 -0.317473
C63   C     C_3   0.620099 0.671705 0.681029 -0.132544
C64   C     C_3   0.804929 0.001691 0.738615 0.283288
C65   C     C_3   0.709634 0.941405 0.770385 -0.208961
C66   C     C_3   0.810827 0.835461 0.782581 -0.447122
C67   C     C_3   0.477019 0.833910 0.346456 0.399407
C68   C     C_3   0.463363 0.914517 0.308177 -0.387086
C69   C     C_R   0.997564 0.426988 0.178412 0.574393
H1    H     H_    0.763910 0.091688 0.637726 0.026778
H2    H     H_    0.813644 0.319063 0.392345 -0.023810
H3    H     H_    0.547889 0.057292 0.690610 -0.071454
H4    H     H_    0.939876 0.132040 0.371748 0.072450
H5    H     H_    0.939617 0.206700 0.318013 0.113909
H6    H     H_    0.797481 0.113421 0.320587 0.068477
H7    H     H_    0.582439 0.182238 0.627436 -0.160791
H8    H     H_    0.516881 0.194040 0.716099 0.071901
H9    H     H_    0.353677 0.714318 0.610455 0.007222
H10   H     H_    0.225512 0.897516 0.603726 0.081825
H11   H     H_    0.209536 0.878544 0.667975 0.089177
H12   H     H_    0.411804 0.100098 0.392813 0.115939
H13   H     H_    0.363197 0.951767 0.650211 0.105485
H14   H     H_    0.140893 0.240724 0.738847 0.138370
H15   H     H_    0.906032 0.780781 0.340072 0.010608
H16   H     H_    0.844528 0.923650 0.358252 -0.030999
H17   H     H_    0.076598 0.823497 0.274992 0.173958
H18   H     H_    0.866956 0.889690 0.267627 0.110367
H19   H     H_    0.024525 0.965229 0.294231 0.090089
H20   H     H_    0.609166 0.815254 0.357641 -0.136386
H21   H     H_    0.410849 0.871519 0.380207 0.077693
H22   H     H_    0.522877 0.875952 0.273425 0.122883
H23   H     H_    0.295037 0.062695 0.440670 0.099614
H24   H     H_    0.526219 0.983349 0.323060 0.061723
H25   H     H_    0.079825 0.284654 0.656624 0.095159
H26   H     H_    0.332605 0.944406 0.299366 0.124757
H27   H     H_    0.140671 0.428995 0.283371 0.089634
H28   H     H_    0.094029 0.247920 0.116628 0.117005
H29   H     H_    0.533038 0.395468 0.754012 0.121059
H30   H     H_    0.319549 0.229608 0.877828 0.121179
H31   H     H_    0.255967 0.234218 0.962468 0.066443
H32   H     H_    0.158670 0.237181 0.031606 0.066400
H33   H     H_    0.681903 0.632542 0.249362 0.098252
H34   H     H_    0.208760 0.068703 0.378575 0.145627
H35   H     H_    0.933807 0.787307 0.129248 0.116436
H36   H     H_    0.000830 0.772300 0.967067 0.065594
H37   H     H_    0.291567 0.219837 0.655082 -0.099442
H38   H     H_    0.064006 0.761313 0.881840 0.108192
H39   H     H_    0.048911 0.566049 0.716789 0.110186
H40   H     H_    0.992257 0.782410 0.044029 0.066366
H41   H     H_    0.798062 0.513234 0.395070 0.064019
H42   H     H_    0.400734 0.495261 0.607100 0.068635
H43   H     H_    0.337246 0.958361 0.546975 0.105280
H44   H     H_    0.854249 0.049576 0.445029 0.096515
H45   H     H_    0.870967 0.730959 0.560002 0.030723
H46   H     H_    0.796185 0.733784 0.471920 0.055896
H47   H     H_    0.398240 0.276453 0.529370 0.062271
H48   H     H_    0.034488 0.134930 0.711030 0.166814
H49   H     H_    0.254226 0.109921 0.718880 0.090897
H50   H     H_    0.316536 0.266914 0.440156 0.028863
H51   H     H_    0.116997 0.230155 0.446492 0.070433
H52   H     H_    0.408971 0.313838 0.307911 0.109031
H53   H     H_    0.525980 0.187025 0.315439 0.022246
H54   H     H_    0.705864 0.216120 0.244704 0.134944
H55   H     H_    0.497662 0.197702 0.227876 0.077890
H56   H     H_    0.068171 0.768549 0.552235 0.069800
H57   H     H_    0.415074 0.395746 0.227959 0.120937
H58   H     H_    0.578043 0.344912 0.185830 0.117946
H59   H     H_    0.623976 0.415282 0.245424 0.162596
H60   H     H_    0.379562 0.727010 0.699277 0.171520
H61   H     H_    0.638311 0.640636 0.718150 0.091783
H62   H     H_    0.726513 0.711426 0.674683 0.151410
H63   H     H_    0.611628 0.604834 0.651380 0.119011
H64   H     H_    0.932196 0.999399 0.754611 0.073885
H65   H     H_    0.815031 0.960390 0.699991 0.017252
H66   H     H_    0.677368 0.991685 0.805939 0.144294
H67   H     H_    0.768931 0.901527 0.601648 0.119525
H68   H     H_    0.594148 0.924950 0.749926 0.129065
H69   H     H_    0.856172 0.786597 0.748014 0.148554
H70   H     H_    0.734314 0.789241 0.801797 0.142764
H71   H     H_    0.917681 0.851259 0.807627 0.159253
H72   H     H_    0.905706 0.938221 0.559214 0.110648
H73   H     H_    0.964644 0.929498 0.623656 0.141464
N1    N     N_R   0.951210 0.525360 0.205695 -0.422713
N2    N     N_R   0.253456 0.487339 0.796826 -0.420643
N3    N     N_2   0.471479 0.747601 0.679571 -0.459610
O1    O     O_2   0.907040 0.557650 0.617910 -0.457807
O2    O     O_2   0.175795 0.884362 0.467620 -0.481194
O3    O     O_3   0.087633 0.862501 0.374093 -0.580742
O4    O     O_3   0.139040 0.557570 0.557730 -0.491756
O5    O     O_3   0.571310 0.369620 0.475470 -0.466294
O6    O     O_2   0.348200 0.764910 0.523260 -0.484532
O7    O     O_3   0.550986 0.798113 0.604821 -0.658470
O8    O     O_2   0.431154 0.534400 0.323790 -0.459255
O9    O     O_3   0.405534 0.743878 0.325714 -0.574554
O10   O     O_2   0.001873 0.344283 0.198050 -0.612863
O11   O     O_2   0.340015 0.309745 0.799754 -0.621516
O12   O     O_3   0.638842 0.218572 0.397422 -0.678653
O13   O     O_2   0.907439 0.705945 0.207025 -0.629192
O14   O     O_2   0.169038 0.666067 0.801403 -0.618693
O15   O     O_3   0.684960 0.360550 0.588460 -0.458317
O16   O     O_2   0.788714 0.447331 0.676637 -0.504536
O17   O     O_3   0.028953 0.729788 0.622157 -0.648439
O18   O     O_3   0.778824 0.243111 0.670014 -0.576882
O19   O     O_2   0.841490 0.235060 0.476710 -0.497515
O20   O     O_3   0.099640 0.305100 0.564190 -0.488579
O21   O     O_2   0.023512 0.113971 0.528930 -0.475927
O22   O     O_3   0.647416 0.324958 0.333130 -0.666443
O23   O     O_3   0.117705 0.128789 0.622375 -0.605763
O24   O     O_3   0.733875 0.110949 0.740013 -0.626612
O25   O     O_2   0.282660 0.442310 0.382060 -0.429280
O26   O     O_3   0.050670 0.442340 0.442260 -0.503363
O27   O     O_3   0.504750 0.639360 0.411530 -0.459473
O28   O     O_3   0.161929 0.270491 0.377347 -0.651886
O29   O     O_3   0.618400 0.630290 0.524520 -0.461137
O30   O     O_3   0.090070 0.694820 0.435810 -0.466685
P1    P     P_3+3 0.072810 0.589830 0.610360 0.972172
P2    P     P_3+3 0.661990 0.251250 0.462170 0.968788
P3    P     P_3+3 0.149572 0.166531 0.563869 0.952838
P4    P     P_3+3 0.116900 0.410080 0.389630 0.977837
P5    P     P_3+3 0.045623 0.833964 0.433521 0.961438
P6    P     P_3+3 0.677425 0.366119 0.653189 0.967402
P7    P     P_3+3 0.533145 0.764682 0.539689 0.927006
P8    P     P_3+3 0.519609 0.628291 0.346756 1.016777

loop_
_geom_bond_atom_site_label_1
_geom_bond_atom_site_label_2
_ccdc_geom_bond_type
C6    P4    S    
C19   C24   A    
Ba1   O29   S    
C7    H27   S    
C23   H9    S    
C30   P6    S    
C58   O12   S    
C4    H37   S    
C1    H8    S    
C18   C41   A    
C60   H53   S    
C15   H42   S    
O3    P5    S    
C2    O13   D    
O9    P8    S    
C59   H4    S    
Ba1   O26   S    
C24   C25   A    
C60   C61   S    
C58   O22   S    
C17   C19   A    
C22   C24   A    
C32   C33   S    
C35   C38   A    
Ba2   O26   S    
C36   C37   A    
Ba1   O20   S    
O30   P5    S    
C58   H2    S    
C54   C55   A    
Ba1   O5    S    
Ba1   Ba2   S    
C1    H3    S    
C22   C27   A    
C11   C38   A    
C17   C35   A    
Ba2   O29   S    
C9    C13   A    
C25   C42   A    
C46   C49   A    
C28   H51   S    
C59   H6    S    
C6    C7    D    
C62   H57   S    
O7    P7    S    
C44   C53   A    
C53   P7    S    
C28   H50   S    
C66   H71   S    
Ba2   O30   S    
C63   N3    S    
C67   H21   S    
C65   H68   S    
C7    C8    S    
C63   H63   S    
C68   H26   S    
C37   C43   A    
C42   H38   S    
C46   C48   A    
C64   C65   S    
C23   O7    S    
C3    H33   S    
C57   H72   S    
C6    C14   D    
C15   C31   D    
C49   P2    S    
O25   P4    D    
C60   H52   S    
C40   H34   S    
C26   O14   D    
C52   C57   S    
C51   C53   A    
C59   H5    S    
Ba2   O5    S    
C69   O10   D    
C4    C16   S    
C67   O9    S    
C39   H35   S    
O16   P6    D    
C49   C50   A    
O18   P6    S    
C45   H15   S    
C64   O24   S    
C17   C20   A    
C13   C39   A    
C55   H44   S    
O8    P8    D    
C34   H11   S    
C27   N2    Am   
C3    C5    S    
C18   C37   A    
O4    P1    S    
C46   H47   S    
C23   C34   S    
C57   H67   S    
O21   P3    D    
C65   C66   S    
C44   H46   S    
C52   H45   S    
C58   C59   S    
C33   N2    S    
C45   H16   S    
C11   H28   S    
C9    C36   A    
C48   P3    S    
C41   C42   A    
C35   C36   A    
Ba1   P1    S    
C29   C30   S    
O6    P7    D    
C34   H10   S    
C21   C22   A    
C68   H22   S    
C31   C32   D    
C66   H70   S    
C23   N3    S    
C41   H36   S    
C29   H29   S    
C18   C19   A    
C12   O18   S    
H60   N3    S    
C56   H19   S    
C61   H54   S    
C1    C12   S    
C64   H65   S    
C5    C14   S    
C69   N1    Am   
C10   C69   A    
C62   H59   S    
Ba1   O15   S    
Ba2   O6    S    
C4    H25   S    
O2    P5    D    
C32   H39   S    
C29   C33   D    
C66   H69   S    
C44   C54   A    
C16   H49   S    
C28   O28   S    
C63   H61   S    
O17   P1    S    
C50   C51   A    
C14   H41   S    
C4    O23   S    
Ba2   O4    S    
O29   P7    S    
C60   O22   S    
O1    P1    D    
C31   P1    S    
C40   H23   S    
C45   O3    S    
C12   H1    S    
C5    P8    S    
C40   H12   S    
C34   H13   S    
C16   H14   S    
C61   C62   S    
C56   H17   S    
C57   H73   S    
C9    C10   A    
C43   H40   S    
C27   O11   D    
C62   H58   S    
C52   H56   S    
C26   N2    Am   
C20   H31   S    
O28   P4    S    
O5    P2    S    
C68   H24   S    
C3    C8    D    
O27   P8    S    
Ba2   O27   S    
C45   C56   S    
C47   H43   S    
Ba1   P2    S    
C1    O24   S    
C21   H30   S    
C54   P5    S    
Ba1   O19   S    
C2    C13   A    
C47   C51   A    
C2    N1    Am   
Ba1   O4    S    
C12   H7    S    
C67   C68   S    
C65   H66   S    
C56   H18   S    
O20   P3    S    
C61   H55   S    
C50   C55   A    
C8    N1    S    
O26   P4    S    
C64   H64   S    
O15   P6    S    
O12   P2    S    
C10   C11   A    
C47   C48   A    
O23   P3    S    
C25   C26   A    
C15   C30   S    
C39   C43   A    
C20   C21   A    
C28   C40   S    
Ba1   O1    S    
O19   P2    D    
C52   O17   S    
C67   H20   S    
C16   H48   S    
Ba2   P4    S    
C63   H62   S    
Ba2   O25   S    
C38   H32   S    
