data_mof_unit_64231.cif
_audit_creation_date              2013-03-05T16:45:00-0500
_audit_creation_method            fapswitch 2.2
_symmetry_space_group_name_H-M    P1
_symmetry_Int_Tables_number       1
_space_group_crystal_system       triclinic
_cell_length_a                    11.71693
_cell_length_b                    15.800472
_cell_length_c                    17.105843
_cell_angle_alpha                 96.501648
_cell_angle_beta                  90.276296
_cell_angle_gamma                 92.28522
_cell_volume                      3143.84771059

loop_
_atom_site_label
_atom_site_type_symbol
_atom_site_description
_atom_site_fract_x
_atom_site_fract_y
_atom_site_fract_z
_atom_type_partial_charge
O1    O     O_R   0.494910 0.420530 0.382500 -0.547736
O2    O     O_R   0.505090 0.579470 0.617500 -0.547882
O3    O     O_R   0.504100 0.563720 0.388950 -0.600545
O4    O     O_R   0.495900 0.436280 0.611050 -0.600478
C1    C     C_R   0.502982 0.489398 0.348638 0.844715
C2    C     C_R   0.497020 0.510601 0.651357 0.845072
O5    O     O_R   0.332600 0.428410 0.496780 -0.591294
O6    O     O_R   0.667400 0.571590 0.503220 -0.591224
O7    O     O_R   0.341800 0.571600 0.503230 -0.555235
O8    O     O_R   0.658200 0.428400 0.496770 -0.555350
C3    C     C_R   0.283780 0.500254 0.499968 0.841575
C4    C     C_R   0.716220 0.499746 0.500031 0.841212
Cu1   Cu    Cu3+1 0.494550 0.415220 0.496180 0.995622
Cu2   Cu    Cu3+1 0.505450 0.584780 0.503820 0.995542
C5    C     C_1   0.162234 0.500629 0.500015 -0.142617
C6    C     C_1   0.837766 0.499371 0.499984 -0.142838
C7    C     C_1   0.059848 0.500320 0.500013 0.023172
C8    C     C_1   0.940152 0.499680 0.499987 0.023131
C9    C     C_R   0.508982 0.483397 0.262612 -0.144608
C10   C     C_R   0.491008 0.516604 0.737374 -0.144483
C11   C     C_R   0.462687 0.548507 0.224721 -0.280332
C12   C     C_R   0.537772 0.451700 0.775293 -0.280449
C13   C     C_R   0.463607 0.544654 0.143247 -0.138776
C14   C     C_R   0.536860 0.455577 0.856768 -0.138654
C15   C     C_R   0.511094 0.474969 0.097788 0.322997
C16   C     C_R   0.488895 0.525075 0.902194 0.322973
C17   C     C_R   0.556589 0.409763 0.135306 -0.240237
C18   C     C_R   0.442946 0.590085 0.864646 -0.240261
C19   C     C_R   0.558198 0.413602 0.217425 0.307646
C20   C     C_R   0.441323 0.586211 0.782523 0.307553
N1    N     N_2   0.516437 0.468156 0.014541 -0.237350
N2    N     N_2   0.483540 0.531891 0.985440 -0.237384
H1    H     H_    0.576431 0.398083 0.741790 0.171772
H2    H     H_    0.424393 0.602278 0.258241 0.171912
H3    H     H_    0.574027 0.404280 0.883829 0.169191
H4    H     H_    0.426830 0.596125 0.116216 0.169211
H5    H     H_    0.594647 0.356964 0.100191 0.183639
H6    H     H_    0.404530 0.642731 0.899741 0.183706
N3    N     N_R   0.513630 0.712130 0.509560 -0.169431
N4    N     N_R   0.486370 0.287870 0.490440 -0.169468
C21   C     C_R   0.447094 0.751381 0.459947 0.063363
C22   C     C_R   0.552897 0.248619 0.540058 0.063386
C23   C     C_R   0.450074 0.840765 0.462345 -0.264399
C24   C     C_R   0.549918 0.159235 0.537659 -0.264406
C25   C     C_R   0.522568 0.891299 0.516732 0.382081
C26   C     C_R   0.477436 0.108701 0.483264 0.382016
C27   C     C_R   0.589764 0.849004 0.567013 -0.282542
C28   C     C_R   0.410252 0.150995 0.432976 -0.282369
C29   C     C_R   0.584210 0.759522 0.562622 0.104449
C30   C     C_R   0.415803 0.240477 0.437369 0.104825
N5    N     N_2   0.531016 0.983026 0.523255 -0.230380
N6    N     N_2   0.468989 0.016973 0.476739 -0.230365
H7    H     H_    0.646470 0.885324 0.609635 0.155178
H8    H     H_    0.353556 0.114676 0.390347 0.155210
H9    H     H_    0.636533 0.727982 0.601828 0.134253
H10   H     H_    0.363490 0.272018 0.398157 0.134309
N7    N     N_R   0.615057 0.348820 0.253451 0.132377
O9    O     O_R   0.606664 0.269895 0.221888 -0.346224
O10   O     O_R   0.690430 0.370235 0.309038 -0.348705
N8    N     N_R   0.383966 0.650731 0.746452 0.132388
O11   O     O_R   0.391464 0.729631 0.778136 -0.346092
O12   O     O_R   0.308993 0.629004 0.690670 -0.348986
H11   H     H_    0.608884 0.286723 0.581838 0.127019
H12   H     H_    0.391098 0.713277 0.418173 0.127002
H13   H     H_    0.603882 0.130460 0.577956 0.161303
H14   H     H_    0.396102 0.869540 0.422053 0.161298

loop_
_geom_bond_atom_site_label_1
_geom_bond_atom_site_label_2
_geom_bond_distance
_ccdc_geom_bond_type
C15   N1    1.417748 S    
O5    C3    1.287192 A    
O7    Cu2   1.920331 S    
C16   N2    1.417730 S    
C1    C9    1.466052 S    
O6    C4    1.287192 A    
C17   C19   1.399151 A    
C2    C10   1.465910 S    
C16   C18   1.395596 A    
N1    N2    1.246254 D    
C18   H6    1.083673 S    
C27   H7    1.082825 S    
C18   C20   1.399178 A    
C7    C8    1.402103 S    
C24   H13   1.082292 S    
C27   C29   1.406214 A    
C10   C20   1.417035 A    
Cu1   Cu2   2.665404 S    
N8    O12   1.301425 A    
C28   H8    1.082825 S    
C23   C25   1.412320 A    
C21   C23   1.407285 A    
C14   C16   1.409136 A    
N7    O9    1.301359 A    
O2    C2    1.289772 A    
O3    Cu2   1.955302 S    
C22   C24   1.407284 A    
C17   H5    1.083692 S    
C23   H14   1.082293 S    
O1    C1    1.289799 A    
O8    C4    1.288539 A    
C28   C30   1.406213 A    
C9    C11   1.401727 A    
C10   C12   1.401659 A    
C13   H4    1.082623 S    
C12   C14   1.388219 A    
O7    C3    1.288540 A    
C11   C13   1.388221 A    
O2    Cu2   1.955887 S    
C26   C28   1.404220 A    
N7    O10   1.301454 A    
C14   H3    1.082610 S    
C15   C17   1.395606 A    
C25   N5    1.440364 S    
N5    N6    1.253476 D    
C9    C19   1.417086 A    
C26   N6    1.440365 S    
N4    C30   1.363072 A    
O5    Cu1   1.917160 S    
C13   C15   1.409160 A    
O1    Cu1   1.955889 S    
N3    C21   1.365287 A    
C6    C8    1.199461 T    
O4    C2    1.292235 A    
C25   C27   1.404220 A    
O4    Cu1   1.955302 S    
C5    C7    1.199461 T    
C12   H1    1.083728 S    
N8    O11   1.301315 A    
Cu1   N4    2.001880 S    
O6    Cu2   1.917160 S    
C11   H2    1.083741 S    
C24   C26   1.412320 A    
C21   H12   1.081717 S    
N3    C29   1.363071 A    
Cu2   N3    2.001880 S    
C29   H9    1.081700 S    
C3    C5    1.424402 S    
C22   H11   1.081719 S    
C30   H10   1.081702 S    
C4    C6    1.424403 S    
C19   N7    1.436880 S    
N4    C22   1.365286 A    
O3    C1    1.292289 A    
O8    Cu1   1.920333 S    
C20   N8    1.436916 S    
