data_mof_unit_64644.cif
_audit_creation_date              2013-03-05T15:42:07-0500
_audit_creation_method            fapswitch 2.2
_symmetry_space_group_name_H-M    P1
_symmetry_Int_Tables_number       1
_space_group_crystal_system       triclinic
_cell_length_a                    21.732892
_cell_length_b                    21.724995
_cell_length_c                    47.132639
_cell_angle_alpha                 89.739078
_cell_angle_beta                  89.597812
_cell_angle_gamma                 89.894956
_cell_volume                      22252.717588

loop_
_atom_site_label
_atom_site_type_symbol
_atom_site_description
_atom_site_fract_x
_atom_site_fract_y
_atom_site_fract_z
_atom_type_partial_charge
O1    O     O_R   0.999970 0.909590 0.023670 -0.626788
O2    O     O_R   0.090410 0.999970 0.023670 -0.627498
O3    O     O_R   0.000030 0.090410 0.023670 -0.621732
O4    O     O_R   0.909590 0.000030 0.023670 -0.623983
O5    O     O_R   0.499970 0.409590 0.523670 -0.630693
O6    O     O_R   0.590410 0.499970 0.523670 -0.625163
O7    O     O_R   0.500030 0.590410 0.523670 -0.621620
O8    O     O_R   0.409590 0.500030 0.523670 -0.628123
O9    O     O_R   0.000000 0.909590 0.976330 -0.616825
O10   O     O_R   0.090410 0.000000 0.976330 -0.613048
O11   O     O_R   0.000000 0.090410 0.976330 -0.620680
O12   O     O_R   0.909590 0.000000 0.976330 -0.617843
O13   O     O_R   0.500000 0.409590 0.476330 -0.613280
O14   O     O_R   0.590410 0.500000 0.476330 -0.617413
O15   O     O_R   0.500000 0.590410 0.476330 -0.623913
O16   O     O_R   0.409590 0.500000 0.476330 -0.617034
C1    C     C_R   0.997603 0.880989 0.000135 0.943006
C2    C     C_R   0.119008 0.997747 0.000005 0.947832
C3    C     C_R   0.002111 0.119002 0.999839 0.943079
C4    C     C_R   0.880999 0.002279 0.000165 0.945811
C5    C     C_R   0.497593 0.380989 0.500135 0.945663
C6    C     C_R   0.619011 0.497893 0.499824 0.945291
C7    C     C_R   0.502142 0.618977 0.499836 0.945094
C8    C     C_R   0.381005 0.502277 0.500158 0.945488
Zn1   Zn    Zn3+2 0.000000 1.000000 0.031610 0.953041
Zn2   Zn    Zn3+2 0.500000 0.500000 0.531610 0.937930
Zn3   Zn    Zn3+2 0.000000 0.000000 0.968400 0.967368
Zn4   Zn    Zn3+2 0.500000 0.500000 0.468400 0.965561
C9    C     C_2   0.717318 0.041186 0.981391 0.142498
C10   C     C_2   0.958539 0.717313 0.981200 0.142292
C11   C     C_2   0.283334 0.959742 0.980917 0.141824
C12   C     C_2   0.043391 0.282482 0.017684 0.164676
C13   C     C_2   0.217352 0.541528 0.481502 0.130107
C14   C     C_2   0.458657 0.217301 0.481154 0.138799
C15   C     C_2   0.782552 0.456903 0.517944 0.162862
C16   C     C_2   0.542967 0.782481 0.517566 0.153067
C17   C     C_2   0.684986 0.997796 0.995297 -0.337170
C18   C     C_2   0.002053 0.684988 0.994918 -0.341782
C19   C     C_2   0.315195 0.002430 0.995133 -0.335617
C20   C     C_2   0.998319 0.315006 0.005127 -0.334440
C21   C     C_2   0.184990 0.497782 0.495156 -0.321449
C22   C     C_2   0.502065 0.184988 0.494946 -0.341750
C23   C     C_2   0.814987 0.501897 0.505093 -0.332692
C24   C     C_2   0.498270 0.815012 0.504827 -0.317719
H1    H     H_    0.707389 0.955997 0.002662 0.125341
H2    H     H_    0.043893 0.707423 0.001915 0.141376
H3    H     H_    0.292599 0.043987 0.002633 0.125536
H4    H     H_    0.955694 0.292696 0.999039 0.132481
H5    H     H_    0.207374 0.455714 0.502208 0.138006
H6    H     H_    0.543840 0.207427 0.502019 0.143006
H7    H     H_    0.792590 0.544511 0.498722 0.133697
H8    H     H_    0.455847 0.792762 0.498424 0.126794
C25   C     C_2   0.784368 0.034704 0.979509 -0.209844
C26   C     C_2   0.965326 0.784450 0.979348 -0.193613
C27   C     C_2   0.216302 0.966338 0.978990 -0.206144
C28   C     C_2   0.036439 0.215437 0.019802 -0.217553
C29   C     C_2   0.284398 0.535020 0.479560 -0.206876
C30   C     C_2   0.465427 0.284442 0.479317 -0.194676
C31   C     C_2   0.715494 0.463840 0.519999 -0.220467
C32   C     C_2   0.536470 0.715482 0.519687 -0.232039
C33   C     C_2   0.815267 0.009716 0.001132 -0.361824
C34   C     C_2   0.989714 0.815279 0.001021 -0.368123
C35   C     C_2   0.184764 0.990543 0.000702 -0.362248
C36   C     C_2   0.009458 0.184707 0.998802 -0.356676
C37   C     C_2   0.315283 0.509649 0.501088 -0.367016
C38   C     C_2   0.489680 0.315280 0.501021 -0.367233
C39   C     C_2   0.684747 0.490580 0.498796 -0.356544
C40   C     C_2   0.509300 0.684655 0.498777 -0.358629
H9    H     H_    0.808359 0.052400 0.960889 0.172919
H10   H     H_    0.948620 0.808535 0.960659 0.170615
H11   H     H_    0.192853 0.949208 0.960339 0.173787
H12   H     H_    0.055304 0.191291 0.038027 0.161017
H13   H     H_    0.308400 0.553094 0.461021 0.172061
H14   H     H_    0.448842 0.308521 0.460604 0.169364
H15   H     H_    0.691352 0.445120 0.538365 0.160237
H16   H     H_    0.555919 0.691456 0.537811 0.163548
H17   H     H_    0.792248 0.998252 0.021010 0.153145
H18   H     H_    0.000363 0.792199 0.020859 0.151960
H19   H     H_    0.207276 0.001378 0.020584 0.152174
H20   H     H_    0.996677 0.207783 0.979191 0.160377
H21   H     H_    0.292247 0.497840 0.520876 0.150019
H22   H     H_    0.500215 0.292208 0.520876 0.151689
H23   H     H_    0.707858 0.503246 0.479097 0.161425
H24   H     H_    0.496180 0.707617 0.479189 0.156172
O17   O     O_R   0.500030 0.051130 0.958080 -0.624771
O18   O     O_R   0.948870 0.500030 0.958080 -0.627292
O19   O     O_R   0.499970 0.948870 0.958080 -0.624621
O20   O     O_R   0.051130 0.499970 0.958080 -0.624702
O21   O     O_R   0.000030 0.551130 0.458080 -0.623531
O22   O     O_R   0.448870 0.000030 0.458080 -0.620460
O23   O     O_R   0.999970 0.448870 0.458080 -0.625370
O24   O     O_R   0.551130 0.999970 0.458080 -0.618230
C41   C     C_R   0.500023 0.000139 0.944473 0.877971
C42   C     C_R   0.000203 0.500076 0.944469 0.870841
C43   C     C_R   0.000101 0.500142 0.444471 0.879220
C44   C     C_R   0.500191 0.000073 0.444665 0.861218
O25   O     O_R   0.590470 0.051110 0.000000 -0.592811
O26   O     O_R   0.948890 0.590470 0.000000 -0.590992
O27   O     O_R   0.409530 0.948890 0.000000 -0.593376
O28   O     O_R   0.051110 0.409530 0.000000 -0.591701
O29   O     O_R   0.090470 0.551110 0.500000 -0.592595
O30   O     O_R   0.448890 0.090470 0.500000 -0.589499
O31   O     O_R   0.909530 0.448890 0.500000 -0.592504
O32   O     O_R   0.551110 0.909530 0.500000 -0.590269
O33   O     O_R   0.590450 0.948970 0.000000 -0.625800
O34   O     O_R   0.051030 0.590450 0.000000 -0.627834
O35   O     O_R   0.409550 0.051030 0.000000 -0.625158
O36   O     O_R   0.948970 0.409550 0.000000 -0.630126
O37   O     O_R   0.090450 0.448970 0.500000 -0.628531
O38   O     O_R   0.551030 0.090450 0.500000 -0.629654
O39   O     O_R   0.909550 0.551030 0.500000 -0.628845
O40   O     O_R   0.448970 0.909550 0.500000 -0.635116
C45   C     C_R   0.619120 0.999823 0.998700 0.947855
C46   C     C_R   0.000111 0.619136 0.998657 0.960364
C47   C     C_R   0.380926 0.000217 0.998662 0.947875
C48   C     C_R   0.999951 0.380870 0.001403 0.951390
C49   C     C_R   0.119133 0.499825 0.498697 0.971792
C50   C     C_R   0.500114 0.119135 0.498662 0.954837
C51   C     C_R   0.880862 0.500123 0.501400 0.950198
C52   C     C_R   0.499940 0.880885 0.501374 0.957080
Zn5   Zn    Zn3+2 0.500010 0.068250 0.000000 0.977463
Zn6   Zn    Zn3+2 0.931750 0.500010 0.000000 0.958285
Zn7   Zn    Zn3+2 0.499990 0.931750 0.000000 0.976303
Zn8   Zn    Zn3+2 0.068250 0.499990 0.000000 0.962154
Zn9   Zn    Zn3+2 0.000010 0.568250 0.500000 0.961401
Zn10  Zn    Zn3+2 0.431750 0.000010 0.500000 0.965296
Zn11  Zn    Zn3+2 0.999990 0.431750 0.500000 0.966877
Zn12  Zn    Zn3+2 0.568250 0.999990 0.500000 0.970176
O41   O     O_R   0.499980 0.051120 0.041920 -0.610074
O42   O     O_R   0.948880 0.499980 0.041920 -0.628146
O43   O     O_R   0.500020 0.948880 0.041920 -0.610485
O44   O     O_R   0.051120 0.500020 0.041920 -0.626145
O45   O     O_R   0.999980 0.551120 0.541920 -0.628903
O46   O     O_R   0.448880 0.999980 0.541920 -0.629189
O47   O     O_R   0.000020 0.448880 0.541920 -0.625795
O48   O     O_R   0.551120 0.000020 0.541920 -0.621181
C53   C     C_R   0.499920 0.999876 0.055493 0.863344
C54   C     C_R   0.999758 0.499300 0.055396 0.889050
C55   C     C_R   0.999311 0.499917 0.555404 0.887456
C56   C     C_R   0.499763 0.999417 0.555392 0.895860
C57   C     C_R   0.944425 0.500560 0.190707 0.506728
C58   C     C_R   0.555039 0.999456 0.190741 0.504933
C59   C     C_R   0.054354 0.505060 0.190182 0.506193
C60   C     C_R   0.444998 0.000691 0.191227 0.504634
C61   C     C_R   0.444240 0.000109 0.690666 0.506361
C62   C     C_R   0.996213 0.444522 0.690534 0.506729
C63   C     C_R   0.554145 0.005128 0.690209 0.505802
C64   C     C_R   0.008228 0.553906 0.690170 0.507050
N1    N     N_R   0.999299 0.502654 0.176271 -0.349178
N2    N     N_R   0.499935 0.999909 0.176743 -0.347058
N3    N     N_R   0.499145 0.002479 0.676262 -0.349368
N4    N     N_R   0.001990 0.499180 0.676217 -0.350490
C65   C     C_R   0.055686 0.505499 0.219894 -0.017382
C66   C     C_R   0.444092 0.002594 0.220898 -0.015459
C67   C     C_R   0.943485 0.500313 0.220428 -0.018095
C68   C     C_R   0.556286 0.998318 0.220420 -0.015646
C69   C     C_R   0.555387 0.005566 0.719922 -0.018075
C70   C     C_R   0.008663 0.555161 0.719884 -0.019256
C71   C     C_R   0.443216 0.999828 0.720389 -0.018685
C72   C     C_R   0.996346 0.443463 0.720259 -0.019014
C73   C     C_R   0.999688 0.502863 0.235075 -0.020813
C74   C     C_R   0.500274 0.000646 0.235553 -0.022157
C75   C     C_R   0.499360 0.002654 0.735070 -0.020990
C76   C     C_R   0.002568 0.499371 0.734988 -0.020758
C77   C     C_R   0.111469 0.508182 0.234707 -0.160056
C78   C     C_R   0.388509 0.006191 0.236181 -0.160662
C79   C     C_R   0.887906 0.497589 0.235770 -0.159437
C80   C     C_R   0.612039 0.995135 0.235245 -0.160170
C81   C     C_R   0.611111 0.008528 0.734770 -0.159802
C82   C     C_R   0.015006 0.610621 0.734772 -0.159711
C83   C     C_R   0.387608 0.996819 0.735697 -0.159142
C84   C     C_R   0.990177 0.388120 0.735528 -0.159546
C85   C     C_R   0.611231 0.008567 0.764350 -0.159526
C86   C     C_R   0.015190 0.610737 0.764353 -0.159241
C87   C     C_R   0.387729 0.996418 0.765278 -0.158969
C88   C     C_R   0.990037 0.388267 0.765112 -0.158709
C89   C     C_R   0.111677 0.508201 0.264288 -0.159529
C90   C     C_R   0.388767 0.008190 0.265722 -0.159790
C91   C     C_R   0.888112 0.497192 0.265349 -0.158645
C92   C     C_R   0.612111 0.993825 0.264804 -0.159035
C93   C     C_R   0.555638 0.005481 0.779656 -0.017036
C94   C     C_R   0.008949 0.555404 0.779620 -0.016658
C95   C     C_R   0.443452 0.999189 0.780121 -0.017394
C96   C     C_R   0.996155 0.443750 0.780002 -0.017622
C97   C     C_R   0.056114 0.505382 0.279627 -0.016519
C98   C     C_R   0.444543 0.005375 0.280545 -0.012840
C99   C     C_R   0.943893 0.499674 0.280158 -0.017236
C100  C     C_R   0.556498 0.996907 0.280093 -0.013531
C101  C     C_R   0.499482 0.002469 0.764972 -0.020034
C102  C     C_R   0.002591 0.499505 0.764893 -0.019888
C103  C     C_R   0.999898 0.502670 0.264976 -0.019823
C104  C     C_R   0.500440 0.000992 0.265424 -0.021302
C105  C     C_R   0.554589 0.005169 0.809379 0.502478
C106  C     C_R   0.008695 0.554388 0.809345 0.501840
C107  C     C_R   0.444760 0.998805 0.809833 0.502892
C108  C     C_R   0.996012 0.445084 0.809719 0.503111
C109  C     C_R   0.055148 0.505045 0.309350 0.503025
C110  C     C_R   0.445926 0.006940 0.310210 0.500330
C111  C     C_R   0.945287 0.499256 0.309867 0.503703
C112  C     C_R   0.555410 0.995684 0.309784 0.501655
N5    N     N_R   0.499738 0.001780 0.823715 -0.358784
N6    N     N_R   0.002197 0.499820 0.823652 -0.358622
N7    N     N_R   0.000321 0.501921 0.323713 -0.358967
N8    N     N_R   0.500725 0.001289 0.324247 -0.354314
O49   O     O_2   0.890990 0.499113 0.176307 -0.561947
O50   O     O_2   0.608467 0.000728 0.175976 -0.565983
O51   O     O_2   0.107595 0.506419 0.175280 -0.564130
O52   O     O_2   0.391401 0.999042 0.176953 -0.566265
O53   O     O_2   0.390853 0.998433 0.676235 -0.560723
O54   O     O_2   0.989897 0.391534 0.676015 -0.560822
O55   O     O_2   0.607425 0.006734 0.675342 -0.562616
O56   O     O_2   0.014285 0.606803 0.675293 -0.559735
H25   H     H_    0.155113 0.510263 0.223510 0.191380
H26   H     H_    0.344706 0.007955 0.225385 0.191949
H27   H     H_    0.844110 0.495611 0.224989 0.191725
H28   H     H_    0.655721 0.993126 0.224079 0.192119
H29   H     H_    0.654776 0.010823 0.723600 0.192268
H30   H     H_    0.019802 0.654084 0.723633 0.192234
H31   H     H_    0.343854 0.994623 0.724890 0.192579
H32   H     H_    0.985331 0.344565 0.724685 0.192227
H33   H     H_    0.654974 0.010898 0.775160 0.192172
H34   H     H_    0.020125 0.654282 0.775196 0.192170
H35   H     H_    0.344077 0.993940 0.776450 0.192430
H36   H     H_    0.985096 0.344822 0.776252 0.192438
H37   H     H_    0.155463 0.510304 0.275071 0.191469
H38   H     H_    0.345150 0.011395 0.276882 0.192278
H39   H     H_    0.844479 0.494935 0.276548 0.191985
H40   H     H_    0.655848 0.990852 0.275606 0.192558
O57   O     O_2   0.607827 0.007922 0.823884 -0.557016
O58   O     O_2   0.014518 0.607414 0.823881 -0.558244
O59   O     O_2   0.391649 0.995735 0.824778 -0.556182
O60   O     O_2   0.990007 0.392214 0.824618 -0.555350
O61   O     O_2   0.108433 0.507540 0.323829 -0.557283
O62   O     O_2   0.392973 0.014618 0.324918 -0.564284
O63   O     O_2   0.892208 0.496423 0.324847 -0.554804
O64   O     O_2   0.608510 0.988232 0.324089 -0.562400
C113  C     C_R   0.492335 0.945848 0.868775 -0.107327
C114  C     C_R   0.946002 0.493957 0.868757 -0.106327
C115  C     C_R   0.507494 0.056411 0.868808 -0.106510
C116  C     C_R   0.056878 0.506229 0.868756 -0.104507
C117  C     C_R   0.994055 0.445772 0.368739 -0.105258
C118  C     C_R   0.536864 0.043306 0.369546 -0.090408
C119  C     C_R   0.006982 0.556619 0.368820 -0.106759
C120  C     C_R   0.464664 0.958136 0.369711 -0.091944
H41   H     H_    0.486450 0.903204 0.857311 0.137375
H42   H     H_    0.903254 0.489208 0.857311 0.137886
H43   H     H_    0.513305 0.099376 0.857373 0.137663
H44   H     H_    0.100009 0.510904 0.857312 0.138523
H45   H     H_    0.989069 0.403037 0.357252 0.138184
H46   H     H_    0.564359 0.077025 0.358215 0.155473
H47   H     H_    0.011967 0.599706 0.357400 0.137850
H48   H     H_    0.437203 0.924693 0.358505 0.154417
C121  C     C_R   0.492552 0.945338 0.898320 -0.212192
C122  C     C_R   0.945410 0.494187 0.898304 -0.216824
C123  C     C_R   0.507421 0.056098 0.898350 -0.211562
C124  C     C_R   0.056474 0.506162 0.898304 -0.211329
C125  C     C_R   0.994106 0.445232 0.398284 -0.209509
C126  C     C_R   0.537594 0.042244 0.399053 -0.227538
C127  C     C_R   0.006764 0.556272 0.398362 -0.211667
C128  C     C_R   0.463717 0.958550 0.399212 -0.219912
H49   H     H_    0.486615 0.901914 0.909368 0.164303
H50   H     H_    0.901812 0.489430 0.909356 0.163884
H51   H     H_    0.513396 0.099229 0.909417 0.164480
H52   H     H_    0.099705 0.510972 0.909357 0.164220
H53   H     H_    0.989005 0.401677 0.409309 0.165453
H54   H     H_    0.565880 0.074947 0.410315 0.149486
H55   H     H_    0.011795 0.599509 0.409443 0.164907
H56   H     H_    0.435255 0.925666 0.410589 0.148483
C129  C     C_R   0.500012 0.000513 0.913340 -0.041841
C130  C     C_R   0.000695 0.500163 0.913319 -0.044707
C131  C     C_R   0.000330 0.500535 0.413332 -0.044152
C132  C     C_R   0.500584 0.000240 0.413888 -0.022344
C133  C     C_R   0.499870 0.001339 0.854017 0.325125
C134  C     C_R   0.001693 0.500013 0.853969 0.323506
C135  C     C_R   0.000519 0.501425 0.354010 0.324764
C136  C     C_R   0.500776 0.000912 0.354691 0.294505
C137  C     C_R   0.019630 0.553119 0.130610 -0.136662
C138  C     C_R   0.469398 0.046413 0.131471 -0.146057
C139  C     C_R   0.978448 0.449722 0.131631 -0.134366
C140  C     C_R   0.529950 0.952927 0.131486 -0.145200
C141  C     C_R   0.519518 0.053094 0.630633 -0.135536
C142  C     C_R   0.949915 0.522037 0.631577 -0.137232
C143  C     C_R   0.478502 0.949618 0.631577 -0.136461
C144  C     C_R   0.051685 0.476642 0.630722 -0.139112
H57   H     H_    0.035175 0.593499 0.141911 0.153873
H58   H     H_    0.445818 0.082400 0.143149 0.159046
H59   H     H_    0.962794 0.410170 0.143773 0.153604
H60   H     H_    0.553544 0.916964 0.143172 0.159437
H61   H     H_    0.534980 0.093468 0.641964 0.153280
H62   H     H_    0.910974 0.539244 0.643680 0.148566
H63   H     H_    0.462885 0.910000 0.643681 0.152574
H64   H     H_    0.091361 0.459436 0.642118 0.149200
C145  C     C_R   0.020424 0.552535 0.100993 -0.055025
C146  C     C_R   0.467248 0.045912 0.101896 -0.053213
C147  C     C_R   0.977484 0.448365 0.102000 -0.055566
C148  C     C_R   0.531979 0.953315 0.101888 -0.053882
C149  C     C_R   0.520372 0.052593 0.601015 -0.056443
C150  C     C_R   0.948693 0.523088 0.601942 -0.053728
C151  C     C_R   0.477576 0.948371 0.601946 -0.054785
C152  C     C_R   0.051383 0.476398 0.601100 -0.053619
C153  C     C_R   0.999134 0.499993 0.086445 -0.121031
C154  C     C_R   0.499684 0.999652 0.086726 -0.135905
C155  C     C_R   0.499157 0.000065 0.586435 -0.119063
C156  C     C_R   0.999703 0.499799 0.586465 -0.120175
C157  C     C_R   0.999121 0.501849 0.145895 0.274234
C158  C     C_R   0.499753 0.999734 0.146306 0.273999
C159  C     C_R   0.499059 0.001744 0.645883 0.275333
C160  C     C_R   0.001160 0.499176 0.645883 0.281694
N9    N     N_3   0.687439 0.091459 0.967204 -0.423084
H65   H     H_    0.705678 0.132332 0.975162 0.186558
H66   H     H_    0.698978 0.089194 0.945664 0.180851
N10   N     N_3   0.907977 0.687327 0.967415 -0.415464
H67   H     H_    0.877959 0.720461 0.959189 0.179015
H68   H     H_    0.925902 0.663179 0.950073 0.182552
N11   N     N_3   0.313727 0.910056 0.966542 -0.423206
H69   H     H_    0.303019 0.913253 0.944996 0.181983
H70   H     H_    0.295145 0.868864 0.974266 0.186908
N12   N     N_3   0.096098 0.312072 0.029887 -0.415597
H71   H     H_    0.126449 0.278744 0.037674 0.170939
H72   H     H_    0.080849 0.337399 0.047388 0.185288
N13   N     N_3   0.187530 0.592301 0.467674 -0.423958
H73   H     H_    0.205850 0.632875 0.475909 0.187460
H74   H     H_    0.199030 0.590716 0.446117 0.180702
N14   N     N_3   0.408254 0.187289 0.467258 -0.411871
H75   H     H_    0.378291 0.220408 0.458978 0.180233
H76   H     H_    0.426370 0.163174 0.449948 0.181045
N15   N     N_3   0.812264 0.404297 0.530530 -0.414612
H77   H     H_    0.779020 0.373962 0.538505 0.172120
H78   H     H_    0.837364 0.419710 0.547941 0.184689
N16   N     N_3   0.594731 0.812075 0.530366 -0.418874
H79   H     H_    0.634620 0.793721 0.521190 0.186188
H80   H     H_    0.594923 0.800356 0.551897 0.171914
C161  C     C_R   0.041889 0.608351 0.085933 0.096998
C162  C     C_R   0.100806 0.610173 0.073573 -0.080933
C163  C     C_R   0.121763 0.664002 0.060341 -0.129257
C164  C     C_R   0.084353 0.716388 0.059688 -0.139251
C165  C     C_R   0.025735 0.714880 0.072072 -0.139352
C166  C     C_R   0.004499 0.661049 0.085181 -0.153960
H81   H     H_    0.130539 0.570151 0.074382 0.139504
H82   H     H_    0.167151 0.665239 0.050764 0.129950
H83   H     H_    0.100743 0.758107 0.049549 0.130503
H84   H     H_    0.996835 0.755484 0.071630 0.139196
H85   H     H_    0.959164 0.660469 0.094873 0.141988
C167  C     C_R   0.428028 0.092526 0.087749 0.149566
C168  C     C_R   0.440659 0.155520 0.090801 -0.145695
C169  C     C_R   0.403006 0.199488 0.077816 -0.139009
C170  C     C_R   0.352276 0.180913 0.061949 -0.109471
C171  C     C_R   0.339060 0.118338 0.059062 -0.121293
C172  C     C_R   0.376740 0.074195 0.071893 -0.101580
H86   H     H_    0.479777 0.170467 0.103088 0.131229
H87   H     H_    0.413072 0.247976 0.080112 0.134966
H88   H     H_    0.323077 0.215011 0.051980 0.127484
H89   H     H_    0.299463 0.104076 0.046981 0.116257
H90   H     H_    0.365867 0.025841 0.069594 0.108506
C173  C     C_R   0.955287 0.391595 0.088191 0.096123
C174  C     C_R   0.899440 0.391382 0.073378 -0.085668
C175  C     C_R   0.877589 0.336904 0.061421 -0.143531
C176  C     C_R   0.910625 0.282108 0.064681 -0.101825
C177  C     C_R   0.965549 0.281714 0.079915 -0.124572
C178  C     C_R   0.987884 0.336217 0.091629 -0.193557
H91   H     H_    0.872447 0.433098 0.071419 0.145781
H92   H     H_    0.834765 0.337061 0.049840 0.130529
H93   H     H_    0.893640 0.239950 0.055451 0.134552
H94   H     H_    0.990963 0.239212 0.082553 0.134622
H95   H     H_    0.030502 0.335304 0.103403 0.139051
C179  C     C_R   0.570905 0.906477 0.087690 0.149233
C180  C     C_R   0.557556 0.843593 0.090906 -0.145683
C181  C     C_R   0.594923 0.799370 0.077874 -0.139305
C182  C     C_R   0.646083 0.817581 0.061802 -0.107389
C183  C     C_R   0.660014 0.880044 0.058759 -0.119970
C184  C     C_R   0.622610 0.924446 0.071629 -0.101471
H96   H     H_    0.518107 0.828935 0.103360 0.131547
H97   H     H_    0.584307 0.750968 0.080294 0.135400
H98   H     H_    0.675064 0.783285 0.051799 0.129565
H99   H     H_    0.699952 0.894009 0.046526 0.117509
H100  H     H_    0.634019 0.972710 0.069203 0.109000
C185  C     C_R   0.541830 0.108458 0.585986 0.095077
C186  C     C_R   0.600719 0.110295 0.573597 -0.080507
C187  C     C_R   0.621678 0.164163 0.560397 -0.128730
C188  C     C_R   0.584294 0.216570 0.559798 -0.142932
C189  C     C_R   0.525698 0.215045 0.572205 -0.140355
C190  C     C_R   0.504465 0.161180 0.585288 -0.153431
H101  H     H_    0.630436 0.070258 0.574363 0.141176
H102  H     H_    0.667049 0.165413 0.550803 0.131256
H103  H     H_    0.600686 0.258317 0.549684 0.127634
H104  H     H_    0.496814 0.255663 0.571800 0.137715
H105  H     H_    0.459150 0.160590 0.594999 0.142025
C191  C     C_R   0.892588 0.546867 0.588017 0.096320
C192  C     C_R   0.893466 0.603334 0.573399 -0.084091
C193  C     C_R   0.839684 0.626367 0.561124 -0.141218
C194  C     C_R   0.784508 0.593868 0.563867 -0.106945
C195  C     C_R   0.783025 0.538335 0.578928 -0.126436
C196  C     C_R   0.836835 0.514831 0.590961 -0.192715
H106  H     H_    0.935536 0.629771 0.571761 0.145195
H107  H     H_    0.840681 0.669655 0.549678 0.129812
H108  H     H_    0.742890 0.611762 0.554389 0.129164
H109  H     H_    0.740221 0.513353 0.581181 0.133749
H110  H     H_    0.835108 0.471716 0.602568 0.140053
C197  C     C_R   0.455385 0.891691 0.588071 0.098773
C198  C     C_R   0.399235 0.891445 0.573503 -0.087390
C199  C     C_R   0.377294 0.837004 0.561546 -0.143085
C200  C     C_R   0.410548 0.782277 0.564571 -0.102152
C201  C     C_R   0.465820 0.781936 0.579540 -0.124523
C202  C     C_R   0.488314 0.836431 0.591199 -0.171156
H111  H     H_    0.372100 0.933112 0.571731 0.146590
H112  H     H_    0.334223 0.837128 0.550161 0.131513
H113  H     H_    0.393468 0.740133 0.555365 0.133594
H114  H     H_    0.491390 0.739480 0.582006 0.130399
H115  H     H_    0.531199 0.835566 0.602766 0.136320
C203  C     C_R   0.106850 0.453874 0.586104 0.097174
C204  C     C_R   0.107721 0.395052 0.573918 -0.082766
C205  C     C_R   0.161088 0.373327 0.560545 -0.126202
C206  C     C_R   0.213947 0.409868 0.559579 -0.138560
C207  C     C_R   0.213400 0.468348 0.571828 -0.146245
C208  C     C_R   0.160031 0.490362 0.585063 -0.155270
H116  H     H_    0.067278 0.366047 0.574913 0.139961
H117  H     H_    0.161583 0.328037 0.551077 0.132011
H118  H     H_    0.255291 0.392919 0.549308 0.131235
H119  H     H_    0.254372 0.496560 0.571167 0.137659
H120  H     H_    0.160161 0.535629 0.594600 0.143019

loop_
_geom_bond_atom_site_label_1
_geom_bond_atom_site_label_2
_geom_bond_distance
_ccdc_geom_bond_type
C175  C176  1.397483 A    
O8    Zn2   2.002770 S    
C106  O58   1.349584 S    
C151  C197  1.480030 S    
C14   C22   1.344387 D    
C73   C103  1.409368 A    
C25   H9    1.086772 S    
O38   C50   1.270778 A    
C74   C104  1.407983 A    
C165  C166  1.397781 A    
O21   Zn9   2.012168 S    
C161  C162  1.403538 A    
O47   C55   1.280545 A    
C16   N16   1.434787 S    
C114  C122  1.392648 A    
C19   H3    1.086300 S    
C64   O56   1.349635 S    
C178  H95   1.083161 S    
C18   C46   1.441315 S    
O26   C46   1.277586 A    
C11   N11   1.434662 S    
C105  N5    1.368054 A    
O33   Zn7   2.001911 S    
C88   C96   1.404532 A    
C149  C185  1.477115 S    
C69   C81   1.404665 A    
C162  H81   1.083044 S    
O37   Zn11  2.001911 S    
C67   C79   1.404639 A    
N14   H75   1.045620 S    
C28   H12   1.086816 S    
C86   H34   1.083136 S    
O39   Zn9   2.001911 S    
O3    C3    1.281633 A    
C180  H96   1.083152 S    
C94   C106  1.401063 A    
O48   C56   1.280297 A    
N1    C157  1.431948 S    
C192  H106  1.082718 S    
C140  C158  1.396530 A    
C118  C126  1.391040 A    
C95   C101  1.409014 A    
C21   H5    1.086392 S    
C181  C182  1.397725 A    
N16   H79   1.045265 S    
O12   Zn3   1.997526 S    
C125  H53   1.082924 S    
Zn5   O41   2.008872 S    
O40   C52   1.271676 A    
C80   C92   1.393395 A    
C32   H16   1.086774 S    
C65   C73   1.408544 A    
O28   Zn8   2.000906 S    
C198  H111  1.082670 S    
C111  O63   1.349584 S    
C38   H22   1.085227 S    
C173  C174  1.404464 A    
C26   H10   1.086773 S    
O11   Zn3   2.001073 S    
O12   C4    1.281101 A    
C72   C84   1.404564 A    
C13   N13   1.434669 S    
C53   C154  1.472038 S    
O23   Zn11  2.008845 S    
C8    C37   1.437376 S    
C123  H51   1.082946 S    
O45   C55   1.278682 A    
C19   C47   1.440016 S    
C124  H52   1.082934 S    
C115  C123  1.392340 A    
C189  C190  1.397848 A    
C16   C24   1.343645 D    
C17   H1    1.086300 S    
O42   C54   1.279064 A    
C87   C95   1.404353 A    
C82   C86   1.394292 A    
C121  H49   1.082945 S    
C20   H4    1.087218 S    
C167  C172  1.405542 A    
C164  C165  1.397951 A    
C20   C48   1.441283 S    
C107  N5    1.368041 A    
C54   C153  1.463526 S    
O29   C49   1.277006 A    
C185  C190  1.403218 A    
O36   C48   1.272134 A    
C187  H102  1.082234 S    
C145  C161  1.476981 S    
O10   C2    1.281782 A    
C139  C147  1.397333 A    
C171  C172  1.398135 A    
C58   O50   1.349797 S    
C60   C66   1.399280 A    
C6    C39   1.437656 S    
C182  H98   1.082321 S    
C90   C98   1.404422 A    
C143  C151  1.397232 A    
C59   N1    1.369597 A    
O5    C5    1.275299 A    
Zn10  O46   2.013131 S    
C184  H100  1.083248 S    
O34   Zn8   1.999887 S    
C177  C178  1.397959 A    
C14   C30   1.468407 S    
C87   H35   1.083110 S    
C150  C191  1.479941 S    
C94   C102  1.409035 A    
C58   C68   1.399403 A    
C186  C187  1.398374 A    
C179  C184  1.405408 A    
C27   H11   1.086708 S    
O38   Zn12  1.999887 S    
C188  C189  1.397950 A    
C42   C130  1.468105 S    
O10   Zn3   2.002678 S    
C39   H23   1.087062 S    
C5    C38   1.438544 S    
C77   C89   1.394253 A    
C120  C128  1.390514 A    
C79   H27   1.083102 S    
O20   Zn8   2.013099 S    
O32   C52   1.276455 A    
C86   C94   1.404474 A    
C183  C184  1.398155 A    
C169  H87   1.082313 S    
C148  C154  1.419374 A    
C10   C26   1.468403 S    
C10   C18   1.344450 D    
C174  H91   1.082613 S    
C164  H83   1.082365 S    
O7    Zn2   1.997815 S    
C15   C31   1.467417 S    
C205  C206  1.397945 A    
C98   C110  1.399307 A    
C61   C71   1.400892 A    
C139  C157  1.396195 A    
C62   C72   1.401139 A    
C100  C112  1.399553 A    
C166  H85   1.083157 S    
C138  C146  1.395151 A    
O24   C44   1.278722 A    
N10   H67   1.045619 S    
Zn8   O44   2.008001 S    
O39   C51   1.271805 A    
C29   H13   1.086750 S    
C168  H86   1.083147 S    
O25   Zn5   2.000241 S    
C31   C39   1.336141 D    
C170  H88   1.082339 S    
C25   C33   1.337001 D    
C189  H104  1.082159 S    
C142  H62   1.084140 S    
C108  O60   1.349579 S    
N10   H68   1.045829 S    
C191  C192  1.404331 A    
C27   C35   1.336908 D    
O29   Zn9   2.000241 S    
C28   C36   1.335969 D    
C177  H94   1.082195 S    
C128  H56   1.083523 S    
C15   C23   1.345517 D    
C165  H84   1.082147 S    
C84   H32   1.083130 S    
C24   H8    1.087036 S    
C76   C102  1.409521 A    
N5    C133  1.428239 S    
C61   O53   1.349672 S    
N9    H66   1.045382 S    
O20   C42   1.283168 A    
C116  C124  1.392654 A    
C119  H47   1.082872 S    
N15   H78   1.045278 S    
C109  O61   1.349563 S    
C162  C163  1.398336 A    
C70   C82   1.404570 A    
C148  C179  1.481217 S    
C60   N2    1.371267 A    
C137  H57   1.084127 S    
C163  C164  1.397801 A    
C146  C167  1.481673 S    
C139  H59   1.084168 S    
C63   N3    1.369618 A    
C141  C159  1.396009 A    
O18   Zn6   2.007962 S    
C195  H109  1.082191 S    
C142  C160  1.395386 A    
C112  N8    1.371429 A    
O35   C47   1.270148 A    
C55   C156  1.464020 S    
O41   C53   1.281473 A    
O17   Zn5   2.012168 S    
C144  H64   1.084095 S    
C203  C204  1.403458 A    
C22   H6    1.086470 S    
C78   C90   1.393266 A    
C77   H25   1.083102 S    
N13   H73   1.045339 S    
C115  C133  1.398158 A    
O14   C6    1.274259 A    
C96   C102  1.408957 A    
C145  C153  1.414472 A    
C126  H54   1.083525 S    
C119  C135  1.398004 A    
C93   C105  1.400911 A    
C30   H14   1.086770 S    
C200  C201  1.397340 A    
C113  H41   1.082864 S    
O26   Zn6   2.000906 S    
C88   H36   1.083129 S    
C65   C77   1.404677 A    
C204  H116  1.083057 S    
C34   H18   1.085179 S    
C113  C133  1.398387 A    
C64   N4    1.368740 A    
C198  C199  1.398489 A    
O30   Zn10  2.000906 S    
O22   C44   1.278242 A    
O1    C1    1.275311 A    
C100  C104  1.407486 A    
C97   C109  1.400924 A    
C80   H28   1.083118 S    
C201  H114  1.082194 S    
C15   N15   1.439284 S    
O19   Zn7   2.008845 S    
C144  C160  1.395059 A    
O6    Zn2   1.997608 S    
C151  C155  1.416111 A    
C190  H105  1.083156 S    
O7    C7    1.281502 A    
O19   C41   1.282717 A    
C140  C148  1.395364 A    
C91   H39   1.083110 S    
C57   O49   1.349672 S    
C18   H2    1.086480 S    
C89   H37   1.083109 S    
C152  C156  1.414696 A    
C167  C168  1.404526 A    
N8    C136  1.434910 S    
N14   H76   1.045845 S    
C14   N14   1.438925 S    
C120  C136  1.403430 A    
C81   C85   1.394241 A    
C21   C49   1.440412 S    
O25   C45   1.276891 A    
C172  H90   1.083245 S    
C83   H31   1.083103 S    
C84   C88   1.394372 A    
C23   C51   1.441442 S    
C79   C91   1.394176 A    
C196  H110  1.083166 S    
C206  C207  1.397908 A    
O28   C48   1.276457 A    
C105  O57   1.349575 S    
C85   H33   1.083111 S    
C137  C157  1.395820 A    
C110  N8    1.371462 A    
O37   C49   1.270570 A    
C187  C188  1.397800 A    
C67   C73   1.408542 A    
O11   C3    1.273875 A    
C71   C83   1.404654 A    
C72   C76   1.408923 A    
C113  C121  1.392578 A    
Zn11  O47   2.012212 S    
C81   H29   1.083100 S    
Zn12  O48   2.008001 S    
O27   C47   1.277184 A    
C163  H82   1.082229 S    
C59   C65   1.400960 A    
C91   C99   1.404340 A    
C24   C52   1.440074 S    
O44   C54   1.280502 A    
C106  N6    1.368241 A    
C89   C97   1.404358 A    
C115  H43   1.082874 S    
C92   H40   1.083114 S    
C186  H101  1.083040 S    
C179  C180  1.404431 A    
C92   C100  1.404446 A    
C93   C101  1.409006 A    
N6    C134  1.428896 S    
C59   O51   1.349663 S    
C180  C181  1.398327 A    
C121  C129  1.405122 A    
N4    C160  1.429967 S    
C95   C107  1.400875 A    
O13   Zn4   1.997730 S    
C125  C131  1.405190 A    
C126  C132  1.399101 A    
O40   Zn10  1.999887 S    
C199  H112  1.082224 S    
C147  C153  1.416534 A    
O6    C6    1.281467 A    
C85   C93   1.404369 A    
N11   H69   1.045385 S    
C111  N7    1.367957 A    
C36   H20   1.087077 S    
C9    N9    1.434737 S    
C63   O55   1.349663 S    
C66   C74   1.407526 A    
C97   C103  1.409059 A    
C197  C202  1.404218 A    
C40   H24   1.086978 S    
O3    Zn1   1.997815 S    
C141  C149  1.396088 A    
C193  H107  1.082227 S    
C57   C67   1.400854 A    
C26   C34   1.337224 D    
C143  H63   1.084159 S    
C191  C196  1.404153 A    
C96   C108  1.401092 A    
C124  C130  1.405360 A    
C144  C152  1.396245 A    
C99   C111  1.400801 A    
C118  H46   1.082816 S    
C128  C132  1.398902 A    
C140  H60   1.084124 S    
C199  C200  1.397482 A    
O43   C53   1.281837 A    
C1    C34   1.438496 S    
C147  C173  1.480318 S    
C3    C36   1.437209 S    
N2    C158  1.434651 S    
C114  H42   1.082892 S    
C149  C155  1.414408 A    
C117  H45   1.082866 S    
C75   C101  1.409402 A    
C119  C127  1.392344 A    
C207  C208  1.397727 A    
C202  H115  1.083150 S    
O35   Zn5   2.001911 S    
O4    Zn1   2.002770 S    
C170  C171  1.397416 A    
O9    Zn3   1.997730 S    
O33   C45   1.270401 A    
C138  H58   1.084117 S    
Zn7   O43   2.012212 S    
C22   C50   1.441215 S    
C29   C37   1.336790 D    
C195  C196  1.398022 A    
C183  H99   1.081735 S    
C43   C131  1.467613 S    
C193  C194  1.397580 A    
C127  C131  1.405387 A    
C152  C203  1.476879 S    
C117  C135  1.398255 A    
C118  C136  1.403524 A    
C203  C208  1.403159 A    
C23   H7    1.087222 S    
O15   Zn4   2.001073 S    
C161  C166  1.403180 A    
C116  C134  1.398414 A    
O2    Zn1   1.997608 S    
C146  C154  1.419526 A    
C127  H55   1.082936 S    
C150  C156  1.416709 A    
O5    Zn2   2.001167 S    
C32   C40   1.335674 D    
C9    C17   1.342497 D    
C204  C205  1.398472 A    
C116  H44   1.082887 S    
C68   C80   1.404401 A    
C208  H120  1.083167 S    
C66   C78   1.404337 A    
C17   C45   1.439895 S    
C11   C27   1.466980 S    
C114  C134  1.398537 A    
C10   N10   1.438939 S    
C206  H118  1.082383 S    
C12   C28   1.467512 S    
C197  C198  1.404437 A    
C60   O52   1.349815 S    
O16   Zn4   1.997526 S    
O21   C43   1.282537 A    
O2    C2    1.274103 A    
C201  C202  1.397999 A    
C58   N2    1.371315 A    
C57   N1    1.369576 A    
C194  C195  1.397346 A    
C35   H19   1.087096 S    
N9    H65   1.045335 S    
C117  C125  1.392580 A    
O34   C46   1.270858 A    
O46   C56   1.279052 A    
C181  H97   1.082312 S    
C2    C35   1.437918 S    
C4    C33   1.437791 S    
O18   C42   1.283007 A    
O8    C8    1.274942 A    
C37   H21   1.085338 S    
C30   C38   1.337259 D    
N13   H74   1.045374 S    
O32   Zn12  2.000906 S    
N12   H72   1.045253 S    
C69   C75   1.408543 A    
C99   C103  1.409023 A    
O30   C50   1.277623 A    
C70   C76   1.408819 A    
C138  C158  1.396433 A    
O15   C7    1.273525 A    
C173  C178  1.404365 A    
C68   C74   1.407500 A    
O16   C8    1.280717 A    
O1    Zn1   2.001167 S    
O17   C41   1.282557 A    
O24   Zn12  2.013099 S    
C62   O54   1.349601 S    
C143  C159  1.396317 A    
C171  H89   1.081779 S    
O22   Zn10  2.007962 S    
C194  H108  1.082371 S    
C200  H113  1.082351 S    
N11   H70   1.045370 S    
O13   C5    1.280878 A    
C13   C21   1.342605 D    
C110  O62   1.349781 S    
C33   H17   1.087109 S    
N7    C135  1.427987 S    
C83   C87   1.394206 A    
C122  C130  1.405237 A    
C7    C40   1.436200 S    
N12   H71   1.045593 S    
N16   H80   1.045193 S    
C107  O59   1.349579 S    
C176  H93   1.082349 S    
C64   C70   1.400949 A    
C122  H50   1.082936 S    
C185  C186  1.403568 A    
C61   N3    1.369631 A    
C207  H119  1.082099 S    
C78   H26   1.083123 S    
C56   C155  1.463209 S    
C62   N4    1.368651 A    
O9    C1    1.280851 A    
C205  H117  1.082229 S    
C71   C75   1.408516 A    
C108  N6    1.368307 A    
C63   C69   1.400973 A    
C31   H15   1.086843 S    
O31   Zn11  2.000241 S    
C142  C150  1.397311 A    
O27   Zn7   2.000241 S    
C182  C183  1.397443 A    
C123  C129  1.405256 A    
Zn9   O45   2.008872 S    
C175  H92   1.082227 S    
C13   C29   1.465959 S    
C120  H48   1.082842 S    
O31   C51   1.276293 A    
C112  O64   1.349734 S    
O36   Zn6   1.999887 S    
C16   C32   1.465541 S    
O4    C4    1.274685 A    
C44   C132  1.450569 S    
N3    C159  1.432056 S    
N15   H77   1.045591 S    
C169  C170  1.397733 A    
C192  C193  1.398573 A    
C9    C25   1.465825 S    
C174  C175  1.398501 A    
C41   C129  1.467358 S    
C11   C19   1.342777 D    
C188  H103  1.082397 S    
C109  N7    1.367941 A    
C12   C20   1.345685 D    
C98   C104  1.407401 A    
C176  C177  1.397307 A    
C90   H38   1.083118 S    
C12   N12   1.439268 S    
C137  C145  1.396009 A    
O23   C43   1.282828 A    
O14   Zn4   2.002678 S    
C168  C169  1.398365 A    
Zn6   O42   2.013131 S    
C141  H61   1.084122 S    
C82   H30   1.083127 S    
