data_mof_unit_20806.cif
_audit_creation_date              2012-12-11T20:03:43-0500
_audit_creation_method            fapswitch 2.2
_symmetry_space_group_name_H-M    P1
_symmetry_Int_Tables_number       1
_space_group_crystal_system       triclinic
_cell_length_a                    8.227637
_cell_length_b                    16.800603
_cell_length_c                    19.17192
_cell_angle_alpha                 112.885663
_cell_angle_beta                  92.241716
_cell_angle_gamma                 82.927965
_cell_volume                      2422.82419952

loop_
_atom_site_label
_atom_site_type_symbol
_atom_type_description
_atom_site_fract_x
_atom_site_fract_y
_atom_site_fract_z
_atom_type_partial_charge
Ba1   Ba    Ba6+2 0.334020 0.539200 0.472300 1.674551
Ba2   Ba    Ba6+2 0.855780 0.460880 0.527720 1.703453
C1    C     C_3   0.966922 0.832085 0.327029 -0.291018
C2    C     C_R   0.504123 0.538665 0.734214 0.050931
C3    C     C_R   0.376920 0.444128 0.806145 -0.172795
C4    C     C_3   0.491661 0.708678 0.295532 0.349276
C5    C     C_R   0.310564 0.443935 0.737886 -0.016596
C6    C     C_R   0.852345 0.529668 0.181793 -0.135276
C7    C     C_R   0.903992 0.537819 0.254353 0.038868
C8    C     C_R   0.634611 0.453649 0.191911 -0.089314
C9    C     C_R   0.680549 0.465563 0.267277 0.066307
C10   C     C_R   0.486937 0.503981 0.847964 0.000678
C11   C     C_R   0.384171 0.485061 0.699365 -0.252546
C12   C     C_3   0.001834 0.752065 0.346260 0.366715
C13   C     C_R   0.699899 0.500085 0.152332 -0.046548
C14   C     C_R   0.811618 0.511524 0.298783 -0.273031
C15   C     C_R   0.251031 0.496424 0.958188 -0.079526
C16   C     C_3   0.465586 0.749893 0.235606 -0.159806
C17   C     C_R   0.146863 0.462331 0.991377 -0.109636
C18   C     C_R   0.200549 0.442202 0.052000 -0.062342
C19   C     C_R   0.354187 0.460381 0.081731 -0.032097
C20   C     C_R   0.471051 0.486473 0.045525 0.038095
C21   C     C_R   0.419485 0.497165 0.976492 0.062390
C22   C     C_R   0.625666 0.512625 0.079651 -0.025920
C23   C     C_3   0.038652 0.283612 0.277117 0.237742
C24   C     C_R   0.705153 0.559050 0.044102 0.060888
C25   C     C_R   0.681246 0.542365 0.965576 0.042807
C26   C     C_R   0.532525 0.513043 0.929805 0.008067
C27   C     C_R   0.793799 0.629722 0.085350 -0.020486
C28   C     C_3   0.623760 0.730984 0.659423 0.317279
C29   C     C_R   0.890907 0.663880 0.048370 -0.048939
C30   C     C_R   0.902756 0.627376 0.969865 -0.070826
C31   C     C_R   0.801892 0.564616 0.928617 -0.119575
C32   C     C_2   0.375246 0.248981 0.514870 -0.199736
C33   C     C_R   0.799245 0.747601 0.509301 -0.265120
C34   C     C_3   0.003827 0.221909 0.196489 -0.185087
C35   C     C_2   0.316575 0.128870 0.396289 -0.190398
C36   C     C_2   0.270422 0.210419 0.446054 0.059585
C37   C     C_2   0.503128 0.198329 0.529315 -0.017248
C38   C     C_3   0.499277 0.102849 0.489795 -0.028219
C39   C     C_3   0.477821 0.082295 0.405624 0.148283
C40   C     C_3   0.607921 0.829910 0.692963 -0.388149
C41   C     C_2   0.617243 0.041163 0.513395 -0.144407
C42   C     C_2   0.612969 0.953906 0.480660 -0.029702
C43   C     C_R   0.853856 0.919857 0.550620 -0.021748
C44   C     C_R   0.717042 0.890980 0.505941 -0.080362
C45   C     C_3   0.663571 0.294488 0.705247 0.405493
C46   C     C_R   0.958717 0.865418 0.576020 -0.118285
C47   C     C_R   0.932592 0.778957 0.555596 0.056546
C48   C     C_R   0.686414 0.802991 0.486054 -0.027477
C49   C     C_3   0.517148 0.253006 0.293499 0.258392
C50   C     C_3   0.545054 0.155606 0.241494 -0.200354
C51   C     C_3   0.139802 0.670139 0.709159 0.312005
C52   C     C_3   0.150136 0.698932 0.794718 -0.383600
C53   C     C_2   0.549058 0.266530 0.373684 0.735743
C54   C     C_2   0.465298 0.136007 0.165732 0.887326
C55   C     C_2   0.912066 0.266794 0.150742 0.808321
C56   C     C_3   0.706024 0.279731 0.777649 -0.344742
C57   C     C_3   0.085241 0.101265 0.644894 -0.225374
C58   C     C_3   0.221351 0.033496 0.598187 -0.401875
C59   C     C_2   0.385667 0.697990 0.163184 0.802586
C60   C     C_2   0.517176 0.920971 0.411979 0.869190
C61   C     C_3   0.194418 0.249960 0.698122 0.335621
C62   C     C_3   0.152997 0.171950 0.714221 -0.155632
C63   C     C_R   0.541768 0.555420 0.811009 -0.121384
H1    H     H_    0.070376 0.769456 0.400281 0.083522
H2    H     H_    0.081630 0.848268 0.310066 0.120266
H3    H     H_    0.237180 0.748340 0.817724 0.131565
H4    H     H_    0.193109 0.642327 0.809610 0.063484
H5    H     H_    0.027375 0.727284 0.820872 0.130053
H6    H     H_    0.882702 0.731238 0.353294 -0.091560
H7    H     H_    0.913211 0.888373 0.376903 0.102785
H8    H     H_    0.921365 0.310001 0.308798 0.039961
H9    H     H_    0.100435 0.338350 0.275966 0.026449
H10   H     H_    0.934807 0.170242 0.199072 0.095221
H11   H     H_    0.121309 0.189956 0.166667 0.102226
H12   H     H_    0.698577 0.852875 0.738804 0.128321
H13   H     H_    0.880363 0.819121 0.279004 0.134702
H14   H     H_    0.584948 0.765392 0.222159 0.075548
H15   H     H_    0.673261 0.363594 0.715775 0.052504
H16   H     H_    0.536277 0.279706 0.689999 -0.130149
H17   H     H_    0.823570 0.304952 0.800488 0.133395
H18   H     H_    0.609288 0.314309 0.821207 0.065302
H19   H     H_    0.716093 0.209200 0.766159 0.109347
H20   H     H_    0.294313 0.276802 0.736980 -0.052837
H21   H     H_    0.237752 0.228809 0.638788 -0.006820
H22   H     H_    0.264205 0.143333 0.734991 0.066132
H23   H     H_    0.630035 0.854550 0.648705 0.058650
H24   H     H_    0.451752 0.642746 0.273871 0.078457
H25   H     H_    0.061823 0.195195 0.761224 0.110981
H26   H     H_    0.611014 0.609124 0.840395 0.076435
H27   H     H_    0.333511 0.400897 0.828571 0.068200
H28   H     H_    0.937219 0.544906 0.149043 0.076267
H29   H     H_    0.563449 0.400775 0.163535 0.112554
H30   H     H_    0.340915 0.479631 0.643847 0.059152
H31   H     H_    0.850713 0.519886 0.355515 0.058658
H32   H     H_    0.198011 0.521299 0.917277 0.081736
H33   H     H_    0.022302 0.454879 0.972251 0.083215
H34   H     H_    0.482503 0.856583 0.716453 0.130561
H35   H     H_    0.117323 0.420701 0.080967 0.118630
H36   H     H_    0.624688 0.701816 0.307457 -0.092304
H37   H     H_    0.366626 0.462809 0.136952 0.124535
H38   H     H_    0.786220 0.660351 0.146348 0.052859
H39   H     H_    0.961096 0.716519 0.080720 0.093388
H40   H     H_    0.986984 0.649049 0.940856 0.082533
H41   H     H_    0.816842 0.535360 0.868229 0.120939
H42   H     H_    0.254039 0.101838 0.342769 0.104464
H43   H     H_    0.060473 0.890881 0.611781 0.084472
H44   H     H_    0.367382 0.319087 0.543114 0.054393
H45   H     H_    0.390208 0.279139 0.287094 0.034199
H46   H     H_    0.778260 0.680861 0.495233 0.064026
H47   H     H_    0.690470 0.068596 0.563528 0.087543
H48   H     H_    0.385364 0.812367 0.259053 0.111088
H49   H     H_    0.750861 0.705276 0.639124 -0.001380
H50   H     H_    0.538501 0.710097 0.611095 0.076675
H51   H     H_    0.531197 0.365840 0.475754 0.341350
H52   H     H_    0.321663 0.060057 0.086177 0.311540
H53   H     H_    0.916989 0.345747 0.095350 0.302755
H54   H     H_    0.313057 0.065808 0.581584 0.141300
H55   H     H_    0.282455 0.997046 0.631349 0.134672
H56   H     H_    0.494405 0.116198 0.268499 0.035928
H57   H     H_    0.169344 0.986856 0.546253 0.186576
H58   H     H_    0.999357 0.067921 0.664422 0.115414
H59   H     H_    0.016450 0.130157 0.607883 0.187153
H60   H     H_    0.199534 0.630129 0.112698 0.302866
H61   H     H_    0.293219 0.926105 0.366125 0.301378
H62   H     H_    0.678444 0.133839 0.232775 0.089563
H63   H     H_    0.263912 0.645205 0.684319 -0.000418
H64   H     H_    0.059600 0.617351 0.687753 0.076944
O1    O     O_2   0.405910 0.437000 0.315050 -0.454906
O2    O     O_2   0.839758 0.192863 0.503761 -0.424291
O3    O     O_3   0.773296 0.240010 0.647645 -0.591418
O4    O     O_3   0.650250 0.445090 0.405140 -0.480220
O5    O     O_3   0.024090 0.610190 0.555810 -0.508262
O6    O     O_2   0.949630 0.279650 0.426400 -0.412407
O7    O     O_3   0.144098 0.234642 0.308762 -0.665502
O8    O     O_2   0.974827 0.478950 0.750396 -0.494839
O9    O     O_3   0.056197 0.312544 0.712808 -0.569429
O10   O     O_3   0.110870 0.602570 0.387980 -0.484037
O11   O     O_2   0.246025 0.530135 0.253704 -0.476734
O12   O     O_3   0.075712 0.741395 0.691662 -0.632244
O13   O     O_3   0.625753 0.297779 0.273052 -0.638679
O14   O     O_3   0.097290 0.687324 0.287745 -0.544669
O15   O     O_2   0.240060 0.720390 0.573650 -0.462892
O16   O     O_3   0.508300 0.651290 0.432440 -0.487950
O17   O     O_2   0.352855 0.803218 0.504995 -0.469563
O18   O     O_2   0.656244 0.220675 0.390784 -0.600004
O19   O     O_R   0.468879 0.340950 0.428018 -0.758135
O20   O     O_2   0.488326 0.177702 0.127853 -0.543805
O21   O     O_R   0.366929 0.068306 0.138178 -0.752103
O22   O     O_2   0.777147 0.247422 0.125986 -0.547978
O23   O     O_3   0.399468 0.762777 0.361077 -0.561186
O24   O     O_R   0.985642 0.326413 0.132223 -0.784446
O25   O     O_2   0.428469 0.700572 0.103847 -0.611789
O26   O     O_R   0.252319 0.654841 0.164051 -0.723218
O27   O     O_2   0.587915 0.891713 0.350948 -0.667197
O28   O     O_R   0.346080 0.936249 0.416876 -0.753427
O29   O     O_2   0.783780 0.563030 0.685000 -0.463403
O30   O     O_3   0.539430 0.554980 0.594880 -0.507164
O31   O     O_3   0.078810 0.397510 0.612040 -0.465014
O32   O     O_3   0.585359 0.702350 0.715690 -0.629661
O33   O     O_3   0.165590 0.389880 0.444220 -0.442681
O34   O     O_3   0.681380 0.348790 0.567580 -0.494436
P1    P     P_3+3 0.586140 0.411610 0.321630 1.030145
P2    P     P_3+3 0.070040 0.709050 0.593050 0.969122
P3    P     P_3+3 0.490072 0.758926 0.444720 0.982641
P4    P     P_3+3 0.603540 0.588460 0.678390 0.968892
P5    P     P_3+3 0.700014 0.242833 0.561854 1.013636
P6    P     P_3+3 0.089843 0.587021 0.294000 1.004831
P7    P     P_3+3 0.133755 0.279143 0.407684 1.004939
P8    P     P_3+3 0.109455 0.406589 0.704836 0.950161

loop_
_geom_bond_atom_site_label_1
_geom_bond_atom_site_label_2
_ccdc_geom_bond_type
C38   C39   S    
O11   P6    D    
C5    P8    S    
C24   C27   A    
C12   H6    S    
C7    P6    S    
C17   C18   A    
C62   H25   S    
C59   O25   D    
Ba2   O33   S    
C43   C44   A    
C25   C31   A    
C47   P2    S    
C57   C62   S    
C15   C21   A    
C11   H30   S    
C34   H10   S    
C7    C14   A    
C22   C24   A    
C23   H9    S    
C8    C13   A    
C56   H17   S    
O13   P1    S    
C2    C63   A    
C43   C46   A    
C52   H3    S    
C8    H29   S    
C2    C11   A    
C27   H38   S    
C58   H54   S    
Ba1   Ba2   S    
C50   H56   S    
O6    P7    D    
C37   P5    S    
C23   O7    S    
C34   H11   S    
Ba1   O16   S    
C17   H33   S    
C38   C41   S    
Ba1   P1    S    
O30   P4    S    
C6    C7    A    
O33   P7    S    
C33   C47   A    
C58   H55   S    
H52   O21   S    
C62   H22   S    
C49   C53   S    
Ba1   O10   S    
O16   P3    S    
C4    O23   S    
O17   P3    D    
C57   C58   S    
C19   C20   A    
C61   H20   S    
C23   H8    S    
C45   H15   S    
Ba1   O4    S    
C59   O26   S    
C16   H48   S    
C50   H62   S    
C42   C44   S    
O29   P4    D    
C36   P7    S    
C28   H50   S    
C57   H58   S    
C4    C16   S    
C14   H31   S    
Ba2   O4    S    
C6    H28   S    
C32   C37   D    
Ba1   O30   S    
O14   P6    S    
C3    C10   A    
Ba1   O1    S    
C37   C38   S    
C3    C5    A    
C16   H14   S    
C42   C60   S    
C51   C52   S    
C55   O24   S    
C49   C50   S    
C41   C42   D    
C48   P3    S    
C35   C36   D    
C51   H63   S    
C56   H19   S    
C9    C14   A    
C53   O18   D    
C29   C30   A    
C52   H5    S    
Ba1   P2    S    
Ba2   O29   S    
C33   C48   A    
C12   H1    S    
C60   O28   S    
Ba2   O5    S    
C21   C26   A    
C58   H57   S    
O32   P4    S    
C1    C12   S    
C4    H36   S    
C19   H37   S    
C13   C22   S    
O7    P7    S    
O2    P5    D    
C34   C55   S    
C49   H45   S    
C30   H40   S    
C61   H21   S    
C24   C25   A    
C61   O9    S    
C20   C22   A    
C40   H23   S    
C41   H47   S    
Ba2   O30   S    
O5    P2    S    
C54   O21   S    
Ba1   O5    S    
O4    P1    S    
C33   H46   S    
H51   O19   S    
C28   H49   S    
C49   O13   S    
O1    P1    D    
C57   H59   S    
C63   H26   S    
C12   O14   S    
C46   C47   A    
O9    P8    S    
C32   C36   S    
C1    H2    S    
C31   H41   S    
O3    P5    S    
Ba2   O34   S    
Ba1   O33   S    
C45   O3    S    
O23   P3    S    
C16   C59   S    
C35   H42   S    
C6    C13   A    
C4    H24   S    
C10   C63   A    
C44   C48   A    
O12   P2    S    
Ba2   O6    S    
C2    P4    S    
O15   P2    D    
C29   H39   S    
H61   O28   S    
C1    H7    S    
O34   P5    S    
C18   H35   S    
C27   C29   A    
Ba1   O15   S    
C40   H34   S    
C30   C31   A    
C45   C56   S    
C53   O19   S    
C46   H43   S    
C52   H4    S    
C55   O22   D    
C9    P1    S    
C15   C17   A    
O31   P8    S    
C60   O27   D    
O10   P6    S    
C51   O12   S    
C45   H16   S    
C35   C39   S    
H53   O24   S    
O8    P8    D    
C3    H27   S    
C8    C9    A    
C23   C34   S    
C61   C62   S    
H60   O26   S    
C5    C11   A    
C51   H64   S    
C18   C19   A    
C10   C26   S    
C40   H12   S    
Ba2   O31   S    
C25   C26   A    
C32   H44   S    
C20   C21   A    
C28   C40   S    
C28   O32   S    
C54   O20   D    
C56   H18   S    
C1    H13   S    
C15   H32   S    
Ba2   P4    S    
C50   C54   S    
