data_mof_unit_37303.cif
_audit_creation_date              2013-03-05T15:45:02-0500
_audit_creation_method            fapswitch 2.2
_symmetry_space_group_name_H-M    P1
_symmetry_Int_Tables_number       1
_space_group_crystal_system       triclinic
_cell_length_a                    9.835791
_cell_length_b                    11.036845
_cell_length_c                    13.012188
_cell_angle_alpha                 90.076881
_cell_angle_beta                  75.547174
_cell_angle_gamma                 110.821643
_cell_volume                      1272.54653298

loop_
_atom_site_label
_atom_site_type_symbol
_atom_site_description
_atom_site_fract_x
_atom_site_fract_y
_atom_site_fract_z
_atom_type_partial_charge
O1    O     O_R   0.578710 0.332530 0.490040 -0.579729
O2    O     O_R   0.421290 0.667470 0.509960 -0.579727
O3    O     O_R   0.329810 0.295070 0.521560 -0.573555
O4    O     O_R   0.670190 0.704930 0.478440 -0.573551
C1    C     C_R   0.439819 0.254047 0.507727 0.867513
C2    C     C_R   0.560181 0.745953 0.492272 0.867508
O5    O     O_R   0.604230 0.515670 0.637800 -0.586997
O6    O     O_R   0.395770 0.484330 0.362200 -0.587009
O7    O     O_R   0.355330 0.478200 0.669330 -0.568435
O8    O     O_R   0.644670 0.521800 0.330670 -0.568451
C3    C     C_R   0.473317 0.496153 0.702721 0.837380
C4    C     C_R   0.526683 0.503841 0.297279 0.837369
Cu1   Cu    Cu3+1 0.647370 0.522180 0.481340 0.980010
Cu2   Cu    Cu3+1 0.352630 0.477820 0.518660 0.980014
C5    C     C_R   0.542271 0.505727 0.182972 -0.147125
C6    C     C_R   0.457729 0.494233 0.817029 -0.147225
C7    C     C_R   0.302489 0.477234 0.997349 0.355918
C8    C     C_R   0.697519 0.522634 0.002656 0.355775
C9    C     C_R   0.317779 0.475873 0.888156 -0.200563
C10   C     C_R   0.682204 0.524001 0.111855 -0.200672
C11   C     C_R   0.583587 0.512308 0.854826 -0.192485
C12   C     C_R   0.416432 0.487691 0.145167 -0.192571
C13   C     C_R   0.570937 0.508171 0.963932 -0.001370
C14   C     C_R   0.429081 0.491745 0.036062 -0.001466
H1    H     H_    0.308393 0.469415 0.201671 0.208426
H2    H     H_    0.691638 0.530707 0.798307 0.208566
H3    H     H_    0.779526 0.535647 0.141246 0.222640
H4    H     H_    0.220433 0.464186 0.858782 0.222587
H5    H     H_    0.365925 0.864818 0.516547 0.184813
H6    H     H_    0.634075 0.135182 0.483453 0.184816
C15   C     C_2   0.405909 0.114882 0.511937 -0.329892
C16   C     C_2   0.594091 0.885117 0.488063 -0.329887
C17   C     C_2   0.517060 0.069543 0.497981 -0.136546
C18   C     C_2   0.482940 0.930457 0.502019 -0.136558
H7    H     H_    0.710909 0.951063 0.473510 0.157465
H8    H     H_    0.289091 0.048937 0.526490 0.157459
H9    H     H_    0.834904 0.414086 0.569997 0.166566
H10   H     H_    0.165096 0.585915 0.430004 0.166511
N1    N     N_2   0.131210 0.444490 0.546730 -0.279564
N2    N     N_2   0.868790 0.555510 0.453270 -0.279596
C19   C     C_2   0.082941 0.511152 0.491380 -0.044730
C20   C     C_2   0.917059 0.488849 0.508620 -0.044701
H11   H     H_    0.949417 0.626415 0.396000 0.215374
H12   H     H_    0.050583 0.373584 0.604000 0.215409
N3    N     N_R   0.159011 0.466492 0.066769 0.122615
O9    O     O_R   0.035239 0.383339 0.051177 -0.312329
O10   O     O_R   0.150299 0.555530 0.131032 -0.365102
N4    N     N_R   0.841020 0.533368 0.933257 0.122690
O11   O     O_R   0.964803 0.616204 0.949085 -0.312112
O12   O     O_R   0.849697 0.444666 0.868626 -0.365471

loop_
_geom_bond_atom_site_label_1
_geom_bond_atom_site_label_2
_geom_bond_distance
_ccdc_geom_bond_type
C2    C16   1.449231 S    
O7    Cu2   1.967321 S    
C15   C17   1.329728 D    
C6    C11   1.393627 A    
C10   H3    1.083621 S    
C3    C6    1.456104 S    
C4    C5    1.456104 S    
O6    C4    1.295528 A    
N2    C20   1.306089 D    
C17   C18   1.448108 S    
C5    C12   1.393592 A    
N1    C19   1.306087 D    
Cu1   Cu2   2.677426 S    
O5    C3    1.295520 A    
C9    H4    1.083623 S    
O7    C3    1.289485 A    
O2    C2    1.293004 A    
O3    Cu2   1.947860 S    
O8    C4    1.289476 A    
C6    C9    1.399545 A    
O1    C1    1.293004 A    
N4    O12   1.301667 A    
N4    O11   1.301515 A    
C7    C9    1.391584 A    
C11   H2    1.080928 S    
C7    N3    1.437559 S    
H9    C20   1.085020 S    
C8    C10   1.391634 A    
C11   C13   1.393243 A    
C5    C10   1.399555 A    
O2    Cu2   1.951322 S    
C12   C14   1.393212 A    
C7    C14   1.414521 A    
O1    Cu1   1.951322 S    
N1    H12   1.030548 S    
C8    C13   1.414607 A    
C16   H7    1.087671 S    
O5    Cu1   1.969149 S    
H10   C19   1.085021 S    
O4    C2    1.288024 A    
C19   C20   1.518182 S    
N3    O10   1.301599 A    
O4    Cu1   1.947860 S    
C15   H8    1.087671 S    
Cu1   N2    2.011336 S    
O6    Cu2   1.969151 S    
C13   C14   1.423897 A    
H6    C17   1.088216 S    
O3    C1    1.288024 A    
Cu2   N1    2.011335 S    
N3    O9    1.301529 A    
H5    C18   1.088215 S    
O8    Cu1   1.967323 S    
N2    H11   1.030546 S    
C16   C18   1.329729 D    
C1    C15   1.449231 S    
C12   H1    1.080974 S    
C8    N4    1.437663 S    
