data_mof_unit_60971.cif
_audit_creation_date              2012-10-26T20:51:59-0400
_audit_creation_method            fapswitch 2.2
_symmetry_space_group_name_H-M    P1
_symmetry_Int_Tables_number       1
_space_group_crystal_system       triclinic
_cell_length_a                    8.781854
_cell_length_b                    16.001195
_cell_length_c                    14.770405
_cell_angle_alpha                 89.995578
_cell_angle_beta                  97.878689
_cell_angle_gamma                 90.104909
_cell_volume                      2055.94414937

loop_
_atom_site_label
_atom_site_type_symbol
_atom_type_description
_atom_site_fract_x
_atom_site_fract_y
_atom_site_fract_z
_atom_type_partial_charge
C1    C     C_R   0.499754 0.340873 0.499966 0.541561
C2    C     C_R   0.796478 0.500004 0.523018 0.580793
C3    C     C_2   0.038883 0.499989 0.463861 0.344812
C4    C     C_2   0.961117 0.500010 0.536138 0.344812
C5    C     C_R   0.362928 0.956894 0.508071 0.118724
C6    C     C_R   0.637072 0.043106 0.491929 0.118724
C7    C     C_R   0.498542 0.912703 0.500131 0.019476
C8    C     C_R   0.501458 0.087297 0.499869 0.019476
C9    C     C_R   0.634831 0.955861 0.492112 -0.086547
C10   C     C_R   0.365169 0.044139 0.507888 -0.086547
C11   C     C_1   0.499717 0.823207 0.500068 0.013051
C12   C     C_R   0.500246 0.659127 0.500034 0.541561
C13   C     C_1   0.500283 0.176793 0.499932 0.013051
C14   C     C_1   0.499763 0.251809 0.499967 0.044940
C15   C     C_1   0.500237 0.748191 0.500033 0.044940
C16   C     C_R   0.638874 0.499915 0.963405 0.374673
C17   C     C_R   0.361125 0.500085 0.036595 0.374673
C18   C     C_R   0.499980 0.500012 0.902876 -0.113370
C19   C     C_R   0.500020 0.499988 0.097124 -0.113370
C20   C     C_R   0.361108 0.500096 0.940780 0.378086
C21   C     C_R   0.638892 0.499904 0.059220 0.378086
C22   C     C_1   0.499953 0.500018 0.802677 0.323372
C23   C     C_1   0.500047 0.499982 0.197323 0.323372
C24   C     C_R   0.203521 0.499995 0.476982 0.580793
Cu1   Cu    Cu3+1 0.500040 0.500000 0.589220 1.159554
Cu2   Cu    Cu3+1 0.499960 0.500000 0.410780 1.159554
F1    F     F_    0.966945 0.499956 0.375999 -0.572205
F2    F     F_    0.033055 0.500044 0.624001 -0.572205
F3    F     F_    0.775178 0.499812 0.115106 -0.484917
F4    F     F_    0.224822 0.500188 0.884894 -0.484917
F5    F     F_    0.775149 0.499832 0.929724 -0.485077
F6    F     F_    0.224851 0.500168 0.070276 -0.485077
H1    H     H_    0.260580 0.078254 0.514017 0.169117
H2    H     H_    0.739419 0.921746 0.485983 0.169117
I1    I     I_    0.152533 0.895298 0.520520 -0.269742
I2    I     I_    0.847467 0.104702 0.479480 -0.269742
N1    N     N_1   0.500050 0.499980 0.276720 -0.141425
N2    N     N_1   0.499950 0.500020 0.723280 -0.141426
O1    O     O_R   0.500070 0.380310 0.575330 -0.498520
O2    O     O_R   0.499930 0.619690 0.424670 -0.498520
O3    O     O_R   0.500000 0.380310 0.424640 -0.495328
O4    O     O_R   0.500000 0.619690 0.575360 -0.495328
O5    O     O_R   0.274870 0.500000 0.557960 -0.465376
O6    O     O_R   0.725130 0.500000 0.442040 -0.465376
O7    O     O_R   0.274790 0.500000 0.407270 -0.455652
O8    O     O_R   0.725210 0.500000 0.592730 -0.455652

loop_
_geom_bond_atom_site_label_1
_geom_bond_atom_site_label_2
_ccdc_geom_bond_type
Cu1   O4    S    
C12   O2    A    
C2    C4    S    
Cu2   N1    S    
C8    C13   S    
C23   N1    T    
Cu1   N2    S    
C5    C7    A    
C19   C23   S    
C12   C15   S    
Cu1   O5    S    
C6    C9    A    
C3    F1    S    
Cu2   O6    S    
C5    C10   A    
C20   F4    S    
C13   C14   T    
Cu1   O1    S    
C16   F5    S    
C7    C11   S    
Cu2   O2    S    
C3    C24   S    
C16   C21   A    
C11   C15   T    
C24   O7    A    
C5    I1    S    
C8    C10   A    
C4    F2    S    
C6    I2    S    
C10   H1    S    
C18   C20   A    
C9    H2    S    
C24   O5    A    
C1    O1    A    
C12   O4    A    
C3    C4    D    
C22   N2    T    
C17   C20   A    
C16   C18   A    
C1    O3    A    
C7    C9    A    
C17   F6    S    
C6    C8    A    
C1    C14   S    
Cu2   O7    S    
C17   C19   A    
Cu1   Cu2   S    
C18   C22   S    
C21   F3    S    
Cu1   O8    S    
C2    O8    A    
Cu2   O3    S    
C2    O6    A    
C19   C21   A    
