data_mof_unit_54218.cif
_audit_creation_date              2012-12-11T15:21:37-0500
_audit_creation_method            fapswitch 2.2
_symmetry_space_group_name_H-M    P1
_symmetry_Int_Tables_number       1
_space_group_crystal_system       triclinic
_cell_length_a                    19.153265
_cell_length_b                    7.146421
_cell_length_c                    17.694602
_cell_angle_alpha                 89.999727
_cell_angle_beta                  109.035558
_cell_angle_gamma                 89.999206
_cell_volume                      2289.5460351

loop_
_atom_site_label
_atom_site_type_symbol
_atom_type_description
_atom_site_fract_x
_atom_site_fract_y
_atom_site_fract_z
_atom_type_partial_charge
O1    O     O_R   0.562310 0.505770 0.439670 -0.537801
O2    O     O_R   0.437690 0.005770 0.560330 -0.537815
O3    O     O_R   0.411650 0.169150 0.405330 -0.539539
O4    O     O_R   0.588350 0.669150 0.594670 -0.539522
C1    C     C_R   0.384633 0.345942 0.382705 0.665069
C2    C     C_R   0.615371 0.845939 0.617289 0.665059
O5    O     O_R   0.560140 0.175610 0.430010 -0.534565
O6    O     O_R   0.439860 0.675610 0.569990 -0.534531
O7    O     O_R   0.587240 0.012100 0.585200 -0.533875
O8    O     O_R   0.412760 0.512100 0.414800 -0.533835
C3    C     C_R   0.581205 0.344648 0.415002 0.710479
C4    C     C_R   0.418792 0.844648 0.584995 0.710526
O9    O     O_3   0.508720 0.341420 0.550890 -0.372714
O10   O     O_3   0.491280 0.841420 0.449110 -0.372719
V1    V     V_3+5 0.498380 0.063930 0.490560 1.423432
V2    V     V_3+5 0.501620 0.563930 0.509440 1.423505
C5    C     C_R   0.174120 0.753789 0.868722 -0.215908
C6    C     C_R   0.825870 0.253802 0.131266 -0.215913
C7    C     C_R   0.130942 0.915211 0.865743 -0.082271
C8    C     C_R   0.869054 0.415214 0.134252 -0.082278
C9    C     C_R   0.135915 0.064669 0.815845 -0.214558
C10   C     C_R   0.864084 0.564663 0.184154 -0.214553
C11   C     C_R   0.182622 0.052996 0.769014 0.086240
C12   C     C_R   0.817372 0.552992 0.230981 0.086242
C13   C     C_R   0.225994 0.891185 0.772971 0.058163
C14   C     C_R   0.773999 0.391183 0.227021 0.058157
C15   C     C_R   0.221863 0.741427 0.823240 0.092952
C16   C     C_R   0.778128 0.241434 0.176748 0.092951
C17   C     C_R   0.186708 0.200233 0.718134 -0.175116
C18   C     C_R   0.813284 0.700232 0.281860 -0.175111
C19   C     C_R   0.234065 0.188647 0.672496 -0.164193
C20   C     C_R   0.765925 0.688649 0.327495 -0.164148
C21   C     C_R   0.277988 0.029222 0.676609 0.082604
C22   C     C_R   0.722002 0.529222 0.323381 0.082613
C23   C     C_R   0.273635 0.879156 0.726623 0.055611
C24   C     C_R   0.726358 0.379153 0.273367 0.055594
C25   C     C_R   0.316942 0.717264 0.730494 0.095574
C26   C     C_R   0.683050 0.217263 0.269495 0.095575
C27   C     C_R   0.312899 0.570078 0.781415 -0.189965
C28   C     C_R   0.687092 0.070083 0.218571 -0.189970
C29   C     C_R   0.265778 0.581982 0.827325 -0.197845
C30   C     C_R   0.734212 0.081994 0.172659 -0.197843
C31   C     C_R   0.326066 0.017310 0.631523 -0.190083
C32   C     C_R   0.673923 0.517311 0.368465 -0.190031
C33   C     C_R   0.368963 0.855620 0.634154 -0.078680
C34   C     C_R   0.631031 0.355619 0.365838 -0.078711
C35   C     C_R   0.363644 0.705630 0.683648 -0.206211
C36   C     C_R   0.636348 0.205628 0.316341 -0.206282
H1    H     H_    0.171368 0.638137 0.907307 0.124593
H2    H     H_    0.828618 0.138163 0.092675 0.124593
H3    H     H_    0.102830 0.189329 0.812693 0.133200
H4    H     H_    0.897172 0.689318 0.187311 0.133197
H5    H     H_    0.153569 0.325109 0.713974 0.145316
H6    H     H_    0.846423 0.825108 0.286022 0.145306
H7    H     H_    0.236591 0.305068 0.634244 0.166438
H8    H     H_    0.763397 0.805074 0.365747 0.166419
H9    H     H_    0.329415 0.133638 0.593609 0.159794
H10   H     H_    0.670569 0.633645 0.406375 0.159827
H11   H     H_    0.396559 0.580740 0.686601 0.127901
H12   H     H_    0.603433 0.080741 0.313387 0.127896
H13   H     H_    0.346020 0.445183 0.785540 0.131060
H14   H     H_    0.653970 0.945191 0.214443 0.131058
H15   H     H_    0.263436 0.465829 0.865799 0.128498
H16   H     H_    0.736550 0.965850 0.134180 0.128500
C37   C     C_3   0.752824 0.806309 0.836920 -0.316450
C38   C     C_3   0.247120 0.305859 0.163119 -0.316375
H17   H     H_    0.774057 0.666695 0.861841 0.143628
H18   H     H_    0.225820 0.166196 0.138317 0.143683
H19   H     H_    0.740343 0.885487 0.885136 0.128182
H20   H     H_    0.259616 0.384696 0.114824 0.128155
C39   C     C_3   0.680474 0.778837 0.765051 -0.382064
C40   C     C_3   0.319476 0.278439 0.234984 -0.382081
H21   H     H_    0.633440 0.844084 0.779173 0.135928
H22   H     H_    0.366524 0.343428 0.220798 0.135931
H23   H     H_    0.668189 0.626757 0.755693 0.142288
H24   H     H_    0.331707 0.126349 0.244438 0.142339
H25   H     H_    0.850259 0.659692 0.764983 0.136791
H26   H     H_    0.149613 0.160150 0.235195 0.136764
H27   H     H_    0.742702 0.618059 0.662633 0.118335
H28   H     H_    0.257197 0.118422 0.337512 0.118351
C41   C     C_3   0.826758 0.799276 0.742569 -0.317928
C42   C     C_3   0.173210 0.299713 0.257513 -0.318015
C43   C     C_3   0.780354 0.104539 0.777384 -0.334999
C44   C     C_3   0.219759 0.604562 0.222466 -0.334993
C45   C     C_3   0.812702 0.912479 0.811434 0.084089
C46   C     C_3   0.187306 0.412479 0.188557 0.084116
H29   H     H_    0.820853 0.182723 0.756415 0.156854
H30   H     H_    0.179307 0.683099 0.243385 0.156822
H31   H     H_    0.769527 0.190017 0.824975 0.134335
H32   H     H_    0.230630 0.689709 0.174806 0.134283
C47   C     C_3   0.687675 0.866999 0.687861 0.073958
C48   C     C_3   0.312333 0.367005 0.312131 0.073967
C49   C     C_3   0.754058 0.770781 0.670871 0.020016
C50   C     C_3   0.245915 0.271170 0.329202 0.020019
C51   C     C_3   0.707696 0.078927 0.707071 -0.272226
C52   C     C_3   0.292407 0.578942 0.292794 -0.272265
H33   H     H_    0.662311 0.149813 0.722412 0.134079
H34   H     H_    0.337826 0.649551 0.277413 0.134003
H35   H     H_    0.713068 0.151977 0.653745 0.176819
H36   H     H_    0.287061 0.652262 0.346075 0.176825
H37   H     H_    0.868846 0.873125 0.722752 0.163920
H38   H     H_    0.131187 0.373927 0.277310 0.163940
O11   O     O_R   0.087220 0.271820 0.085230 -0.540577
O12   O     O_R   0.912780 0.771820 0.914770 -0.540578
O13   O     O_R   0.939860 0.595540 0.069990 -0.541475
O14   O     O_R   0.060140 0.095540 0.930010 -0.541477
C53   C     C_R   0.918831 0.426464 0.085043 0.701371
C54   C     C_R   0.081168 0.926463 0.914955 0.701363
O15   O     O_R   0.088340 0.601930 0.094680 -0.539865
O16   O     O_R   0.911660 0.101930 0.905320 -0.539867
O17   O     O_R   0.062310 0.765410 0.939660 -0.536925
O18   O     O_R   0.937690 0.265410 0.060340 -0.536920
C55   C     C_R   0.115956 0.431885 0.117740 0.655079
C56   C     C_R   0.884048 0.931886 0.882255 0.655080
O19   O     O_3   0.991270 0.429630 0.949130 -0.371946
O20   O     O_3   0.008730 0.929630 0.050870 -0.371941
V3    V     V_3+5 0.001620 0.707150 0.009440 1.385653
V4    V     V_3+5 0.998380 0.207150 0.990560 1.385651
I1    I     I_    0.768445 0.864130 0.560751 -0.490534
I2    I     I_    0.231621 0.365041 0.439304 -0.490470

loop_
_geom_bond_atom_site_label_1
_geom_bond_atom_site_label_2
_ccdc_geom_bond_type
C43   H29   S    
C42   C50   S    
C53   O18   A    
C38   H18   S    
O1    C3    A    
C40   H24   S    
O2    C4    A    
O16   V4    S    
C2    O7    A    
O15   V3    S    
C27   C29   A    
C41   H37   S    
O5    C3    A    
C18   H6    S    
C17   H5    S    
C46   C55   S    
C11   C17   A    
C45   C56   S    
C26   C28   A    
C12   C14   A    
H27   C49   S    
C40   C48   S    
C51   H35   S    
C2    C47   S    
C48   C52   S    
C41   C49   S    
O20   V3    S    
C6    C8    A    
C44   C52   S    
C15   C29   A    
C5    C7    A    
C50   I2    S    
C38   C40   S    
O18   V4    S    
C32   H10   S    
C37   H17   S    
C52   H34   S    
C19   C21   A    
C25   C35   A    
O16   C56   A    
C26   C36   A    
O15   C55   A    
C8    C53   S    
C7    C54   S    
C28   C30   A    
C28   H14   S    
O6    V2    S    
O14   V4    S    
O13   V3    S    
C44   H32   S    
C27   H13   S    
C32   C34   A    
C36   H12   S    
C33   C35   A    
C43   H31   S    
C34   C36   A    
C39   H23   S    
C5    C15   A    
C6    C16   A    
C40   H22   S    
C5    H1    S    
C39   H21   S    
O5    V1    S    
C42   C46   S    
C35   H11   S    
C21   C31   A    
O4    V2    S    
C47   C49   S    
O13   C53   A    
H26   C42   S    
H25   C41   S    
O6    C4    A    
O19   V4    S    
C43   C51   S    
C48   C50   S    
C42   H38   S    
C22   C32   A    
O1    V2    S    
O2    V1    S    
C31   C33   A    
C13   C23   A    
O12   C56   A    
O4    C2    A    
C43   C45   S    
C8    C10   A    
C9    C11   A    
C10   C12   A    
O11   V4    S    
C29   H15   S    
H28   C50   S    
C30   H16   S    
C9    H3    S    
O3    V1    S    
C6    H2    S    
C10   H4    S    
O12   V3    S    
C14   C24   A    
O11   C55   A    
C44   H30   S    
C44   C46   S    
C4    C33   S    
O3    C1    A    
C38   C46   S    
C51   H33   S    
C37   C45   S    
C13   C15   A    
C14   C16   A    
C54   O17   A    
O17   V3    S    
C24   C26   A    
O7    V1    S    
C23   C25   A    
C17   C19   A    
C37   C39   S    
C18   C20   A    
C38   H20   S    
O14   C54   A    
C37   H19   S    
C52   H36   S    
C16   C30   A    
C21   C23   A    
C22   C24   A    
C11   C13   A    
C12   C18   A    
C1    C48   S    
C31   H9    S    
C47   C51   S    
C1    O8    A    
C39   C47   S    
C25   C27   A    
O9    V2    S    
O10   V1    S    
C3    C34   S    
O8    V2    S    
C49   I1    S    
C19   H7    S    
C20   H8    S    
C41   C45   S    
C20   C22   A    
C7    C9    A    
