data_mof_unit_63130.cif
_audit_creation_date              2012-12-10T18:24:08-0500
_audit_creation_method            fapswitch 2.2
_symmetry_space_group_name_H-M    P1
_symmetry_Int_Tables_number       1
_space_group_crystal_system       triclinic
_cell_length_a                    16.099242
_cell_length_b                    16.088036
_cell_length_c                    16.097344
_cell_angle_alpha                 96.000172
_cell_angle_beta                  84.411864
_cell_angle_gamma                 90.085383
_cell_volume                      4126.58973579

loop_
_atom_site_label
_atom_site_type_symbol
_atom_type_description
_atom_site_fract_x
_atom_site_fract_y
_atom_site_fract_z
_atom_type_partial_charge
C1    C     C_R   0.510594 0.724320 0.510851 0.507771
C2    C     C_1   0.486880 0.186122 0.482866 -0.007022
C3    C     C_1   0.514828 0.482714 0.184812 0.013855
C4    C     C_R   0.489345 0.275682 0.489167 0.506814
C5    C     C_2   0.520636 0.470571 0.018456 0.041614
C6    C     C_2   0.484119 0.531474 0.982014 0.274933
C7    C     C_1   0.485307 0.524371 0.890585 -0.092291
C8    C     C_1   0.517708 0.477447 0.109334 0.034422
C9    C     C_1   0.486760 0.518479 0.815177 -0.031065
C10   C     C_R   0.510667 0.488097 0.274602 0.504082
C11   C     C_R   0.489275 0.511935 0.725436 0.509081
C12   C     C_1   0.111340 0.522612 0.522222 -0.030673
C13   C     C_R   0.724251 0.488036 0.488104 0.502961
C14   C     C_R   0.275692 0.511917 0.511877 0.508280
C15   C     C_1   0.813567 0.483952 0.484114 0.006835
C16   C     C_2   0.978547 0.478317 0.478669 -0.114582
C17   C     C_2   0.021224 0.530407 0.529750 0.022768
C18   C     C_3   0.976300 0.595675 0.593727 -0.255219
C19   C     C_3   0.034261 0.649640 0.646387 -0.433051
C20   C     C_3   0.415869 0.018965 0.346949 -0.010790
C21   C     C_3   0.379413 0.960611 0.279504 -0.364687
C22   C     C_3   0.591083 0.980504 0.647838 -0.013580
C23   C     C_1   0.888615 0.481043 0.481293 -0.055843
C24   C     C_3   0.629419 0.038664 0.714131 -0.361947
C25   C     C_3   0.415214 0.661205 0.989900 -0.000104
C26   C     C_3   0.378206 0.732241 0.052235 -0.370279
C27   C     C_3   0.563201 0.395241 0.966046 -0.301787
C28   C     C_3   0.602702 0.333553 0.017184 -0.444266
C29   C     C_1   0.186384 0.517125 0.516921 -0.003311
C30   C     C_1   0.514536 0.813754 0.515796 -0.006874
C31   C     C_2   0.519521 0.980208 0.527423 0.291472
C32   C     C_2   0.483863 0.019548 0.469652 0.290204
C33   C     C_1   0.485326 0.110809 0.476957 -0.020329
C34   C     C_1   0.517104 0.888998 0.520790 -0.018929
H1    H     H_    0.011679 0.432083 0.433379 0.123249
H2    H     H_    0.354945 0.997579 0.232536 0.094261
H3    H     H_    0.428386 0.916782 0.247236 0.161469
H4    H     H_    0.641219 0.938218 0.614742 0.132789
H5    H     H_    0.541737 0.943442 0.680160 0.132799
H6    H     H_    0.580815 0.081437 0.748822 0.162903
H7    H     H_    0.656733 0.001456 0.759256 0.091330
H8    H     H_    0.679438 0.076269 0.683986 0.166352
H9    H     H_    0.365130 0.636004 0.951521 0.141947
H10   H     H_    0.466624 0.686995 0.948998 0.135505
H11   H     H_    0.426829 0.759232 0.091274 0.160856
H12   H     H_    0.070388 0.610055 0.682851 0.160796
H13   H     H_    0.353866 0.781983 0.017984 0.093585
H14   H     H_    0.326186 0.708764 0.093765 0.163625
H15   H     H_    0.651345 0.364982 0.053360 0.156123
H16   H     H_    0.554326 0.307308 0.060887 0.155015
H17   H     H_    0.632491 0.281252 0.974115 0.143389
H18   H     H_    0.516555 0.360998 0.929225 0.150266
H19   H     H_    0.613062 0.417564 0.921149 0.151221
H20   H     H_    0.077888 0.684723 0.605374 0.162417
H21   H     H_    0.996555 0.695329 0.691130 0.134995
H22   H     H_    0.939498 0.637652 0.560295 0.150481
H23   H     H_    0.932111 0.563599 0.637037 0.149925
H24   H     H_    0.467105 0.054879 0.316037 0.133666
H25   H     H_    0.365444 0.062304 0.377563 0.138671
H26   H     H_    0.327580 0.924141 0.308172 0.163758
O1    O     O_3   0.500000 0.500000 0.500000 -0.435258
O2    O     O_R   0.689040 0.536050 0.444000 -0.537595
O3    O     O_R   0.315570 0.560650 0.560630 -0.536696
O4    O     O_R   0.679800 0.444450 0.536560 -0.536916
O5    O     O_R   0.315590 0.458850 0.458810 -0.534104
O6    O     O_3   0.446622 0.971045 0.406173 -0.579744
O7    O     O_3   0.556651 0.028717 0.590980 -0.577252
O8    O     O_3   0.445793 0.598480 0.034411 -0.553605
O9    O     O_R   0.458170 0.444480 0.314880 -0.538464
O10   O     O_R   0.445130 0.560630 0.690220 -0.540675
O11   O     O_R   0.559450 0.679320 0.457680 -0.530760
O12   O     O_R   0.537250 0.315570 0.537220 -0.525168
O13   O     O_R   0.458120 0.689530 0.559970 -0.539474
O14   O     O_R   0.445170 0.315580 0.445130 -0.545151
O15   O     O_R   0.559480 0.536070 0.314410 -0.531270
O16   O     O_R   0.537220 0.458810 0.680490 -0.535589
Zn1   Zn    Zn3+2 0.430930 0.430930 0.430910 0.945341
Zn2   Zn    Zn3+2 0.575680 0.561790 0.430230 0.951952
Zn3   Zn    Zn3+2 0.562480 0.430910 0.562480 0.948386
Zn4   Zn    Zn3+2 0.430910 0.576380 0.576380 0.942189

loop_
_geom_bond_atom_site_label_1
_geom_bond_atom_site_label_2
_ccdc_geom_bond_type
C12   C29   T    
C24   H8    S    
O9    Zn1   S    
O16   Zn3   S    
C25   H9    S    
C11   O10   A    
C21   H2    S    
C31   O7    S    
C1    O11   A    
C20   O6    S    
O12   Zn3   S    
C11   O16   A    
C16   H1    S    
C5    C6    D    
C28   H17   S    
C14   O3    A    
O1    Zn4   S    
C22   H4    S    
C18   C19   S    
C10   O15   A    
C26   H11   S    
C5    C27   S    
C28   H16   S    
C14   O5    A    
C13   O2    A    
O1    Zn1   S    
C16   C17   D    
O14   Zn1   S    
C12   C17   S    
C4    O14   A    
C18   H22   S    
C15   C23   T    
C24   H7    S    
C25   O8    S    
C25   H10   S    
O3    Zn4   S    
C19   H12   S    
O5    Zn1   S    
C30   C34   T    
O10   Zn4   S    
C21   H26   S    
C3    C8    T    
C25   C26   S    
C2    C4    S    
C28   H15   S    
C18   H23   S    
C31   C32   D    
O1    Zn2   S    
C17   C18   S    
C31   C34   S    
C20   H25   S    
C9    C11   S    
C26   H13   S    
C2    C33   T    
C16   C23   S    
C13   C15   S    
O4    Zn3   S    
C22   C24   S    
C14   C29   S    
C20   H24   S    
C4    O12   A    
C27   H18   S    
C19   H20   S    
C32   O6    S    
C19   H21   S    
C7    C9    T    
O2    Zn2   S    
C5    C8    S    
C27   H19   S    
C6    C7    S    
C26   H14   S    
C1    O13   A    
C32   C33   S    
C3    C10   S    
C13   O4    A    
O1    Zn3   S    
C22   H5    S    
C6    O8    S    
C1    C30   S    
C24   H6    S    
O13   Zn4   S    
O15   Zn2   S    
C22   O7    S    
C10   O9    A    
C21   H3    S    
C20   C21   S    
C27   C28   S    
O11   Zn2   S    
