data_mof_unit_28226.cif
_audit_creation_date              2013-03-05T15:45:40-0500
_audit_creation_method            fapswitch 2.2
_symmetry_space_group_name_H-M    P1
_symmetry_Int_Tables_number       1
_space_group_crystal_system       triclinic
_cell_length_a                    15.021928
_cell_length_b                    11.043241
_cell_length_c                    9.829659
_cell_angle_alpha                 111.118547
_cell_angle_beta                  97.821672
_cell_angle_gamma                 91.11625
_cell_volume                      1502.83128639

loop_
_atom_site_label
_atom_site_type_symbol
_atom_site_description
_atom_site_fract_x
_atom_site_fract_y
_atom_site_fract_z
_atom_type_partial_charge
O1    O     O_R   0.508410 0.332340 0.577400 -0.583697
O2    O     O_R   0.491590 0.667660 0.422600 -0.583617
O3    O     O_R   0.481780 0.295500 0.332650 -0.566022
O4    O     O_R   0.518220 0.704500 0.667350 -0.566063
C1    C     C_R   0.493507 0.254164 0.440688 0.846822
C2    C     C_R   0.506492 0.745836 0.559312 0.846792
O5    O     O_R   0.383570 0.518390 0.622380 -0.574521
O6    O     O_R   0.616430 0.481610 0.377620 -0.574367
O7    O     O_R   0.356940 0.481550 0.377630 -0.552589
O8    O     O_R   0.643060 0.518450 0.622370 -0.552730
C3    C     C_R   0.329292 0.498879 0.501456 0.789610
C4    C     C_R   0.670707 0.501115 0.498541 0.789592
Cu1   Cu    Cu3+1 0.515770 0.521810 0.644910 0.981899
Cu2   Cu    Cu3+1 0.484230 0.478190 0.355090 0.982059
C5    C     C_R   0.815273 0.617724 0.500894 0.434762
C6    C     C_R   0.184694 0.382144 0.498719 0.434915
C7    C     C_R   0.766706 0.505188 0.495862 -0.203348
C8    C     C_R   0.233289 0.494784 0.504095 -0.203394
C9    C     C_R   0.809484 0.394223 0.491949 -0.173962
C10   C     C_R   0.190512 0.605749 0.508010 -0.174131
C11   C     C_R   0.902335 0.390612 0.494072 -0.002518
C12   C     C_R   0.097625 0.609240 0.505449 -0.002756
C13   C     C_R   0.953086 0.501841 0.499228 -0.105840
C14   C     C_R   0.046859 0.497953 0.500128 -0.105806
C15   C     C_R   0.909760 0.616469 0.502499 0.018044
C16   C     C_R   0.090177 0.383301 0.496806 0.018317
C17   C     C_R   0.944388 0.276638 0.489452 0.210473
C18   C     C_R   0.055538 0.723149 0.509845 0.210199
C19   C     C_R   0.038368 0.272751 0.492282 0.372348
C20   C     C_R   0.961532 0.726877 0.506604 0.372330
H1    H     H_    0.768746 0.310256 0.487138 0.197603
H2    H     H_    0.231288 0.689786 0.513124 0.197727
H3    H     H_    0.486095 0.864662 0.368544 0.182400
H4    H     H_    0.513902 0.135338 0.631456 0.182367
C21   C     C_2   0.489896 0.114840 0.407324 -0.304515
C22   C     C_2   0.510102 0.885160 0.592676 -0.304703
C23   C     C_2   0.501665 0.069567 0.516569 -0.110215
C24   C     C_2   0.498332 0.930433 0.483431 -0.110002
H5    H     H_    0.522380 0.951226 0.707363 0.161530
H6    H     H_    0.477619 0.048774 0.292637 0.161542
H7    H     H_    0.439994 0.417299 0.846204 0.167800
H8    H     H_    0.560006 0.582701 0.153796 0.167859
N1    N     N_2   0.460520 0.445420 0.137370 -0.280449
N2    N     N_2   0.539480 0.554580 0.862630 -0.280444
C25   C     C_2   0.507631 0.510464 0.081150 -0.051243
C26   C     C_2   0.492369 0.489536 0.918850 -0.051278
H9    H     H_    0.588775 0.622565 0.934094 0.211452
H10   H     H_    0.411224 0.377435 0.065906 0.211437
O9    O     O_3   0.772963 0.729494 0.506034 -0.633425
H11   H     H_    0.707569 0.718293 0.506075 0.308839
O10   O     O_3   0.227020 0.270400 0.493637 -0.633367
H12   H     H_    0.292484 0.281825 0.494331 0.308820
N3    N     N_R   0.891285 0.162980 0.477981 0.095138
O11   O     O_R   0.859762 0.157397 0.592646 -0.314692
O12   O     O_R   0.877967 0.062871 0.354588 -0.315950
N4    N     N_R   0.108618 0.837016 0.521828 0.095458
O13   O     O_R   0.141386 0.842210 0.407985 -0.316562
O14   O     O_R   0.120014 0.938061 0.644347 -0.314136
O15   O     O_3   0.080983 0.162367 0.491071 -0.584591
H13   H     H_    0.040280 0.101545 0.511071 0.378782
O16   O     O_3   0.918893 0.837032 0.507021 -0.584116
H14   H     H_    0.959179 0.896528 0.484199 0.378130

loop_
_geom_bond_atom_site_label_1
_geom_bond_atom_site_label_2
_geom_bond_distance
_ccdc_geom_bond_type
C4    C7    1.446018 S    
O7    Cu2   1.954201 S    
C17   N3    1.434922 S    
C3    C8    1.446030 S    
C23   C24   1.449594 S    
Cu1   Cu2   2.684626 S    
C17   C19   1.410037 A    
H4    C23   1.088070 S    
N1    C25   1.301865 D    
N1    H10   1.030631 S    
N3    O12   1.300942 A    
H3    C24   1.088070 S    
C6    O10   1.387217 S    
O6    C4    1.291849 A    
H7    C26   1.085112 S    
C9    H1    1.083959 S    
C18   C20   1.409915 A    
C21   H6    1.087509 S    
C18   N4    1.435088 S    
O15   H13   0.987676 S    
C12   C18   1.408267 A    
C25   C26   1.511232 S    
O5    C3    1.291869 A    
O7    C3    1.289747 A    
C14   C16   1.426772 A    
O2    C2    1.294565 A    
O3    Cu2   1.947948 S    
O8    C4    1.289764 A    
O1    C1    1.294564 A    
C6    C16   1.417748 A    
C1    C21   1.451221 S    
C22   C24   1.331534 D    
C9    C11   1.393681 A    
N4    O14   1.301117 A    
O8    Cu1   1.954201 S    
C8    C10   1.385456 A    
C5    O9    1.387219 S    
C11   C13   1.414454 A    
C11   C17   1.408155 A    
O16   H14   0.987882 S    
O2    Cu2   1.949626 S    
C12   C14   1.414551 A    
C5    C15   1.417701 A    
O4    C2    1.291805 A    
O1    Cu1   1.949626 S    
C10   C12   1.393677 A    
C13   C14   1.409067 A    
C7    C9    1.385477 A    
O10   H12   0.987803 S    
O5    Cu1   1.966116 S    
C13   C15   1.426715 A    
N4    O13   1.301129 A    
C16   C19   1.418644 A    
C6    C8    1.410584 A    
O9    H11   0.987782 S    
C10   H2    1.083894 S    
C20   O16   1.384758 S    
O4    Cu1   1.947947 S    
C5    C7    1.410581 A    
C22   H5    1.087510 S    
C15   C20   1.418502 A    
O6    Cu2   1.966116 S    
N2    C26   1.301864 D    
C21   C23   1.331535 D    
N3    O11   1.301010 A    
H8    C25   1.085111 S    
Cu1   N2    2.016761 S    
C19   O15   1.384898 S    
C2    C22   1.451222 S    
Cu2   N1    2.016761 S    
O3    C1    1.291804 A    
N2    H9    1.030630 S    
