data_mof_unit_67627.cif
_audit_creation_date              2013-03-05T16:14:30-0500
_audit_creation_method            fapswitch 2.2
_symmetry_space_group_name_H-M    P1
_symmetry_Int_Tables_number       1
_space_group_crystal_system       triclinic
_cell_length_a                    10.74275
_cell_length_b                    10.762289
_cell_length_c                    9.508375
_cell_angle_alpha                 89.24187
_cell_angle_beta                  87.729418
_cell_angle_gamma                 90.863324
_cell_volume                      1098.23278108

loop_
_atom_site_label
_atom_site_type_symbol
_atom_site_description
_atom_site_fract_x
_atom_site_fract_y
_atom_site_fract_z
_atom_type_partial_charge
O1    O     O_R   0.500060 0.316850 0.620870 -0.572498
O2    O     O_R   0.499940 0.683150 0.379130 -0.568316
O3    O     O_R   0.500000 0.316860 0.379090 -0.599252
O4    O     O_R   0.500000 0.683140 0.620910 -0.602705
C1    C     C_R   0.497546 0.259395 0.500703 0.832154
C2    C     C_R   0.495311 0.740294 0.500210 0.835839
O5    O     O_R   0.316880 0.499960 0.620870 -0.583506
O6    O     O_R   0.683120 0.500040 0.379130 -0.565134
O7    O     O_R   0.316830 0.499970 0.379090 -0.594785
O8    O     O_R   0.683170 0.500030 0.620910 -0.591101
C3    C     C_R   0.259895 0.496837 0.503082 0.864895
C4    C     C_R   0.740577 0.508170 0.496922 0.871718
Cu1   Cu    Cu3+1 0.500030 0.499990 0.643150 0.954653
Cu2   Cu    Cu3+1 0.499970 0.500010 0.356850 0.957190
C5    C     C_3   0.025750 0.449756 0.620529 0.429909
C6    C     C_3   0.977057 0.564651 0.379287 0.415390
C7    C     C_3   0.952538 0.393626 0.501295 0.396056
C8    C     C_3   0.051742 0.620829 0.497566 0.421738
C9    C     C_3   0.878694 0.514358 0.490838 -0.222159
C10   C     C_3   0.123364 0.499134 0.509308 -0.186939
C11   C     C_3   0.954135 0.573044 0.610915 -0.448844
C12   C     C_3   0.049775 0.443097 0.388776 -0.478457
H1    H     H_    0.912586 0.628031 0.698217 0.155896
H2    H     H_    0.094878 0.393553 0.299084 0.147705
C13   C     C_3   0.561559 0.039220 0.603297 0.556365
C14   C     C_3   0.420674 0.959800 0.401499 0.558940
C15   C     C_3   0.608327 0.958978 0.481014 -0.321938
C16   C     C_3   0.373497 0.040149 0.524894 -0.298413
H3    H     H_    0.701921 0.918676 0.477711 0.138465
H4    H     H_    0.277438 0.075788 0.539049 0.148981
C17   C     C_3   0.490286 0.877477 0.503065 -0.066077
C18   C     C_3   0.492659 0.121850 0.501378 -0.072057
C19   C     C_3   0.444430 0.956388 0.628950 -0.317679
C20   C     C_3   0.538588 0.042318 0.376228 -0.329051
H5    H     H_    0.409417 0.915551 0.730789 0.135254
H6    H     H_    0.577495 0.082293 0.275354 0.135967
C21   C     C_3   0.537162 0.604899 0.043236 0.230095
C22   C     C_3   0.461880 0.394577 0.955644 0.231402
C23   C     C_3   0.426688 0.583966 0.950144 -0.100590
C24   C     C_3   0.572530 0.415158 0.049395 -0.094137
H7    H     H_    0.366158 0.655051 0.903753 0.123890
H8    H     H_    0.633146 0.343178 0.094067 0.116085
N1    N     N_3   0.500090 0.499970 0.858290 -0.169662
N2    N     N_3   0.499910 0.500030 0.141710 -0.172002
C25   C     C_3   0.610318 0.520577 0.943044 -0.070860
C26   C     C_3   0.389080 0.478664 0.056697 -0.079120
H9    H     H_    0.702399 0.542994 0.892171 0.107138
H10   H     H_    0.296420 0.457331 0.107273 0.109411
O9    O     O_3   0.894436 0.275109 0.505750 -0.566333
C27   C     C_3   0.953202 0.198962 0.404302 0.082301
H11   H     H_    0.050815 0.179834 0.432692 0.138699
H12   H     H_    0.950775 0.240965 0.296771 0.156122
C28   C     C_3   0.882665 0.078274 0.397220 -0.838970
H13   H     H_    0.789985 0.097188 0.355855 0.265834
H14   H     H_    0.932672 0.015691 0.323576 0.183256
H15   H     H_    0.873702 0.035683 0.503991 0.265632
O10   O     O_3   0.121554 0.732943 0.492511 -0.576164
C29   C     C_3   0.045674 0.835379 0.522312 0.096861
H16   H     H_    0.944887 0.818658 0.503814 0.119414
H17   H     H_    0.078587 0.912072 0.450592 0.186307
C30   C     C_3   0.063519 0.877888 0.672443 -0.842619
H18   H     H_    0.164285 0.889347 0.691624 0.266619
H19   H     H_    0.017425 0.968283 0.689067 0.207634
H20   H     H_    0.022176 0.809063 0.748919 0.242703
O11   O     O_3   0.051631 0.388538 0.748270 -0.596731
C31   C     C_3   0.938764 0.367140 0.827766 0.117520
H21   H     H_    0.881346 0.294695 0.777956 0.208567
H22   H     H_    0.883502 0.452652 0.837376 0.134713
C32   C     C_3   0.964254 0.325715 0.977559 -0.884664
H23   H     H_    0.031775 0.390149 0.025189 0.260040
H24   H     H_    0.876179 0.325936 0.042780 0.212518
H25   H     H_    0.000550 0.230087 0.978970 0.248683
O12   O     O_3   0.949636 0.622835 0.250910 -0.599204
C33   C     C_3   0.061592 0.655960 0.175567 0.095955
H26   H     H_    0.130805 0.580521 0.175916 0.151599
H27   H     H_    0.103282 0.739893 0.222410 0.203045
C34   C     C_3   0.035628 0.683538 0.022079 -0.883920
H28   H     H_    0.994629 0.776868 0.011052 0.231965
H29   H     H_    0.123766 0.682099 0.957096 0.228697
H30   H     H_    0.970824 0.612686 0.981506 0.266029
O13   O     O_3   0.640413 0.092217 0.702022 -0.570684
C35   C     C_3   0.669222 0.002654 0.804265 0.051376
H31   H     H_    0.699727 0.913773 0.755793 0.139936
H32   H     H_    0.586706 0.985635 0.876472 0.133513
C36   C     C_3   0.774954 0.052801 0.889754 -0.825419
H33   H     H_    0.744539 0.137011 0.947134 0.240574
H34   H     H_    0.803559 0.981751 0.966681 0.213028
H35   H     H_    0.856565 0.076680 0.818979 0.256775
O14   O     O_3   0.340571 0.904890 0.305353 -0.572526
C37   C     C_3   0.350994 0.967236 0.174406 0.044679
H36   H     H_    0.449316 0.973788 0.133577 0.129594
H37   H     H_    0.311515 0.061906 0.183095 0.145113
C38   C     C_3   0.279633 0.892766 0.068849 -0.850199
H38   H     H_    0.295662 0.792171 0.085241 0.258283
H39   H     H_    0.178610 0.911710 0.081448 0.240755
H40   H     H_    0.312684 0.917516 0.960409 0.203558
C39   C     C_3   0.585147 0.734116 0.077673 -0.438098
C40   C     C_3   0.725191 0.733216 0.099897 -0.301529
C41   C     C_3   0.763182 0.826630 0.208704 -0.788482
H41   H     H_    0.714509 0.915781 0.194740 0.236948
H42   H     H_    0.741264 0.785544 0.314213 0.256373
H43   H     H_    0.864761 0.845092 0.198858 0.252075
H44   H     H_    0.753701 0.639648 0.135379 0.280992
H45   H     H_    0.775204 0.754474 0.997726 0.186657
H46   H     H_    0.568725 0.795361 0.985896 0.145922
H47   H     H_    0.530606 0.774096 0.165272 0.262064
C42   C     C_3   0.412953 0.265574 0.917731 -0.461466
C43   C     C_3   0.285584 0.271688 0.851327 -0.233270
C44   C     C_3   0.219389 0.145969 0.852644 -0.908809
H48   H     H_    0.280871 0.075879 0.804755 0.258002
H49   H     H_    0.192038 0.117846 0.962200 0.253502
H50   H     H_    0.134462 0.151229 0.790235 0.276303
H51   H     H_    0.225759 0.337914 0.909661 0.245469
H52   H     H_    0.296231 0.303474 0.740953 0.264823
H53   H     H_    0.481522 0.217277 0.849262 0.252993
H54   H     H_    0.403384 0.210670 0.017315 0.169215

loop_
_geom_bond_atom_site_label_1
_geom_bond_atom_site_label_2
_geom_bond_distance
_ccdc_geom_bond_type
C31   H22   1.105507 S    
C38   H38   1.108753 S    
C15   H3    1.100476 S    
C8    C11   1.550831 S    
O12   C33   1.413814 S    
C21   C39   1.520107 S    
O13   C35   1.406431 S    
C37   H36   1.111703 S    
C23   H7    1.109718 S    
C36   H33   1.110720 S    
C14   O14   1.409536 S    
O5    C3    1.298046 A    
C33   H27   1.108690 S    
O1    C1    1.307374 A    
C9    C11   1.560847 S    
C44   H49   1.108056 S    
C34   H30   1.108158 S    
C31   C32   1.523193 S    
C29   H17   1.108392 S    
C40   H44   1.109137 S    
C5    O11   1.413418 S    
O4    Cu1   1.979646 S    
C43   C44   1.518680 S    
C30   H19   1.108613 S    
C25   H9    1.105681 S    
C43   H52   1.100602 S    
C22   C42   1.529720 S    
C32   H24   1.110595 S    
C19   H5    1.107779 S    
C14   C20   1.545100 S    
C33   C34   1.522848 S    
C27   H12   1.113846 S    
C42   C43   1.531435 S    
C17   C19   1.545772 S    
C24   N2    1.483862 S    
C20   H6    1.109790 S    
C30   H18   1.110183 S    
C1    C18   1.480363 S    
C39   H46   1.107966 S    
C13   C18   1.526981 S    
C34   H29   1.110344 S    
C2    C17   1.478773 S    
C14   C17   1.526894 S    
C38   H39   1.109380 S    
Cu1   Cu2   2.722271 S    
C13   O13   1.409515 S    
O2    C2    1.311964 A    
N2    C26   1.482157 S    
C39   C40   1.527646 S    
C28   H14   1.107317 S    
C15   C20   1.553783 S    
C5    C10   1.543019 S    
C26   H10   1.107744 S    
C3    C10   1.466159 S    
C27   C28   1.497504 S    
C33   H26   1.109211 S    
C36   H34   1.106458 S    
C15   C17   1.536857 S    
C6    O12   1.408096 S    
C16   C18   1.549209 S    
O4    C2    1.298020 A    
C44   H50   1.109635 S    
C7    O9    1.410966 S    
C23   N1    1.479728 S    
C29   H16   1.116106 S    
C34   H28   1.108196 S    
C6    C12   1.537210 S    
C18   C20   1.544437 S    
C43   H51   1.106664 S    
C30   H20   1.106760 S    
O7    Cu2   1.970403 S    
O7    C3    1.306286 A    
C8    O10   1.410321 S    
C37   H37   1.112319 S    
C41   H41   1.108538 S    
O5    Cu1   1.987231 S    
O6    C4    1.303392 A    
C27   H11   1.114606 S    
N1    C25   1.474197 S    
C42   H53   1.104138 S    
O3    Cu2   1.979646 S    
O8    C4    1.309921 A    
C23   C26   1.548363 S    
C39   H47   1.095725 S    
C41   H42   1.106260 S    
C10   C12   1.542035 S    
C16   C19   1.558545 S    
C35   H31   1.115334 S    
C38   H40   1.105003 S    
C35   H32   1.110983 S    
C11   H1    1.109104 S    
O9    C27   1.410276 S    
C12   H2    1.110621 S    
O1    Cu1   1.985146 S    
C21   C25   1.527674 S    
Cu1   N1    2.045654 S    
C32   H25   1.106155 S    
C36   H35   1.108805 S    
C37   C38   1.516956 S    
Cu2   N2    2.045656 S    
C28   H15   1.108457 S    
C5    C7    1.530778 S    
O6    Cu2   1.987231 S    
O3    C1    1.303256 A    
O8    Cu1   1.970404 S    
C28   H13   1.105648 S    
C13   C15   1.530834 S    
C35   C36   1.519358 S    
C14   C16   1.540834 S    
C7    C12   1.548828 S    
C21   N2    1.496463 S    
C16   H4    1.110145 S    
C22   N1    1.496672 S    
C21   C23   1.524198 S    
C44   H48   1.101302 S    
C22   C24   1.529016 S    
O10   C29   1.406127 S    
C29   C30   1.523201 S    
C6    C9    1.553494 S    
C40   H45   1.110777 S    
C4    C9    1.483048 S    
C24   H8    1.110407 S    
C7    C9    1.536685 S    
C31   H21   1.109547 S    
C8    C10   1.533993 S    
O11   C31   1.417355 S    
C32   H23   1.109641 S    
O2    Cu2   1.985146 S    
C42   H54   1.109939 S    
C22   C26   1.529264 S    
C5    C11   1.547228 S    
C41   H43   1.106305 S    
C24   C25   1.548489 S    
C6    C8    1.532629 S    
C40   C41   1.515344 S    
O14   C37   1.406276 S    
C13   C19   1.540650 S    
