data_mof_unit_10870.cif
_audit_creation_date              2012-12-10T20:34:52-0500
_audit_creation_method            fapswitch 2.2
_symmetry_space_group_name_H-M    P1
_symmetry_Int_Tables_number       1
_space_group_crystal_system       triclinic
_cell_length_a                    10.634398
_cell_length_b                    10.671416
_cell_length_c                    9.925011
_cell_angle_alpha                 89.942845
_cell_angle_beta                  89.050352
_cell_angle_gamma                 90.663403
_cell_volume                      1126.09980056

loop_
_atom_site_label
_atom_site_type_symbol
_atom_type_description
_atom_site_fract_x
_atom_site_fract_y
_atom_site_fract_z
_atom_type_partial_charge
C1    C     C_R   0.496047 0.260095 0.500149 0.889717
C2    C     C_3   0.878366 0.502177 0.497633 0.108570
C3    C     C_3   0.927633 0.611501 0.586032 -0.423224
C4    C     C_3   0.930236 0.522945 0.351831 -0.488224
C5    C     C_R   0.470320 0.063532 0.622545 0.109553
C6    C     C_R   0.475758 0.128362 0.500759 -0.104245
C7    C     C_R   0.457044 0.064167 0.379377 -0.233033
C8    C     C_R   0.456427 0.934757 0.379348 -0.212937
C9    C     C_R   0.475431 0.870960 0.500714 -0.101791
C10   C     C_R   0.470250 0.935607 0.622540 0.124524
C11   C     C_3   0.554115 0.929451 0.741783 -0.477541
C12   C     C_R   0.257803 0.501500 0.499981 0.843123
C13   C     C_3   0.554279 0.071527 0.741673 -0.447591
C14   C     C_R   0.460745 0.396348 0.072795 0.119427
C15   C     C_R   0.558864 0.593458 0.068973 0.429212
C16   C     C_R   0.557810 0.592946 0.925809 -0.156935
C17   C     C_R   0.450825 0.401438 0.931847 0.181976
C18   C     C_3   0.317875 0.350047 0.942648 -0.145176
C19   C     C_3   0.339311 0.328595 0.092136 -0.502400
C20   C     C_R   0.496010 0.739791 0.500052 0.869932
C21   C     C_R   0.742033 0.501626 0.499009 0.868981
C22   C     C_3   0.070596 0.372871 0.546495 -0.476592
C23   C     C_3   0.925828 0.373397 0.550072 0.299426
C24   C     C_3   0.071619 0.609645 0.587609 -0.419282
C25   C     C_3   0.073462 0.524403 0.352125 -0.396883
C26   C     C_3   0.121202 0.502061 0.497617 0.138010
H1    H     H_    0.107830 0.347539 0.646243 0.174082
H2    H     H_    0.896386 0.613359 0.310482 0.199601
H3    H     H_    0.109822 0.701285 0.550779 0.169381
H4    H     H_    0.895999 0.702639 0.544521 0.167104
H5    H     H_    0.452579 0.112699 0.283964 0.169679
H6    H     H_    0.450683 0.886010 0.283900 0.196698
H7    H     H_    0.505204 0.888038 0.831428 0.209418
H8    H     H_    0.647660 0.889053 0.717105 0.202066
H9    H     H_    0.505663 0.112033 0.831295 0.195956
H10   H     H_    0.647889 0.113868 0.716741 0.230480
H11   H     H_    0.103551 0.298592 0.475934 0.139405
H12   H     H_    0.604035 0.668023 0.870137 0.168761
H13   H     H_    0.306377 0.260554 0.886585 0.147459
H14   H     H_    0.273586 0.375788 0.162488 0.218886
H15   H     H_    0.353531 0.228283 0.116492 0.168744
H16   H     H_    0.891907 0.298775 0.480725 0.115685
H17   H     H_    0.103398 0.598218 0.692017 0.184020
H18   H     H_    0.889861 0.605480 0.691008 0.183774
H19   H     H_    0.109428 0.615980 0.312623 0.194102
H20   H     H_    0.107187 0.449726 0.283052 0.179327
H21   H     H_    0.897081 0.446719 0.284001 0.184582
N1    N     N_R   0.499150 0.499140 0.142800 -0.166063
N2    N     N_R   0.499150 0.499180 0.857150 -0.142102
O1    O     O_R   0.500020 0.316790 0.614690 -0.606599
O2    O     O_R   0.500000 0.316760 0.385350 -0.618510
O3    O     O_R   0.314800 0.500000 0.614670 -0.633065
O4    O     O_R   0.314790 0.499960 0.385330 -0.637217
O5    O     O_R   0.500000 0.683240 0.614650 -0.628780
O6    O     O_R   0.499980 0.683210 0.385310 -0.618574
O7    O     O_R   0.685210 0.500040 0.614670 -0.578455
O8    O     O_R   0.685200 0.500000 0.385330 -0.661634
Zn1   Zn    Zn3+2 0.500010 0.500020 0.653130 0.948605
Zn2   Zn    Zn3+2 0.499990 0.499980 0.346870 0.928295
O9    O     O_3   0.622815 0.689742 0.129950 -0.785045
H22   H     H_    0.654302 0.657309 0.215787 0.374587
C27   C     C_3   0.207668 0.441503 0.920991 -0.357910
C28   C     C_3   0.223651 0.575153 0.978850 -0.314845
C29   C     C_3   0.097176 0.639936 0.998096 -0.930517
H23   H     H_    0.048551 0.650724 0.901182 0.261118
H24   H     H_    0.035263 0.585004 0.067825 0.267888
H25   H     H_    0.112499 0.734464 0.041962 0.256729
H26   H     H_    0.268864 0.573852 0.078491 0.232697
H27   H     H_    0.283843 0.632331 0.909312 0.228188
H28   H     H_    0.191651 0.448904 0.812797 0.207616
H29   H     H_    0.121546 0.396710 0.965380 0.201016
O10   O     O_3   0.877937 0.343502 0.679642 -0.765516
H30   H     H_    0.917990 0.400385 0.745702 0.342286

loop_
_geom_bond_atom_site_label_1
_geom_bond_atom_site_label_2
_ccdc_geom_bond_type
C3    H4    S    
C2    C4    S    
C18   H13   S    
C21   O8    A    
C6    C7    A    
O6    Zn2   S    
C21   O7    A    
C25   H20   S    
C11   C13   S    
C15   O9    S    
C9    C20   S    
C5    C13   S    
C12   O4    A    
C11   H8    S    
C28   H27   S    
C29   H23   S    
C2    C21   S    
O9    H22   S    
C17   C18   S    
O4    Zn2   S    
C19   H15   S    
C5    C10   A    
C4    C25   S    
C1    O2    A    
C14   C17   A    
C29   H24   S    
C3    C24   S    
C27   C28   S    
C23   H16   S    
O3    Zn1   S    
C15   N1    A    
N1    Zn2   S    
C20   O6    A    
C19   H14   S    
C14   C19   S    
C9    C10   A    
C4    H2    S    
C12   C26   S    
C24   C26   S    
C27   H29   S    
C13   H9    S    
C2    C3    S    
C22   H1    S    
O7    Zn1   S    
O5    Zn1   S    
C5    C6    A    
C3    H18   S    
O8    Zn2   S    
O2    Zn2   S    
C10   C11   S    
C22   C26   S    
C15   C16   A    
C8    H6    S    
C29   H25   S    
C25   H19   S    
C11   H7    S    
C7    H5    S    
C16   N2    A    
C27   H28   S    
C13   H10   S    
C20   O5    A    
C7    C8    A    
C1    O1    A    
C17   N2    A    
C2    C23   S    
C24   H17   S    
C18   C19   S    
C24   H3    S    
O10   H30   S    
C14   N1    A    
C1    C6    S    
C12   O3    A    
C25   C26   S    
C28   H26   S    
C22   H11   S    
C23   O10   S    
C22   C23   S    
C18   C27   S    
N2    Zn1   S    
C28   C29   S    
C16   H12   S    
C8    C9    A    
C4    H21   S    
O1    Zn1   S    
