data_mof_unit_66999.cif
_audit_creation_date              2013-03-05T15:58:13-0500
_audit_creation_method            fapswitch 2.2
_symmetry_space_group_name_H-M    P1
_symmetry_Int_Tables_number       1
_space_group_crystal_system       triclinic
_cell_length_a                    8.259513
_cell_length_b                    12.712622
_cell_length_c                    14.307591
_cell_angle_alpha                 93.004471
_cell_angle_beta                  91.039763
_cell_angle_gamma                 98.056909
_cell_volume                      1484.93096953

loop_
_atom_site_label
_atom_site_type_symbol
_atom_site_description
_atom_site_fract_x
_atom_site_fract_y
_atom_site_fract_z
_atom_type_partial_charge
P1    P     P_3+3 0.054400 0.427280 0.286870 0.507156
O1    O     O_2   0.887370 0.460630 0.272300 -0.266359
O2    O     O_3   0.129410 0.451380 0.388510 -0.403422
O3    O     O_3   0.670210 0.653170 0.329170 -0.348569
O4    O     O_2   0.776084 0.579003 0.167921 -0.323349
O5    O     O_3   0.016184 0.289559 0.263823 -0.563899
O6    O     O_3   0.731757 0.774141 0.167223 -0.468322
H1    H     H_    0.593825 0.882482 0.223706 0.123347
C1    C     C_3   0.647447 0.911437 0.078248 -0.738778
H2    H     H_    0.560548 0.970539 0.077326 0.252260
H3    H     H_    0.774158 0.953755 0.087615 0.292616
P2    P     P_3+3 0.668300 0.742890 0.573060 0.493382
P3    P     P_3+3 0.130402 0.843070 0.379637 0.525925
O7    O     O_2   0.845380 0.761330 0.544970 -0.349986
O8    O     O_3   0.088930 0.704860 0.376040 -0.359792
O9    O     O_2   0.004177 0.886195 0.443956 -0.319691
O10   O     O_3   0.685288 0.763455 0.695477 -0.596850
O11   O     O_3   0.080044 0.885150 0.269905 -0.469489
C2    C     C_3   0.203803 0.866452 0.208229 0.324513
H4    H     H_    0.216119 0.780238 0.202552 0.076109
H5    H     H_    0.321412 0.914631 0.231936 0.026736
C3    C     C_3   0.159596 0.900678 0.111934 -0.759557
H6    H     H_    0.038561 0.857488 0.088117 0.307955
H7    H     H_    0.153872 0.987576 0.114786 0.243013
C4    C     C_3   0.092553 0.775846 0.719155 0.725626
H8    H     H_    0.978905 0.733435 0.687700 0.055051
C5    C     C_3   0.060230 0.836088 0.810911 -0.113775
H9    H     H_    0.170582 0.891423 0.834527 0.169706
H10   H     H_    0.958454 0.883084 0.799984 0.141374
Ba1   Ba    Ba6+2 0.855630 0.555280 0.454520 1.676228
C6    C     C_3   0.977501 0.239838 0.346955 0.244040
H11   H     H_    0.857520 0.258889 0.369655 0.119417
H12   H     H_    0.070568 0.265041 0.403239 0.093485
C7    C     C_3   0.971169 0.120670 0.329162 0.053111
H13   H     H_    0.082271 0.102798 0.292364 0.125940
H14   H     H_    0.965463 0.080867 0.396215 0.114349
C8    C     C_3   0.664000 0.666965 0.740645 0.487709
H15   H     H_    0.781139 0.635620 0.747294 0.025201
H16   H     H_    0.576544 0.603980 0.704860 0.160956
C9    C     C_3   0.602166 0.687556 0.837962 -0.941126
H17   H     H_    0.686060 0.750716 0.877134 0.289539
H18   H     H_    0.593230 0.613090 0.875713 0.220082
H19   H     H_    0.481078 0.715190 0.833242 0.273474
P4    P     P_3+3 0.135310 0.572810 0.713130 0.544590
O12   O     O_2   0.302330 0.539400 0.727760 -0.369045
O13   O     O_3   0.060300 0.548700 0.611500 -0.312343
O14   O     O_3   0.519500 0.346920 0.670840 -0.325606
O15   O     O_3   0.210687 0.709047 0.732940 -0.561295
P5    P     P_3+3 0.060798 0.155767 0.623272 0.501316
O16   O     O_3   0.614310 0.373510 0.452640 -0.311333
O17   O     O_3   0.100780 0.295230 0.623970 -0.326521
O18   O     O_2   0.191477 0.112735 0.561956 -0.357831
O19   O     O_3   0.109495 0.119853 0.735667 -0.477034
Ba2   Ba    Ba6+2 0.334200 0.444810 0.545490 1.662010
P6    P     P_3+3 0.653034 0.649605 0.206683 0.548432
C10   C     C_3   0.605728 0.836596 0.156785 0.385303
H20   H     H_    0.485180 0.790494 0.137450 -0.028962
H21   H     H_    0.637584 0.865356 0.009846 0.214667
O20   O     O_3   0.575400 0.626570 0.547370 -0.394932
C11   C     C_3   0.447836 0.297783 0.257852 1.170294
H22   H     H_    0.347511 0.326214 0.298151 -0.158211
C12   C     C_3   0.378380 0.257118 0.160936 -0.038478
H23   H     H_    0.274374 0.192704 0.167919 0.079688
H24   H     H_    0.333361 0.322611 0.124431 0.080414
P7    P     P_3+3 0.525677 0.241204 0.422465 0.478199
O21   O     O_2   0.344320 0.238700 0.455090 -0.424932
O22   O     O_3   0.511218 0.215070 0.300963 -0.586767
H25   H     H_    0.253001 0.882436 0.061005 0.218093
C13   C     C_3   0.987693 0.145538 0.796489 0.363086
H26   H     H_    0.956152 0.226561 0.786351 0.085633
H27   H     H_    0.877451 0.085140 0.785335 0.050124
C14   C     C_3   0.048663 0.143482 0.897268 -0.860161
H28   H     H_    0.158532 0.203983 0.910612 0.289451
H29   H     H_    0.951632 0.161855 0.945767 0.229559
H30   H     H_    0.080529 0.063623 0.911068 0.256028
P8    P     P_3+3 0.534464 0.344316 0.793011 0.516679
C15   C     C_3   0.533117 0.144914 0.753984 0.508676
H31   H     H_    0.661649 0.172321 0.735503 -0.013962
O23   O     O_2   0.400755 0.405200 0.834517 -0.393239
O24   O     O_3   0.477525 0.212985 0.823152 -0.481175
H32   H     H_    0.453625 0.140151 0.689955 0.147969
H33   H     H_    0.564596 0.978700 0.735757 0.235680
C16   C     C_3   0.524761 0.034178 0.790348 -0.926021
H34   H     H_    0.397523 0.005077 0.808850 0.284181
H35   H     H_    0.605039 0.036196 0.853731 0.254653
C17   C     C_R   0.982451 0.445494 0.061547 -0.086057
C18   C     C_R   0.180684 0.497113 0.196247 0.178688
C19   C     C_R   0.335015 0.547734 0.226477 -0.426801
C20   C     C_R   0.447604 0.591600 0.163229 0.245059
C21   C     C_R   0.404313 0.591554 0.068644 -0.324770
C22   C     C_R   0.247827 0.546143 0.035748 0.089620
C23   C     C_R   0.135094 0.495265 0.098711 -0.029596
H36   H     H_    0.370969 0.548905 0.299690 0.173829
C24   C     C_R   0.053019 0.501072 0.903016 0.007432
C25   C     C_R   0.939473 0.450201 0.965933 0.061073
C26   C     C_R   0.010035 0.498901 0.805149 0.146089
C27   C     C_R   0.860821 0.439262 0.774437 0.067843
C28   C     C_R   0.741799 0.401526 0.837584 0.118900
C29   C     C_R   0.781986 0.405901 0.932958 -0.306892
C30   C     C_R   0.205353 0.549941 0.940214 -0.016569
H37   H     H_    0.492620 0.628815 0.021509 0.155135
H38   H     H_    0.691206 0.373151 0.981079 0.223185
H39   H     H_    0.895063 0.402700 0.106147 0.205882
H40   H     H_    0.292579 0.591125 0.895248 0.155661
C31   C     C_R   0.767313 0.173440 0.530861 -0.474964
C32   C     C_R   0.425375 0.814075 0.466736 -0.361035
C33   C     C_R   0.403347 0.994670 0.431100 -0.167760
C34   C     C_R   0.338274 0.887750 0.427402 0.176986
C35   C     C_R   0.573417 0.846726 0.515649 0.295072
C36   C     C_R   0.638661 0.956817 0.524059 -0.052131
C37   C     C_R   0.552881 0.031025 0.479146 0.008043
C38   C     C_R   0.618742 0.139885 0.484017 0.249395
C39   C     C_R   0.853426 0.103147 0.574928 0.163256
C40   C     C_R   0.787359 0.995352 0.574107 -0.210760
H41   H     H_    0.333426 0.048266 0.397460 0.147767
H42   H     H_    0.854783 0.943162 0.611095 0.199993
H43   H     H_    0.822747 0.254581 0.526814 0.199421
H44   H     H_    0.373246 0.730938 0.463226 0.162027
Cl1   Cl    Cl    0.010004 0.750346 0.903196 -0.741833
Cl2   Cl    Cl    0.794484 0.070380 0.260267 -0.589986
F1    F     F_    0.570760 0.381863 0.248727 -0.673707
Cl3   Cl    Cl    0.529683 0.206375 0.091042 -0.574139
Cl4   Cl    Cl    0.827832 0.403388 0.655546 -0.611256
Cl5   Cl    Cl    0.174010 0.871949 0.640566 -0.664312

loop_
_geom_bond_atom_site_label_1
_geom_bond_atom_site_label_2
_geom_bond_distance
_ccdc_geom_bond_type
P1    C18   1.862096 S    
P5    C39   1.856578 S    
C18   C19   1.395326 A    
C5    H10   1.110783 S    
C37   C38   1.411885 A    
P8    O23   1.544864 D    
O6    P6    1.751119 S    
O19   C13   1.403584 S    
H1    C10   1.107987 S    
C27   C28   1.399396 A    
P7    C38   1.843188 S    
C15   H31   1.111078 S    
Ba1   Ba2   4.566345 S    
C12   H23   1.110395 S    
P3    O11   1.746650 S    
C31   C39   1.386684 A    
C2    H5    1.110531 S    
O14   P8    1.752465 S    
P1    O1    1.513026 D    
C8    C9    1.514301 S    
C13   H26   1.113266 S    
C14   H30   1.110380 S    
O2    Ba2   2.798922 S    
C25   C29   1.405800 A    
C15   C16   1.519223 S    
P8    C28   1.852258 S    
C30   H40   1.073986 S    
C10   H20   1.104895 S    
C11   C12   1.527076 S    
C7    H13   1.111006 S    
C13   H27   1.109057 S    
C36   C37   1.428021 A    
C12   H24   1.108865 S    
P2    O20   1.589102 S    
C9    H19   1.107589 S    
C6    H11   1.103129 S    
C11   O22   1.403821 S    
P5    O17   1.756811 S    
P2    O10   1.757430 S    
C33   C34   1.387747 A    
C6    H12   1.106108 S    
C24   C30   1.405065 A    
C22   C30   1.409957 A    
C1    H2    1.109812 S    
C36   C40   1.422600 A    
C9    H18   1.108515 S    
O5    C6    1.397254 S    
Ba1   O16   2.830839 S    
C18   C23   1.436930 A    
C32   H44   1.082125 S    
C31   H43   1.073243 S    
C11   F1    1.380441 S    
O6    C10   1.405238 S    
O7    Ba1   2.873004 S    
P3    C34   1.838708 S    
C17   H39   1.080350 S    
P2    C35   1.847066 S    
C4    Cl5   1.774999 S    
P4    O13   1.568275 S    
Ba2   O20   2.830165 S    
C7    Cl2   1.769245 S    
C8    H16   1.098421 S    
P1    O5    1.747690 S    
C2    C3    1.519840 S    
C14   H29   1.110859 S    
C22   C23   1.421121 A    
O11   C2    1.399620 S    
P7    O22   1.751422 S    
C4    H8    1.091656 S    
C11   H22   1.108675 S    
P1    O2    1.568394 S    
O2    Ba1   2.921302 S    
C21   H37   1.079660 S    
C8    H15   1.101191 S    
P4    C26   1.895625 S    
C16   H34   1.105782 S    
C15   H32   1.111401 S    
P5    O18   1.543838 D    
C3    H25   1.110303 S    
Ba1   O20   2.918346 S    
O13   Ba2   2.922069 S    
C6    C7    1.516395 S    
C1    C10   1.523431 S    
O10   C8    1.407111 S    
C24   C26   1.436188 A    
C1    H3    1.110048 S    
C4    O15   1.398179 S    
C33   H41   1.078881 S    
O14   Ba2   2.788499 S    
C9    H17   1.105314 S    
C16   H35   1.110708 S    
C31   C38   1.389404 A    
P2    O7    1.513527 D    
O12   Ba2   2.846229 S    
C28   C29   1.394904 A    
P3    O8    1.740190 S    
O3    P6    1.753362 S    
C3    H7    1.110975 S    
C12   Cl3   1.783705 S    
C13   C14   1.521400 S    
P4    O12   1.513380 D    
O8    Ba1   2.804472 S    
C39   C40   1.401521 A    
C15   O24   1.406105 S    
C19   H36   1.082366 S    
C1    H21   1.109607 S    
C26   C27   1.403667 A    
P2    Ba1   3.415321 S    
C33   C37   1.409769 A    
O4    P6    1.539502 D    
P8    O24   1.748517 S    
C14   H28   1.110938 S    
C40   H42   1.077066 S    
Ba2   O21   2.873218 S    
C5    Cl1   1.774148 S    
C4    C5    1.531612 S    
Ba1   O13   2.798353 S    
O1    Ba1   2.845706 S    
O17   Ba2   2.805067 S    
C2    H4    1.113733 S    
O16   Ba2   2.917559 S    
C17   C23   1.410454 A    
C35   C36   1.425546 A    
C21   C22   1.402013 A    
C32   C34   1.393172 A    
P5    O19   1.749630 S    
P1    Ba1   3.402847 S    
C7    H14   1.106578 S    
P7    O21   1.573606 D    
C24   C25   1.424696 A    
P6    C20   1.836350 S    
O16   P7    1.765936 S    
C17   C25   1.413489 A    
P4    Ba2   3.403306 S    
C29   H38   1.082055 S    
C19   C20   1.390219 A    
C27   Cl4   1.744356 S    
H33   C16   1.110113 S    
P3    O9    1.541585 D    
C5    H9    1.106321 S    
C3    H6    1.109560 S    
C20   C21   1.393384 A    
O3    Ba1   2.789094 S    
P4    O15   1.762786 S    
C32   C35   1.397644 A    
