data_mof_unit_7354.cif
_audit_creation_date              2012-12-10T17:32:58-0500
_audit_creation_method            fapswitch 2.2
_symmetry_space_group_name_H-M    P1
_symmetry_Int_Tables_number       1
_space_group_crystal_system       triclinic
_cell_length_a                    12.381146
_cell_length_b                    13.263775
_cell_length_c                    14.272754
_cell_angle_alpha                 93.582996
_cell_angle_beta                  107.630475
_cell_angle_gamma                 116.971722
_cell_volume                      1934.9200103

loop_
_atom_site_label
_atom_site_type_symbol
_atom_type_description
_atom_site_fract_x
_atom_site_fract_y
_atom_site_fract_z
_atom_type_partial_charge
C1    C     C_R   0.649177 0.713595 0.506015 0.814052
C2    C     C_R   0.858825 0.516331 0.922247 -0.015637
C3    C     C_R   0.836237 0.570235 0.997436 0.122913
C4    C     C_R   0.973142 0.506341 0.950422 0.090585
C5    C     C_R   0.044012 0.522443 0.054144 0.080324
C6    C     C_R   0.011402 0.566837 0.127583 -0.187951
C7    C     C_R   0.911948 0.593889 0.099207 -0.168045
C8    C     C_R   0.025146 0.491707 0.878672 -0.127085
C9    C     C_R   0.134948 0.478606 0.906153 -0.197487
C10   C     C_R   0.195771 0.479239 0.006141 0.152723
C11   C     C_R   0.149480 0.499464 0.080821 0.091616
C12   C     C_R   0.615577 0.512728 0.686226 0.901339
C13   C     C_R   0.303645 0.461528 0.032825 -0.153614
C14   C     C_R   0.365051 0.462220 0.132744 -0.173648
C15   C     C_R   0.209125 0.494513 0.179637 -0.221078
C16   C     C_R   0.150707 0.962392 0.374153 -0.171091
C17   C     C_R   0.249996 0.161814 0.464698 -0.030871
C18   C     C_R   0.716272 0.921754 0.553726 -0.141781
C19   C     C_R   0.802415 0.038841 0.567410 -0.118315
C20   C     C_R   0.907941 0.072532 0.537186 -0.156998
C21   C     C_R   0.926248 0.988606 0.488086 0.097285
C22   C     C_R   0.828669 0.869794 0.462833 0.085460
C23   C     C_R   0.345471 0.285176 0.485282 0.828528
C24   C     C_R   0.037237 0.018906 0.461827 0.080203
C25   C     C_R   0.041881 0.933272 0.400946 0.164903
C26   C     C_R   0.936745 0.820196 0.365721 -0.225662
C27   C     C_R   0.830905 0.789180 0.394872 -0.183624
C28   C     C_R   0.145031 0.131647 0.495825 -0.228425
C29   C     C_R   0.254025 0.076483 0.405270 -0.155123
C30   C     C_R   0.730531 0.835944 0.504930 -0.130061
C31   C     C_R   0.246118 0.684488 0.658086 -0.297986
C32   C     C_R   0.653172 0.339295 0.365488 -0.055465
C33   C     C_R   0.729034 0.301125 0.336149 0.319430
C34   C     C_R   0.381595 0.483291 0.313227 0.780693
C35   C     C_R   0.864852 0.361811 0.385696 -0.275985
C36   C     C_R   0.925770 0.459879 0.466028 -0.054159
C37   C     C_R   0.842810 0.494264 0.493839 0.300641
C38   C     C_R   0.065134 0.524517 0.520957 0.005545
C39   C     C_R   0.114296 0.619470 0.601831 0.075395
C40   C     C_R   0.032493 0.650803 0.627901 -0.258319
C41   C     C_R   0.899995 0.589759 0.575055 -0.103073
C42   C     C_R   0.158814 0.500436 0.500617 -0.077911
C43   C     C_R   0.334664 0.659484 0.636966 0.570909
C44   C     C_R   0.681812 0.521402 0.793470 -0.176894
C45   C     C_R   0.317670 0.478549 0.206615 -0.052149
C46   C     C_R   0.738326 0.600339 0.969874 -0.181901
C47   C     C_R   0.666191 0.581217 0.868293 -0.206452
C48   C     C_R   0.765682 0.474556 0.822060 0.329168
Cu1   Cu    Cu3+1 0.416420 0.526630 0.522910 1.002902
Cu2   Cu    Cu3+1 0.583580 0.473370 0.477090 0.967284
H1    H     H_    0.893788 0.633077 0.157312 0.128944
H2    H     H_    0.340838 0.447718 0.976478 0.149843
H3    H     H_    0.334632 0.098585 0.380229 0.155490
H4    H     H_    0.936437 0.755134 0.315670 0.134838
H5    H     H_    0.154435 0.897467 0.327219 0.141501
H6    H     H_    0.149898 0.198285 0.546843 0.151281
H7    H     H_    0.639168 0.898534 0.582761 0.223765
H8    H     H_    0.970980 0.164975 0.550545 0.133672
H9    H     H_    0.789472 0.104073 0.604376 0.172481
H10   H     H_    0.749496 0.702112 0.360305 0.175160
H11   H     H_    0.170129 0.499968 0.236558 0.153463
H12   H     H_    0.071456 0.723825 0.690588 0.162264
H13   H     H_    0.281057 0.757010 0.720112 0.209261
H14   H     H_    0.128399 0.429470 0.439703 0.150678
H15   H     H_    0.548246 0.292904 0.326683 0.169213
H16   H     H_    0.920515 0.330436 0.360835 0.179177
H17   H     H_    0.845950 0.619984 0.601761 0.194505
H18   H     H_    0.449198 0.449967 0.152068 0.166178
H19   H     H_    0.171871 0.467304 0.848792 0.155679
H20   H     H_    0.721587 0.643346 0.026606 0.161235
H21   H     H_    0.596988 0.612006 0.848487 0.237058
H22   H     H_    0.066875 0.589420 0.207652 0.136176
H23   H     H_    0.984907 0.495818 0.801540 0.198800
N1    N     N_R   0.290690 0.566960 0.557640 -0.242021
N2    N     N_R   0.709100 0.433710 0.442970 -0.226369
O1    O     O_R   0.545970 0.684450 0.528810 -0.515673
O2    O     O_R   0.687130 0.639470 0.490120 -0.625837
O3    O     O_R   0.519670 0.535100 0.660030 -0.528918
O4    O     O_R   0.660830 0.490120 0.621340 -0.551038
O5    O     O_R   0.312870 0.360530 0.509880 -0.600483
O6    O     O_R   0.454030 0.315550 0.471190 -0.569457
O7    O     O_R   0.339170 0.509880 0.378660 -0.594719
O8    O     O_R   0.480330 0.464900 0.339970 -0.598163
S1    S     S_3+6 0.498642 0.759629 0.722215 0.002754
O9    O     O_2   0.522894 0.879360 0.711510 -0.287087
O10   O     O_2   0.500358 0.751689 0.827242 -0.315125
O11   O     O_3   0.626008 0.749782 0.714621 -0.544432
H24   H     H_    0.703848 0.815165 0.768459 0.365510
S2    S     S_3+6 0.653901 0.177062 0.237001 0.027822
O12   O     O_2   0.660117 0.215564 0.141067 -0.208232
O13   O     O_2   0.724594 0.109170 0.259367 -0.274240
O14   O     O_3   0.496589 0.091775 0.221325 -0.510485
H25   H     H_    0.499460 0.066533 0.285495 0.332147
S3    S     S_3+6 0.720182 0.337822 0.747572 0.013884
O15   O     O_2   0.765696 0.269975 0.813629 -0.238902
O16   O     O_2   0.573889 0.268411 0.696938 -0.286141
O17   O     O_3   0.785256 0.357592 0.657993 -0.565738
H26   H     H_    0.740331 0.279645 0.612047 0.365174

loop_
_geom_bond_atom_site_label_1
_geom_bond_atom_site_label_2
_ccdc_geom_bond_type
O11   H24   S    
C17   C29   A    
C35   C36   A    
S1    O11   S    
C4    C8    A    
Cu2   O4    S    
C32   N2    A    
O17   H26   S    
C28   H6    S    
C41   H17   S    
C6    H22   S    
C26   C27   A    
C17   C23   S    
C31   C43   A    
O14   H25   S    
C36   C37   A    
C9    H19   S    
C38   C42   A    
C3    C7    A    
C27   H10   S    
C5    C6    A    
C12   O4    A    
C40   H12   S    
Cu1   O3    S    
C18   C19   A    
C1    C30   S    
C11   C15   A    
C19   C20   A    
C8    C9    A    
C12   O3    A    
C18   C30   A    
C23   O5    A    
S2    O13   D    
C23   O6    A    
C9    C10   A    
C44   C47   A    
C43   N1    A    
C37   N2    A    
C21   C22   A    
C43   S1    S    
C1    O1    A    
C26   H4    S    
Cu2   O8    S    
C14   C45   A    
C42   N1    A    
C31   H13   S    
C24   C25   A    
C39   C40   A    
C35   H16   S    
C2    C48   A    
C16   C29   A    
Cu1   O7    S    
C2    C4    A    
C33   S2    S    
C13   H2    S    
C18   H7    S    
C15   H11   S    
Cu1   O1    S    
C34   C45   S    
S1    O9    D    
S2    O14   S    
S3    O16   D    
C47   H21   S    
C48   S3    S    
C40   C41   A    
C22   C27   A    
C34   O8    A    
C15   C45   A    
C20   H8    S    
Cu2   O2    S    
C42   H14   S    
C16   C25   A    
C46   C47   A    
C22   C30   A    
C17   C28   A    
C24   C28   A    
S1    O10   D    
C4    C5    A    
C10   C13   A    
C5    C11   A    
C6    C7    A    
C34   O7    A    
C3    C46   A    
S3    O17   S    
Cu1   O5    S    
C19   H9    S    
C32   C33   A    
C36   C38   A    
C2    C3    A    
C25   C26   A    
C16   H5    S    
C7    H1    S    
C12   C44   S    
Cu2   N2    S    
C38   C39   A    
C29   H3    S    
C8    H23   S    
C33   C35   A    
C31   C39   A    
C37   C41   A    
S3    O15   D    
C46   H20   S    
C10   C11   A    
C20   C21   A    
Cu1   Cu2   S    
C21   C24   A    
C14   H18   S    
Cu1   N1    S    
C1    O2    A    
S2    O12   D    
C13   C14   A    
C44   C48   A    
Cu2   O6    S    
C32   H15   S    
