data_mof_unit_49025.cif
_audit_creation_date              2012-12-10T18:18:18-0500
_audit_creation_method            fapswitch 2.2
_symmetry_space_group_name_H-M    P1
_symmetry_Int_Tables_number       1
_space_group_crystal_system       triclinic
_cell_length_a                    14.023063
_cell_length_b                    15.012962
_cell_length_c                    15.472974
_cell_angle_alpha                 89.73654
_cell_angle_beta                  66.589276
_cell_angle_gamma                 89.873543
_cell_volume                      2989.30229072

loop_
_atom_site_label
_atom_site_type_symbol
_atom_type_description
_atom_site_fract_x
_atom_site_fract_y
_atom_site_fract_z
_atom_type_partial_charge
C1    C     C_R   0.499793 0.673511 0.500211 0.920433
C2    C     C_R   0.499250 0.769368 0.501046 -0.100942
C3    C     C_R   0.584350 0.184696 0.505735 -0.107623
C4    C     C_R   0.414714 0.815298 0.496094 -0.128558
C5    C     C_R   0.584869 0.092431 0.506331 -0.035834
C6    C     C_R   0.413844 0.907565 0.496182 -0.027548
C7    C     C_R   0.499556 0.046358 0.501186 -0.009193
C8    C     C_R   0.499075 0.953640 0.501489 -0.007376
C9    C     C_R   0.414754 0.093008 0.495578 0.048940
C10   C     C_R   0.583940 0.906992 0.506972 0.048686
C11   C     C_R   0.668795 0.045446 0.511999 0.653689
C12   C     C_R   0.500077 0.326489 0.500051 0.908815
C13   C     C_R   0.329780 0.954552 0.490786 0.648939
C14   C     C_R   0.668092 0.952930 0.512359 -0.236133
C15   C     C_R   0.330464 0.047073 0.490461 -0.236172
C16   C     C_R   0.434192 0.501484 0.676988 0.939669
C17   C     C_R   0.565662 0.496778 0.323102 0.920058
C18   C     C_R   0.179564 0.438006 0.552291 -0.058646
C19   C     C_R   0.820247 0.562381 0.448213 -0.039071
C20   C     C_R   0.224704 0.561552 0.447570 0.708663
C21   C     C_R   0.775320 0.438416 0.552408 0.738073
C22   C     C_R   0.124516 0.563048 0.446787 -0.142803
C23   C     C_R   0.372822 0.503230 0.111167 -0.199713
C24   C     C_R   0.875364 0.437176 0.553554 -0.137965
C25   C     C_R   0.050459 0.499736 0.500422 0.005346
C26   C     C_R   0.949370 0.500579 0.500026 0.004631
C27   C     C_R   0.077635 0.435755 0.554327 -0.090130
C28   C     C_R   0.922032 0.564874 0.446516 -0.094553
C29   C     C_R   0.097192 0.626747 0.393985 -0.203751
C30   C     C_R   0.902396 0.374012 0.607096 -0.197738
C31   C     C_R   0.997055 0.628993 0.393628 0.363231
C32   C     C_R   0.002241 0.372341 0.608171 0.365098
C33   C     C_R   0.389945 0.500722 0.780480 -0.202578
C34   C     C_R   0.592534 0.403203 0.909976 -0.200933
C35   C     C_R   0.607310 0.480406 0.221077 -0.194496
C36   C     C_R   0.260344 0.536090 0.935484 -0.221499
C37   C     C_R   0.719533 0.405315 0.077970 -0.221360
C38   C     C_R   0.290699 0.535327 0.837719 0.449598
C39   C     C_R   0.699904 0.432269 0.170109 0.357416
C40   C     C_R   0.454357 0.467181 0.822406 -0.291206
C41   C     C_R   0.539834 0.501372 0.177739 -0.277515
C42   C     C_R   0.426954 0.472055 0.919430 0.099511
C43   C     C_R   0.552367 0.464878 0.091189 0.095519
C44   C     C_R   0.328622 0.508100 0.976023 0.080767
C45   C     C_R   0.300830 0.519184 0.072228 -0.144573
C46   C     C_R   0.646000 0.419731 0.039109 0.085973
C47   C     C_R   0.498060 0.448685 0.960412 0.083981
C48   C     C_R   0.474415 0.473232 0.055026 0.082079
C49   C     C_R   0.664490 0.388216 0.949388 -0.153401
C50   C     C_R   0.415693 0.185088 0.495095 -0.152889
C51   C     C_R   0.583327 0.814912 0.506811 -0.148905
C52   C     C_R   0.500106 0.230630 0.500218 -0.108899
F1    F     F_    0.297352 0.621630 0.395876 -0.665983
F2    F     F_    0.702785 0.378153 0.603870 -0.673230
F3    F     F_    0.751277 0.088823 0.517142 -0.621651
F4    F     F_    0.247292 0.911173 0.485655 -0.627459
H1    H     H_    0.224519 0.544038 0.117033 0.179314
H2    H     H_    0.790447 0.369685 0.037430 0.208063
H3    H     H_    0.345990 0.513314 0.186126 0.165984
H4    H     H_    0.611939 0.375571 0.840896 0.178282
H5    H     H_    0.350735 0.221136 0.490522 0.184979
H6    H     H_    0.648344 0.778856 0.511237 0.184542
H7    H     H_    0.649323 0.220784 0.509772 0.246186
H8    H     H_    0.349868 0.779208 0.491804 0.235246
H9    H     H_    0.733278 0.917251 0.516780 0.193553
H10   H     H_    0.265258 0.082764 0.486079 0.192749
H11   H     H_    0.880166 0.791130 0.451082 0.352042
H12   H     H_    0.735437 0.352430 0.908967 0.189767
H13   H     H_    0.114448 0.207265 0.557218 0.354155
H14   H     H_    0.866605 0.529124 0.191568 0.376964
H15   H     H_    0.225969 0.671600 0.673554 0.388695
H16   H     H_    0.204090 0.391069 0.592382 0.233066
H17   H     H_    0.795765 0.609384 0.408146 0.230287
H18   H     H_    0.154236 0.675507 0.353130 0.239325
H19   H     H_    0.845192 0.325546 0.648372 0.232829
H20   H     H_    0.475184 0.544888 0.214709 0.201973
H21   H     H_    0.529380 0.442322 0.776606 0.206459
H22   H     H_    0.185193 0.563025 0.980188 0.203537
N1    N     N_R   0.249980 0.499930 0.499960 -0.164549
N2    N     N_R   0.750020 0.500070 0.500040 -0.153194
O1    O     O_R   0.419720 0.632140 0.499980 -0.565955
O2    O     O_2   0.945725 0.672263 0.249776 -0.249405
O3    O     O_3   0.863693 0.771805 0.397449 -0.554761
O4    O     O_2   0.054919 0.334366 0.752448 -0.209499
O5    O     O_2   0.937954 0.229061 0.723854 -0.254627
O6    O     O_3   0.132460 0.228735 0.609280 -0.553512
O7    O     O_2   0.738255 0.343255 0.303462 -0.255158
O8    O     O_2   0.880117 0.350150 0.147746 -0.252669
O9    O     O_3   0.837318 0.492757 0.249786 -0.511059
O10   O     O_2   0.162790 0.512821 0.749507 -0.271570
O11   O     O_2   0.117247 0.631080 0.867333 -0.252354
O12   O     O_R   0.580280 0.367860 0.500020 -0.547074
O13   O     O_3   0.271539 0.659059 0.707352 -0.556612
O14   O     O_R   0.580270 0.632160 0.499970 -0.647018
O15   O     O_R   0.419730 0.367840 0.500030 -0.647834
O16   O     O_R   0.373870 0.499980 0.632250 -0.555042
O17   O     O_R   0.626130 0.500020 0.367750 -0.544292
O18   O     O_R   0.534420 0.500000 0.632240 -0.601263
O19   O     O_R   0.465580 0.500000 0.367760 -0.594524
O20   O     O_2   0.058723 0.776930 0.284826 -0.234960
S1    S     S_3+6 0.968622 0.714038 0.327459 0.052943
S2    S     S_3+6 0.029545 0.289712 0.677487 0.054564
S3    S     S_3+6 0.790810 0.401103 0.218205 0.065563
S4    S     S_3+6 0.205824 0.584446 0.791268 0.059943
Zn1   Zn    Zn3+2 0.392800 0.499980 0.500010 1.045785
Zn2   Zn    Zn3+2 0.607200 0.500020 0.499990 1.071344

loop_
_geom_bond_atom_site_label_1
_geom_bond_atom_site_label_2
_ccdc_geom_bond_type
O16   Zn1   S    
H11   O3    S    
C23   C45   A    
C49   H12   S    
O4    S2    D    
C2    C4    A    
O11   S4    D    
C7    C8    A    
C23   H3    S    
C46   C49   A    
C45   H1    S    
C31   S1    S    
C22   C29   A    
C24   C26   A    
C5    C11   A    
C21   F2    S    
C8    C10   A    
C11   C14   A    
C1    O1    A    
N2    Zn2   S    
N1    Zn1   S    
C1    C2    S    
C38   S4    S    
O15   Zn1   S    
C14   H9    S    
C1    O14   A    
C22   C25   A    
C50   C52   A    
C12   O15   A    
C43   C48   A    
C37   H2    S    
C13   F4    S    
C40   C42   A    
O9    S3    S    
C34   H4    S    
C41   C43   A    
C51   H6    S    
C42   C44   A    
C10   C51   A    
O13   S4    S    
C12   C52   S    
C18   H16   S    
O19   Zn1   S    
O1    Zn1   S    
C16   O16   A    
C33   C40   A    
C18   C27   A    
C19   H17   S    
C4    C6    A    
C10   C14   A    
C5    C7    A    
C18   N1    A    
C6    C8    A    
C29   H18   S    
C25   C26   A    
C15   H10   S    
C35   C39   A    
C16   C33   S    
C47   C48   A    
C19   C28   A    
C17   O19   A    
O10   S4    D    
O7    S3    D    
O17   Zn2   S    
O12   Zn2   S    
C20   C22   A    
C13   C15   A    
C32   S2    S    
C36   C44   A    
H14   O9    S    
O6    S2    S    
O8    S3    D    
C11   F3    S    
C44   C45   A    
C7    C9    A    
O14   Zn2   S    
C34   C49   A    
C23   C48   A    
O3    S1    S    
C20   N1    A    
C27   C32   A    
C12   O12   A    
C28   C31   A    
C9    C50   A    
C20   F1    S    
C3    C5    A    
C3    C52   A    
C39   S3    S    
H15   O13   S    
C3    H7    S    
C25   C27   A    
C4    H8    S    
C26   C28   A    
C33   C38   A    
O18   Zn2   S    
C36   C38   A    
C9    C15   A    
C29   C31   A    
C36   H22   S    
C41   H20   S    
C30   C32   A    
C30   H19   S    
C16   O18   A    
C21   N2    A    
O20   S1    D    
O2    S1    D    
C42   C47   A    
C19   N2    A    
C35   C41   A    
C43   C46   A    
C24   C30   A    
C2    C51   A    
O5    S2    D    
C37   C39   A    
C21   C24   A    
C50   H5    S    
C40   H21   S    
C34   C47   A    
C17   C35   S    
C37   C46   A    
C17   O17   A    
H13   O6    S    
C6    C13   A    
