data_mof_unit_37941.cif
_audit_creation_date              2012-12-10T17:34:53-0500
_audit_creation_method            fapswitch 2.2
_symmetry_space_group_name_H-M    P1
_symmetry_Int_Tables_number       1
_space_group_crystal_system       triclinic
_cell_length_a                    12.020674
_cell_length_b                    12.898811
_cell_length_c                    15.734791
_cell_angle_alpha                 90.326335
_cell_angle_beta                  86.154072
_cell_angle_gamma                 92.87045
_cell_volume                      2431.16209157

loop_
_atom_site_label
_atom_site_type_symbol
_atom_type_description
_atom_site_fract_x
_atom_site_fract_y
_atom_site_fract_z
_atom_type_partial_charge
C1    C     C_R   0.521636 0.700363 0.498450 0.882635
C2    C     C_R   0.534321 0.811582 0.496826 -0.052064
C3    C     C_R   0.649893 0.969204 0.497157 -0.229056
C4    C     C_R   0.500093 0.499758 0.661708 0.913737
C5    C     C_R   0.640313 0.861906 0.496835 -0.205146
C6    C     C_R   0.438162 0.867888 0.496055 -0.286233
C7    C     C_R   0.446875 0.974512 0.496777 0.187575
C8    C     C_R   0.553508 0.025480 0.497612 0.189566
C9    C     C_R   0.562142 0.132069 0.499318 -0.294901
C10   C     C_R   0.359959 0.138104 0.499028 -0.207072
C11   C     C_R   0.350489 0.030812 0.497332 -0.228673
C12   C     C_3   0.396335 0.532402 0.055775 -0.457770
C13   C     C_R   0.958999 0.409863 0.417126 -0.318276
C14   C     C_R   0.843221 0.418044 0.423416 0.252614
C15   C     C_R   0.856826 0.537557 0.538237 -0.088337
C16   C     C_R   0.478390 0.299632 0.500832 0.877412
C17   C     C_R   0.974914 0.532631 0.532092 0.094327
C18   C     C_R   0.025717 0.467277 0.470767 0.052150
C19   C     C_R   0.142825 0.461495 0.463649 -0.045105
C20   C     C_R   0.160361 0.583543 0.575384 0.021683
C21   C     C_R   0.043755 0.591305 0.584905 -0.326073
C22   C     C_R   0.500043 0.500397 0.338382 0.914438
C23   C     C_3   0.512128 0.499579 0.082536 0.271810
C24   C     C_3   0.395622 0.536752 0.957978 -0.410280
C25   C     C_3   0.605196 0.569117 0.943544 -0.441274
C26   C     C_3   0.601601 0.581810 0.042052 -0.126864
C27   C     C_1   0.500939 0.501399 0.249641 -0.200139
C28   C     C_3   0.506164 0.497333 0.917024 0.328547
C29   C     C_R   0.626575 0.331429 0.077778 0.124767
C30   C     C_R   0.734217 0.340958 0.035956 -0.127784
C31   C     C_R   0.823175 0.290906 0.067754 -0.148371
C32   C     C_R   0.806354 0.230734 0.141362 -0.114389
C33   C     C_R   0.700380 0.220061 0.183235 -0.130388
C34   C     C_3   0.527147 0.386455 0.046899 -0.120111
C35   C     C_R   0.611062 0.269653 0.151669 -0.186479
C36   C     C_R   0.719936 0.595155 0.073842 0.114668
C37   C     C_R   0.759543 0.538674 0.141406 -0.106771
C38   C     C_R   0.867800 0.557790 0.167138 -0.144890
C39   C     C_R   0.938143 0.634603 0.127331 -0.116789
C40   C     C_R   0.900156 0.693032 0.061953 -0.134190
C41   C     C_R   0.792134 0.674105 0.035886 -0.171945
C42   C     C_3   0.521231 0.385885 0.948467 -0.432418
C43   C     C_1   0.505438 0.501377 0.174223 -0.135161
C44   C     C_1   0.502899 0.497643 0.825763 -0.103106
C45   C     C_1   0.500828 0.498588 0.750567 -0.193086
C46   C     C_R   0.465860 0.188400 0.500055 -0.051760
H1    H     H_    0.376418 0.609805 0.082886 0.176304
H2    H     H_    0.182412 0.410919 0.416848 0.120876
H3    H     H_    0.385158 0.618046 0.937669 0.173494
H4    H     H_    0.213143 0.628741 0.616293 0.129275
H5    H     H_    0.996704 0.360101 0.368652 0.149789
H6    H     H_    0.008044 0.642678 0.632907 0.140131
H7    H     H_    0.816697 0.587475 0.585235 0.132819
H8    H     H_    0.684986 0.536507 0.918738 0.170822
H9    H     H_    0.601564 0.646925 0.913770 0.153059
H10   H     H_    0.566714 0.659015 0.056224 0.138190
H11   H     H_    0.448856 0.334578 0.931114 0.160167
H12   H     H_    0.323220 0.488413 0.936760 0.174160
H13   H     H_    0.595485 0.353120 0.914533 0.165632
H14   H     H_    0.451676 0.339175 0.071521 0.124353
H15   H     H_    0.751179 0.389287 0.980365 0.126191
H16   H     H_    0.905610 0.299755 0.035712 0.128775
H17   H     H_    0.875540 0.192647 0.166119 0.124478
H18   H     H_    0.687448 0.173695 0.240504 0.135524
H19   H     H_    0.529846 0.260985 0.185770 0.122516
H20   H     H_    0.718527 0.314744 0.390793 0.216766
H21   H     H_    0.752846 0.413301 0.318873 0.208323
H22   H     H_    0.709871 0.478494 0.174660 0.151915
H23   H     H_    0.328604 0.476549 0.081074 0.176451
H24   H     H_    0.897234 0.512803 0.218219 0.135635
H25   H     H_    0.021856 0.649213 0.147467 0.123575
H26   H     H_    0.954313 0.753426 0.031521 0.124833
H27   H     H_    0.764640 0.721732 0.985654 0.122628
H28   H     H_    0.644270 0.170769 0.500347 0.159567
H29   H     H_    0.285009 0.181397 0.499284 0.161729
H30   H     H_    0.731970 0.007987 0.497610 0.138759
H31   H     H_    0.268429 0.992046 0.496642 0.137875
H32   H     H_    0.715219 0.818638 0.497254 0.162761
H33   H     H_    0.356012 0.829104 0.495486 0.162450
N1    N     N_R   0.207800 0.519340 0.515510 -0.099729
N2    N     N_R   0.792190 0.480660 0.484490 -0.109669
N3    N     N_3   0.782480 0.361703 0.361617 -0.481730
O1    O     O_R   0.421690 0.658830 0.504140 -0.629164
O2    O     O_R   0.609320 0.646410 0.494190 -0.625169
O3    O     O_R   0.406150 0.506210 0.627840 -0.618165
O4    O     O_R   0.593770 0.493790 0.617880 -0.615178
O5    O     O_R   0.390680 0.353590 0.505810 -0.625370
O6    O     O_R   0.578310 0.341170 0.495860 -0.640786
O7    O     O_R   0.406230 0.506210 0.382120 -0.616009
O8    O     O_R   0.593850 0.493790 0.372160 -0.633293
Zn1   Zn    Zn3+2 0.374720 0.508290 0.506640 0.941305
Zn2   Zn    Zn3+2 0.625280 0.491710 0.493360 0.932106

loop_
_geom_bond_atom_site_label_1
_geom_bond_atom_site_label_2
_ccdc_geom_bond_type
C12   H23   S    
C38   H24   S    
O5    Zn1   S    
C34   C42   S    
O3    Zn1   S    
C7    C8    A    
C15   N2    A    
C1    O2    A    
C7    C11   A    
C12   C23   S    
C37   C38   A    
C13   C18   A    
C15   H7    S    
C36   C37   A    
C18   C19   A    
C30   C31   A    
C4    O4    A    
C35   H19   S    
C37   H22   S    
C23   C43   S    
C1    C2    S    
C23   C26   S    
C20   H4    S    
C11   H31   S    
C13   H5    S    
N2    Zn2   S    
O6    Zn2   S    
C8    C9    A    
C10   C46   A    
C16   O5    A    
O7    Zn1   S    
C9    C46   A    
C13   C14   A    
C34   H14   S    
C31   H16   S    
C36   C41   A    
C2    C6    A    
C12   H1    S    
C42   H11   S    
C4    C45   S    
C20   N1    A    
C24   C28   S    
C25   H8    S    
C3    C8    A    
C16   C46   S    
C39   C40   A    
C19   H2    S    
C4    O3    A    
C25   C26   S    
C29   C34   S    
C28   C44   S    
C17   C21   A    
C25   C28   S    
C29   C30   A    
H20   N3    S    
C10   H29   S    
O8    Zn2   S    
C31   C32   A    
C23   C34   S    
C17   C18   A    
C22   O8    A    
C3    H30   S    
C26   C36   S    
C40   C41   A    
C22   C27   S    
C2    C5    A    
C9    H28   S    
C14   N3    S    
C44   C45   T    
C24   H3    S    
C15   C17   A    
C12   C24   S    
C40   H26   S    
C25   H9    S    
C32   H17   S    
C3    C5    A    
C26   H10   S    
C42   H13   S    
C6    C7    A    
C1    O1    A    
O1    Zn1   S    
C29   C35   A    
C32   C33   A    
N1    Zn1   S    
O4    Zn2   S    
C6    H33   S    
C38   C39   A    
C33   H18   S    
C28   C42   S    
C33   C35   A    
C22   O7    A    
C19   N1    A    
C10   C11   A    
C41   H27   S    
C27   C43   T    
C20   C21   A    
H21   N3    S    
C24   H12   S    
C30   H15   S    
C16   O6    A    
C39   H25   S    
O2    Zn2   S    
C14   N2    A    
C5    H32   S    
C21   H6    S    
