data_mof_unit_14071.cif
_audit_creation_date              2012-12-10T18:26:48-0500
_audit_creation_method            fapswitch 2.2
_symmetry_space_group_name_H-M    P1
_symmetry_Int_Tables_number       1
_space_group_crystal_system       triclinic
_cell_length_a                    21.733743
_cell_length_b                    21.751748
_cell_length_c                    21.464509
_cell_angle_alpha                 91.383181
_cell_angle_beta                  119.569079
_cell_angle_gamma                 119.97823
_cell_volume                      7134.39085581

loop_
_atom_site_label
_atom_site_type_symbol
_atom_type_description
_atom_site_fract_x
_atom_site_fract_y
_atom_site_fract_z
_atom_type_partial_charge
C1    C     C_R   0.499757 0.413981 0.414447 0.795717
C2    C     C_R   0.775613 0.774814 0.794452 -0.208511
C3    C     C_R   0.173730 0.781683 0.113922 0.131969
C4    C     C_R   0.237965 0.773278 0.123853 -0.058951
C5    C     C_R   0.300492 0.781212 0.196890 0.104341
C6    C     C_R   0.297684 0.795929 0.259380 0.348809
C7    C     C_R   0.228662 0.797293 0.247854 0.075263
C8    C     C_R   0.307067 0.820483 0.057176 -0.226929
C9    C     C_R   0.312802 0.813239 0.996102 -0.139794
C10   C     C_R   0.251925 0.744252 0.933296 -0.015594
C11   C     C_R   0.185685 0.681726 0.933160 0.440481
C12   C     C_R   0.182322 0.687812 0.997027 -0.203393
C13   C     C_R   0.837861 0.574148 0.807289 0.276686
C14   C     C_R   0.241687 0.759258 0.058040 0.112878
C15   C     C_R   0.222530 0.756315 0.807532 0.481015
C16   C     C_R   0.227309 0.743938 0.745546 -0.393350
C17   C     C_R   0.263250 0.705954 0.742513 0.472169
C18   C     C_R   0.297743 0.683460 0.803545 -0.227082
C19   C     C_R   0.296076 0.696725 0.866708 0.177532
C20   C     C_R   0.259366 0.734303 0.869188 -0.026270
C21   C     C_R   0.821123 0.503187 0.811101 -0.244495
C22   C     C_R   0.745275 0.435162 0.748225 -0.084376
C23   C     C_R   0.682942 0.438054 0.685111 0.443420
C24   C     C_R   0.690680 0.506400 0.688390 -0.277072
C25   C     C_R   0.768397 0.575550 0.751078 -0.072193
C26   C     C_R   0.763525 0.331143 0.728043 0.165499
C27   C     C_R   0.731400 0.253903 0.715715 0.339733
C28   C     C_R   0.668419 0.206924 0.728935 0.407276
C29   C     C_R   0.619898 0.504154 0.622221 0.854136
C30   C     C_R   0.630003 0.234648 0.745704 0.161266
C31   C     C_R   0.659145 0.310118 0.754576 -0.324524
C32   C     C_R   0.726037 0.358981 0.747159 0.029041
C33   C     C_R   0.424888 0.111151 0.125737 -0.286619
C34   C     C_R   0.503382 0.133834 0.137666 -0.187133
C35   C     C_R   0.583206 0.199662 0.199791 0.440134
C36   C     C_R   0.582448 0.250048 0.241785 -0.070434
C37   C     C_R   0.502480 0.225016 0.230975 -0.126235
C38   C     C_R   0.423838 0.154052 0.174439 0.051258
C39   C     C_R   0.659314 0.323784 0.294726 0.520081
C40   C     C_R   0.499328 0.585503 0.584903 0.830227
C41   C     C_R   0.654471 0.371123 0.335044 -0.320525
C42   C     C_R   0.577567 0.344398 0.328450 0.112726
C43   C     C_R   0.501392 0.270570 0.277376 0.066552
C44   C     C_R   0.424790 0.242207 0.273709 0.062809
C45   C     C_R   0.348681 0.167991 0.222490 0.191313
C46   C     C_R   0.346412 0.126146 0.169149 0.247332
C47   C     C_R   0.576108 0.391082 0.372477 -0.217594
C48   C     C_R   0.500315 0.364320 0.367949 -0.093648
C49   C     C_R   0.425781 0.289573 0.320384 -0.201736
C50   C     C_R   0.494601 0.509743 0.251680 0.151907
C51   C     C_R   0.381525 0.499896 0.381406 0.818454
C52   C     C_R   0.444575 0.525112 0.262762 -0.336166
C53   C     C_R   0.359044 0.466754 0.236796 -0.080646
C54   C     C_R   0.322375 0.390906 0.199151 0.324184
C55   C     C_R   0.370782 0.375535 0.184666 0.342768
C56   C     C_R   0.456664 0.434381 0.210859 0.396738
C57   C     C_R   0.243731 0.489297 0.181135 0.232404
C58   C     C_R   0.189217 0.502932 0.187475 -0.172729
C59   C     C_R   0.199292 0.514849 0.258048 0.018465
C60   C     C_R   0.264352 0.515501 0.321275 -0.255304
C61   C     C_R   0.316423 0.500594 0.314555 -0.131354
C62   C     C_R   0.768083 0.749063 0.729297 -0.135036
C63   C     C_R   0.306563 0.486852 0.244748 0.049725
C64   C     C_R   0.150856 0.584628 0.291111 -0.237187
C65   C     C_R   0.088217 0.585949 0.293129 0.487254
C66   C     C_R   0.006791 0.517501 0.263889 -0.304726
C67   C     C_R   0.989907 0.447222 0.238225 0.244687
C68   C     C_R   0.055415 0.446013 0.240667 0.210990
C69   C     C_R   0.134620 0.515218 0.264188 -0.025600
C70   C     C_R   0.513435 0.813780 0.886827 -0.248804
C71   C     C_R   0.497763 0.866662 0.862815 -0.166751
C72   C     C_R   0.480307 0.872640 0.791460 0.454149
C73   C     C_R   0.769886 0.686820 0.717035 -0.193964
C74   C     C_R   0.483788 0.827526 0.746753 0.044130
C75   C     C_R   0.493710 0.770617 0.769124 -0.021147
C76   C     C_R   0.508533 0.763816 0.839539 -0.057789
C77   C     C_R   0.478866 0.839121 0.680876 -0.273066
C78   C     C_R   0.480317 0.793501 0.635503 0.250564
C79   C     C_R   0.489361 0.736259 0.657268 0.129782
C80   C     C_R   0.493050 0.722937 0.722913 -0.087892
C81   C     C_R   0.495675 0.661901 0.742168 -0.159226
C82   C     C_R   0.501099 0.650925 0.809281 0.404823
C83   C     C_R   0.517474 0.706887 0.861642 0.391551
C84   C     C_R   0.773678 0.646250 0.767290 0.032564
C85   C     C_R   0.496025 0.692832 0.615238 -0.314699
C86   C     C_R   0.498697 0.632888 0.633488 -0.171837
C87   C     C_R   0.496146 0.615519 0.695320 0.473878
C88   C     C_R   0.879529 0.381107 0.998562 0.832278
C89   C     C_R   0.882357 0.500297 0.880383 0.823022
C90   C     C_R   0.118183 0.619460 0.999418 0.811655
C91   C     C_R   0.119904 0.501072 0.119547 0.827990
C92   C     C_R   0.380906 0.879882 0.997974 0.814114
C93   C     C_R   0.501299 0.085936 0.086634 0.840615
C94   C     C_R   0.618962 0.117215 0.998896 0.850832
C95   C     C_R   0.790099 0.677533 0.837365 0.530769
C96   C     C_R   0.499920 0.915170 0.913414 0.842011
C97   C     C_R   0.761890 0.489751 0.052882 0.303691
C98   C     C_R   0.783151 0.438061 0.055814 -0.182737
C99   C     C_R   0.734368 0.374571 0.990566 0.135301
C100  C     C_R   0.663744 0.362896 0.921607 -0.104134
C101  C     C_R   0.641584 0.413445 0.917902 -0.219035
C102  C     C_R   0.688974 0.475625 0.983283 -0.156705
C103  C     C_R   0.683617 0.247822 0.999601 0.413992
C104  C     C_R   0.686739 0.184850 0.000592 -0.208706
C105  C     C_R   0.754230 0.187563 0.003342 -0.018447
C106  C     C_R   0.789728 0.740941 0.849505 -0.234148
C107  C     C_R   0.816501 0.252663 0.002767 -0.235604
C108  C     C_R   0.812512 0.314799 0.999328 -0.155962
C109  C     C_R   0.745500 0.312635 0.997698 -0.065519
C110  C     C_R   0.823252 0.120491 0.062104 0.272550
C111  C     C_R   0.829278 0.059535 0.052433 0.242865
C112  C     C_R   0.768743 0.999897 0.981172 -0.199366
C113  C     C_R   0.703895 0.001058 0.919428 -0.174955
C114  C     C_R   0.697234 0.060687 0.928362 -0.238364
C115  C     C_R   0.756831 0.120937 0.999069 0.063060
C116  C     C_R   0.165492 0.788355 0.174370 0.378190
Cu1   Cu    Cu3+1 0.561810 0.561800 0.500000 0.908395
Cu2   Cu    Cu3+1 0.438190 0.438200 0.500000 0.971316
Cu3   Cu    Cu3+1 0.999940 0.544420 0.044440 0.923848
Cu4   Cu    Cu3+1 0.000020 0.455540 0.955560 0.937213
Cu5   Cu    Cu3+1 0.561770 0.999920 0.061770 0.936909
Cu6   Cu    Cu3+1 0.438130 0.999980 0.938230 0.995519
H1    H     H_    0.775179 0.823594 0.804266 0.154926
H2    H     H_    0.627323 0.330523 0.764718 0.171523
H3    H     H_    0.365419 0.057514 0.080535 0.191435
H4    H     H_    0.711206 0.429041 0.372296 0.141498
H5    H     H_    0.634680 0.447871 0.411687 0.133723
H6    H     H_    0.367763 0.269846 0.317900 0.157027
H7    H     H_    0.762750 0.778413 0.688982 0.144227
H8    H     H_    0.472096 0.583251 0.291079 0.185490
H9    H     H_    0.272419 0.524932 0.375482 0.144707
H10   H     H_    0.211833 0.637744 0.309803 0.178498
H11   H     H_    0.771908 0.672607 0.669856 0.169875
H12   H     H_    0.956439 0.519429 0.260445 0.155057
H13   H     H_    0.525129 0.809198 0.941209 0.212851
H14   H     H_    0.473612 0.883674 0.663835 0.183253
H15   H     H_    0.496459 0.703734 0.566394 0.200181
H16   H     H_    0.668548 0.512551 0.978465 0.143945
H17   H     H_    0.835682 0.445634 0.109814 0.153227
H18   H     H_    0.623280 0.312522 0.871835 0.137721
H19   H     H_    0.586130 0.403388 0.864649 0.146520
H20   H     H_    0.867838 0.254399 0.003946 0.168107
H21   H     H_    0.802844 0.765222 0.902914 0.160024
H22   H     H_    0.772997 0.953135 0.973286 0.148969
H23   H     H_    0.659553 0.956060 0.864167 0.158806
H24   H     H_    0.646914 0.060993 0.879498 0.173818
H25   H     H_    0.353095 0.874884 0.104013 0.143244
H26   H     H_    0.204796 0.765161 0.700624 0.142188
H27   H     H_    0.327146 0.655962 0.801932 0.157196
O1    O     O_R   0.552240 0.487330 0.435160 -0.593577
O2    O     O_R   0.909830 0.372260 0.962460 -0.600349
O3    O     O_R   0.909760 0.537510 0.947350 -0.589277
O4    O     O_R   0.909840 0.462450 0.872290 -0.583172
O5    O     O_R   0.090130 0.627700 0.037540 -0.604334
O6    O     O_R   0.090200 0.552640 0.962480 -0.546495
O7    O     O_R   0.090120 0.537500 0.127710 -0.588870
O8    O     O_R   0.090190 0.462450 0.052650 -0.560049
O9    O     O_R   0.461980 0.909780 0.052210 -0.599106
O10   O     O_R   0.357580 0.909820 0.947890 -0.546551
O11   O     O_R   0.552230 0.064830 0.117080 -0.578428
O12   O     O_R   0.447840 0.382940 0.435160 -0.588908
O13   O     O_R   0.447820 0.064870 0.012750 -0.580565
O14   O     O_R   0.642320 0.090080 0.052110 -0.599742
O15   O     O_R   0.537920 0.090120 0.947790 -0.551346
O16   O     O_R   0.552080 0.935030 0.987250 -0.593533
O17   O     O_R   0.447680 0.935070 0.882920 -0.570974
O18   O     O_R   0.642380 0.552190 0.590170 -0.616876
O19   O     O_R   0.537980 0.447810 0.590180 -0.527871
O20   O     O_R   0.552160 0.617060 0.564840 -0.596703
O21   O     O_R   0.447760 0.512670 0.564840 -0.550412
O22   O     O_R   0.462020 0.552190 0.409820 -0.581094
O23   O     O_R   0.357620 0.447810 0.409830 -0.606737
O24   O     O_R   0.909760 0.447310 0.037520 -0.589851
O25   O     O_3   0.634819 0.130735 0.714839 -0.552678
C117  C     C_3   0.699293 0.123819 0.771163 -0.278796
H28   H     H_    0.735680 0.162909 0.830235 0.137710
H29   H     H_    0.745773 0.133063 0.757752 0.205651
H30   H     H_    0.666384 0.064859 0.770598 0.182620
N1    N     N_2   0.556261 0.184792 0.746430 -0.401508
H31   H     H_    0.518344 0.203126 0.738965 0.243144
C118  C     C_3   0.569356 0.149437 0.803596 -0.582428
H32   H     H_    0.544084 0.157200 0.834905 0.222495
H33   H     H_    0.639606 0.174541 0.846240 0.212638
H34   H     H_    0.532962 0.087603 0.774845 0.268953
O26   O     O_3   0.661013 0.215327 0.216979 -0.572567
C119  C     C_3   0.694533 0.191239 0.278039 -0.265502
H35   H     H_    0.710493 0.223146 0.331219 0.151429
H36   H     H_    0.755951 0.202364 0.290675 0.170614
H37   H     H_    0.648290 0.129219 0.262892 0.157051
O27   O     O_3   0.735481 0.351169 0.299910 -0.537867
C120  C     C_3   0.809847 0.388562 0.377192 -0.367424
H38   H     H_    0.796134 0.361633 0.416540 0.139987
H39   H     H_    0.837378 0.449691 0.396882 0.164075
H40   H     H_    0.860758 0.385333 0.380812 0.187164
N2    N     N_2   0.276450 0.132571 0.227539 -0.453216
H41   H     H_    0.292459 0.139856 0.282390 0.242297
C121  C     C_3   0.204772 0.136578 0.176238 -0.648394
H42   H     H_    0.190937 0.160376 0.209808 0.201301
H43   H     H_    0.145291 0.078384 0.135837 0.227372
H44   H     H_    0.219340 0.172632 0.142848 0.279602
N3    N     N_2   0.267799 0.053745 0.113169 -0.440491
H45   H     H_    0.229895 0.022056 0.131178 0.281214
C122  C     C_3   0.217129 0.055436 0.038232 -0.703793
H46   H     H_    0.189615 0.086101 0.040478 0.229266
H47   H     H_    0.162295 0.996445 0.996574 0.222954
H48   H     H_    0.258108 0.083835 0.017342 0.239108
O28   O     O_3   0.502914 0.415894 0.198067 -0.540598
C123  C     C_3   0.514564 0.444708 0.143551 -0.266006
H49   H     H_    0.575089 0.503672 0.172357 0.195648
H50   H     H_    0.457717 0.442850 0.097798 0.110822
H51   H     H_    0.522921 0.409321 0.114906 0.185032
N4    N     N_2   0.580872 0.570908 0.277921 -0.419576
H52   H     H_    0.592879 0.623719 0.286774 0.244132
C124  C     C_3   0.650722 0.571297 0.340819 -0.653438
H53   H     H_    0.714586 0.620246 0.355615 0.202765
H54   H     H_    0.644472 0.518688 0.324589 0.266184
H55   H     H_    0.650365 0.577156 0.392142 0.233319
O29   O     O_3   0.235928 0.332322 0.167602 -0.579806
C125  C     C_3   0.225799 0.313806 0.226008 -0.283225
H56   H     H_    0.283198 0.319072 0.275429 0.156485
H57   H     H_    0.210674 0.348402 0.245843 0.175663
H58   H     H_    0.168118 0.254000 0.201203 0.168549
O30   O     O_3   0.336060 0.301571 0.148508 -0.536979
C126  C     C_3   0.284426 0.283091 0.068448 -0.283047
H59   H     H_    0.323847 0.320804 0.049371 0.148334
H60   H     H_    0.227864 0.285112 0.049135 0.179330
H61   H     H_    0.257871 0.224074 0.039848 0.173853
N5    N     N_2   0.231418 0.473372 0.109370 -0.392037
H62   H     H_    0.206406 0.418074 0.083897 0.276939
C127  C     C_3   0.299324 0.530022 0.103188 -0.706707
H63   H     H_    0.271012 0.549836 0.056979 0.243019
H64   H     H_    0.326284 0.504892 0.088515 0.206975
H65   H     H_    0.354036 0.579592 0.157618 0.223859
O31   O     O_3   0.104449 0.654973 0.317620 -0.580989
C128  C     C_3   0.119310 0.667087 0.390001 -0.370031
H66   H     H_    0.139665 0.725277 0.412457 0.193023
H67   H     H_    0.173091 0.663504 0.432118 0.155773
H68   H     H_    0.058602 0.626370 0.385514 0.162861
N6    N     N_2   0.905338 0.378367 0.205301 -0.442988
H69   H     H_    0.891510 0.331209 0.173606 0.296883
C129  C     C_3   0.876667 0.362787 0.254749 -0.686356
H70   H     H_    0.811458 0.307230 0.223795 0.262686
H71   H     H_    0.870445 0.407083 0.271054 0.256379
H72   H     H_    0.923412 0.360090 0.307087 0.212269
N7    N     N_2   0.042953 0.375431 0.222996 -0.426944
H73   H     H_    0.064737 0.370532 0.191321 0.253985
C130  C     C_3   0.073151 0.353602 0.289138 -0.687862
H74   H     H_    0.144132 0.396773 0.333694 0.227348
H75   H     H_    0.062600 0.298858 0.272201 0.218872
H76   H     H_    0.037098 0.347276 0.314155 0.231148
O32   O     O_3   0.472636 0.929787 0.771303 -0.605682
C131  C     C_3   0.383546 0.898026 0.715593 -0.293953
H77   H     H_    0.352995 0.851647 0.664020 0.161557
H78   H     H_    0.378803 0.943314 0.696400 0.176298
H79   H     H_    0.345612 0.876525 0.740043 0.190773
N8    N     N_2   0.469923 0.804052 0.566630 -0.443473
H80   H     H_    0.497451 0.859865 0.569951 0.251522
C132  C     C_3   0.380805 0.753132 0.498687 -0.696381
H81   H     H_    0.338816 0.766941 0.500621 0.220350
H82   H     H_    0.354003 0.692930 0.493695 0.230682
H83   H     H_    0.379316 0.759464 0.447009 0.273933
O33   O     O_3   0.489773 0.550952 0.707138 -0.555468
C133  C     C_3   0.574120 0.568500 0.751887 -0.215446
H84   H     H_    0.568727 0.518668 0.767389 0.172629
H85   H     H_    0.618243 0.618109 0.805897 0.166439
H86   H     H_    0.602572 0.579262 0.719048 0.116726
O34   O     O_3   0.498828 0.589900 0.828281 -0.546095
C134  C     C_3   0.410332 0.527213 0.790368 -0.263011
H87   H     H_    0.373100 0.510095 0.726887 0.192993
H88   H     H_    0.376458 0.538975 0.808728 0.107775
H89   H     H_    0.408366 0.478044 0.805130 0.179797
O35   O     O_3   0.824252 0.657469 0.899883 -0.560844
C135  C     C_3   0.756351 0.594945 0.898188 -0.367295
H90   H     H_    0.786428 0.575742 0.943935 0.221875
H91   H     H_    0.709822 0.546063 0.843126 0.151812
H92   H     H_    0.722195 0.611772 0.911176 0.161518
O36   O     O_3   0.555142 0.713308 0.938017 -0.565742
C136  C     C_3   0.492146 0.658792 0.947431 -0.281906
H93   H     H_    0.424941 0.640781 0.903332 0.158506
H94   H     H_    0.509370 0.684003 0.004025 0.184929
H95   H     H_    0.493779 0.608630 0.947956 0.195889
N9    N     N_2   0.812344 0.552722 0.121269 -0.438118
H96   H     H_    0.874492 0.568520 0.162216 0.247352
C137  C     C_3   0.804723 0.615126 0.115949 -0.708707
H97   H     H_    0.852955 0.661190 0.173237 0.231517
H98   H     H_    0.738468 0.595841 0.097545 0.239193
H99   H     H_    0.817805 0.638300 0.074976 0.222997
O37   O     O_3   0.616074 0.244283 0.995265 -0.585269
C138  C     C_3   0.640415 0.267340 0.070374 -0.222521
H100  H     H_    0.697462 0.328038 0.103515 0.176201
H101  H     H_    0.655305 0.231172 0.101212 0.179385
H102  H     H_    0.584829 0.260968 0.067017 0.187734
N10   N     N_2   0.883829 0.181040 0.134503 -0.427909
H103  H     H_    0.944105 0.190926 0.166801 0.272393
C139  C     C_3   0.849790 0.177155 0.178802 -0.640321
H104  H     H_    0.903469 0.220098 0.237641 0.213393
H105  H     H_    0.819414 0.120010 0.183155 0.222797
H106  H     H_    0.801515 0.190296 0.152564 0.250110
N11   N     N_2   0.895831 0.057824 0.114436 -0.440699
H107  H     H_    0.873576 0.004564 0.118118 0.259763
C140  C     C_3   0.974009 0.091109 0.116891 -0.741325
H108  H     H_    0.959646 0.056376 0.066345 0.231864
H109  H     H_    0.025073 0.093069 0.169917 0.232071
H110  H     H_    0.999970 0.150087 0.117391 0.232031
N12   N     N_2   0.220998 0.804954 0.309413 -0.370079
H111  H     H_    0.252188 0.790412 0.353985 0.295716
C141  C     C_3   0.225030 0.870591 0.333166 -0.602073
H112  H     H_    0.281876 0.906392 0.393970 0.182654
H113  H     H_    0.164339 0.850989 0.328249 0.244944
H114  H     H_    0.232056 0.906512 0.297719 0.235764
O38   O     O_3   0.098088 0.790416 0.162470 -0.567967
C142  C     C_3   0.028338 0.716236 0.143943 -0.251527
H115  H     H_    0.046999 0.695880 0.192619 0.207264
H116  H     H_    0.004344 0.675354 0.091466 0.162445
H117  H     H_    0.973359 0.717535 0.132013 0.184674
N13   N     N_2   0.115823 0.781218 0.042124 -0.399464
H118  H     H_    0.053200 0.757189 0.026112 0.300823
C143  C     C_3   0.152465 0.851201 0.027741 -0.637042
H119  H     H_    0.141242 0.838330 0.971304 0.233979
H120  H     H_    0.119994 0.877994 0.026627 0.225182
H121  H     H_    0.224090 0.892828 0.072341 0.225398
N14   N     N_2   0.367964 0.776577 0.207884 -0.405714
H122  H     H_    0.428581 0.815954 0.258376 0.273525
C144  C     C_3   0.345995 0.700795 0.196053 -0.629294
H123  H     H_    0.335043 0.679405 0.238707 0.242282
H124  H     H_    0.401027 0.702417 0.203289 0.204907
H125  H     H_    0.286336 0.661466 0.137162 0.221982
O39   O     O_3   0.359631 0.803746 0.330734 -0.585750
C145  C     C_3   0.425144 0.881962 0.375064 -0.374131
H126  H     H_    0.399201 0.909118 0.388464 0.180881
H127  H     H_    0.455355 0.912584 0.346282 0.152353
H128  H     H_    0.477652 0.888211 0.430378 0.196911
O40   O     O_3   0.128111 0.613267 0.872271 -0.576017
C146  C     C_3   0.051639 0.606969 0.818435 -0.338002
H129  H     H_    0.010359 0.592953 0.839346 0.173020
H130  H     H_    0.013285 0.559838 0.764302 0.175233
H131  H     H_    0.066121 0.659036 0.804121 0.179955
N15   N     N_2   0.922663 0.644254 0.861786 -0.375852
H132  H     H_    0.968496 0.642407 0.908535 0.264490
C147  C     C_3   0.960511 0.699738 0.831962 -0.706984
H133  H     H_    0.029035 0.720210 0.858158 0.218025
H134  H     H_    0.961536 0.749459 0.847382 0.254796
H135  H     H_    0.923587 0.675528 0.768617 0.212026
O41   O     O_3   0.188138 0.794052 0.813206 -0.555892
C148  C     C_3   0.115034 0.776622 0.741497 -0.372339
H136  H     H_    0.070692 0.715378 0.704768 0.144788
H137  H     H_    0.136646 0.813494 0.711294 0.169592
H138  H     H_    0.076508 0.789082 0.751824 0.188326
O42   O     O_3   0.273441 0.695437 0.684952 -0.569279
C149  C     C_3   0.199357 0.673397 0.611575 -0.352669
H139  H     H_    0.201990 0.723889 0.600228 0.148779
H140  H     H_    0.136860 0.630789 0.603763 0.156591
H141  H     H_    0.200419 0.646378 0.567961 0.186999
N16   N     N_2   0.334817 0.674741 0.928690 -0.433770
H142  H     H_    0.357746 0.705617 0.981684 0.257650
C150  C     C_3   0.287408 0.593670 0.912860 -0.693489
H143  H     H_    0.328382 0.582613 0.960860 0.205908
H144  H     H_    0.271631 0.563026 0.859190 0.219572
H145  H     H_    0.226062 0.571045 0.907687 0.278563
O43   O     O_3   0.609590 0.371689 0.622512 -0.551094
C151  C     C_3   0.625793 0.365455 0.567430 -0.300184
H146  H     H_    0.644496 0.416304 0.550405 0.138386
H147  H     H_    0.564864 0.315519 0.515113 0.189918
H148  H     H_    0.677073 0.355781 0.588523 0.150979
N17   N     N_2   0.827036 0.377809 0.714051 -0.431745
H149  H     H_    0.834961 0.427308 0.706830 0.233118
C152  C     C_3   0.906862 0.382494 0.752614 -0.517346
H150  H     H_    0.964570 0.442473 0.788184 0.218356
H151  H     H_    0.911651 0.360836 0.709051 0.208931
H152  H     H_    0.909471 0.349438 0.791381 0.231220
O44   O     O_3   0.759518 0.223353 0.688081 -0.574568
C153  C     C_3   0.703200 0.194313 0.607195 -0.289313
H153  H     H_    0.704541 0.239915 0.584097 0.157033
H154  H     H_    0.634992 0.147581 0.585614 0.178314
H155  H     H_    0.726053 0.170288 0.584916 0.173206

loop_
_geom_bond_atom_site_label_1
_geom_bond_atom_site_label_2
_ccdc_geom_bond_type
N14   C144  S    
C85   H15   S    
C145  H127  S    
O30   C126  S    
C114  C115  A    
C39   C41   A    
C2    H1    S    
C122  H47   S    
N9    H96   S    
C101  C102  A    
C131  H78   S    
C137  H97   S    
C5    C6    A    
C88   C108  S    
C140  H110  S    
C135  H92   S    
C108  C109  A    
C92   O9    A    
C34   C35   A    
C40   C86   S    
C121  H43   S    
C110  C111  A    
C57   N5    S    
C19   C20   A    
C10   C20   S    
C144  H123  S    
C50   C52   A    
C82   O34   S    
C58   C91   S    
C143  H121  S    
C94   C104  S    
C59   C60   A    
N7    H73   S    
C76   C83   A    
N5    C127  S    
C104  C105  A    
C54   O29   S    
C118  H33   S    
C15   C20   A    
C151  H148  S    
C120  H38   S    
C65   O31   S    
O32   C131  S    
C147  H133  S    
C117  H29   S    
O40   C146  S    
C150  H145  S    
N13   H118  S    
C35   C36   A    
C75   C76   A    
C37   C38   A    
C117  H28   S    
C33   H3    S    
C13   C21   A    
C1    O1    A    
C148  H138  S    
C6    O39   S    
C87   O33   S    
C59   C69   S    
C134  H88   S    
C8    H25   S    
C79   C85   A    
C130  H76   S    
C133  H85   S    
C111  C112  A    
C124  H53   S    
C137  H99   S    
C4    C5    A    
C83   O36   S    
C1    C48   S    
C6    C7    A    
C33   C38   A    
C153  H155  S    
C120  H40   S    
N17   H149  S    
C146  H131  S    
C56   O28   S    
C144  H125  S    
C19   N16   S    
C152  H152  S    
C4    C14   S    
C149  H139  S    
N2    H41   S    
N4    H52   S    
C98   C99   A    
C22   C23   A    
C141  H113  S    
C119  H35   S    
C94   O14   A    
C131  H77   S    
C26   C32   A    
O42   C149  S    
C132  H82   S    
C23   O43   S    
C147  H135  S    
C97   C98   A    
C95   O35   S    
C139  H105  S    
C85   C86   A    
C153  H153  S    
C105  C107  A    
C22   C32   S    
C29   O19   A    
C12   C90   S    
C36   C37   A    
C3    C116  A    
C124  H54   S    
Cu5   O14   S    
Cu6   O15   S    
C142  H115  S    
C61   C63   A    
C129  H70   S    
Cu2   O19   S    
O25   C117  S    
C143  H120  S    
C66   H12   S    
C89   O3    A    
C47   C48   A    
N12   C141  S    
C74   C77   A    
N8    C132  S    
C107  C108  A    
C62   C73   A    
C9    C10   A    
C35   O26   S    
C66   C67   A    
C50   N4    S    
O36   C136  S    
N3    C122  S    
C9    C92   S    
O43   C151  S    
C57   C63   A    
C146  H129  S    
C123  H49   S    
C2    C106  A    
C50   C56   A    
C84   C95   A    
C7    C116  A    
N10   H103  S    
C95   C106  A    
C31   C32   A    
C128  H66   S    
C150  H144  S    
C17   C18   A    
N6    C129  S    
C64   C69   A    
C131  H79   S    
C82   C83   A    
N15   C147  S    
C141  H112  S    
C88   O2    A    
C148  H137  S    
C3    C4    A    
C52   C53   A    
Cu3   O3    S    
C49   H6    S    
C54   C55   A    
Cu4   O2    S    
Cu5   O11   S    
C105  C115  S    
C36   C39   A    
C12   C14   A    
O39   C145  S    
O34   C134  S    
C47   H5    S    
O33   C133  S    
Cu5   O16   S    
N9    C137  S    
Cu6   O13   S    
C142  H117  S    
C98   H17   S    
Cu5   O9    S    
C129  H72   S    
C137  H98   S    
C132  H81   S    
C71   C72   A    
Cu1   Cu2   S    
C125  H58   S    
C53   C63   S    
C28   O25   S    
C57   C58   A    
C141  H114  S    
C13   N15   S    
C67   N6    S    
C100  C101  A    
C135  H91   S    
C153  H154  S    
C96   O17   A    
C72   O32   S    
C121  H42   S    
C38   C46   A    
C10   C11   A    
C116  O38   S    
Cu1   O20   S    
O41   C148  S    
C7    N12   S    
C144  H124  S    
N16   H142  S    
C96   O16   A    
C21   C22   A    
N2    C121  S    
C55   C56   A    
Cu3   O7    S    
C41   C42   A    
N6    H69   S    
O38   C142  S    
O37   C138  S    
C126  H59   S    
C40   O21   A    
C106  H21   S    
C21   C89   S    
C118  H32   S    
C151  H147  S    
C26   C27   A    
O27   C120  S    
C51   O23   A    
C147  H134  S    
C31   H2    S    
C30   C31   A    
O44   C153  S    
C99   C109  S    
C138  H102  S    
N13   C143  S    
C18   C19   A    
C145  H126  S    
C113  H23   S    
C24   C29   S    
C40   O20   A    
C64   H10   S    
C16   C17   A    
C136  H95   S    
Cu6   O10   S    
C70   C71   A    
C77   H14   S    
C90   O5    A    
C97   C102  A    
C130  H75   S    
N14   H122  S    
C1    O12   A    
C60   H9    S    
C110  N10   S    
C117  H30   S    
C140  H109  S    
C122  H48   S    
C67   C68   A    
C72   C74   A    
C125  H56   S    
C86   C87   A    
C71   C96   S    
C149  H141  S    
C58   C59   A    
C53   C54   A    
O28   C123  S    
C60   C61   A    
C27   O44   S    
C37   C43   A    
C121  H44   S    
N11   H107  S    
C120  H39   S    
Cu1   O22   S    
Cu2   O23   S    
C130  H74   S    
C152  H151  S    
C149  H140  S    
Cu5   Cu6   S    
C81   C87   A    
C48   C49   A    
N4    C124  S    
Cu3   O5    S    
C111  N11   S    
N7    C130  S    
C70   H13   S    
O31   C128  S    
C119  H36   S    
C126  H61   S    
C94   O15   A    
C139  H104  S    
C44   C45   A    
C55   O30   S    
C113  C114  A    
C118  H34   S    
C11   O40   S    
C41   H4    S    
C140  H108  S    
Cu3   Cu4   S    
C68   N7    S    
C103  C109  A    
C78   N8    S    
C64   C65   A    
C29   O18   A    
C119  H37   S    
Cu3   O24   S    
O26   C119  S    
C93   O13   A    
Cu1   O18   S    
C123  H51   S    
C51   O22   A    
C142  H116  S    
Cu4   O6    S    
C127  H63   S    
C103  O37   S    
C91   O8    A    
N1    H31   S    
C91   O7    A    
C134  H87   S    
N12   H111  S    
C103  C104  A    
C15   O41   S    
C110  C115  A    
C44   C49   A    
C45   N2    S    
C133  H86   S    
C122  H46   S    
Cu2   O12   S    
Cu6   O17   S    
C93   O11   A    
N3    H45   S    
C152  H150  S    
C51   C61   S    
C34   C93   S    
C43   C44   A    
C81   C82   A    
C26   N17   S    
C92   O10   A    
N17   C152  S    
C146  H130  S    
C17   O42   S    
Cu2   O21   S    
C15   C16   A    
C127  H65   S    
C102  H16   S    
Cu4   O4    S    
C100  H18   S    
C68   C69   A    
C101  H19   S    
C8    C9    A    
C25   C84   S    
C30   N1    S    
Cu1   O1    S    
C18   H27   S    
C75   C80   A    
C5    N14   S    
C73   C84   A    
C77   C78   A    
C128  H67   S    
C62   H7    S    
C13   C25   A    
C112  C113  A    
C139  H106  S    
C46   N3    S    
C74   C75   A    
C24   C25   A    
C114  H24   S    
C39   O27   S    
C78   C79   A    
C88   O24   A    
C129  H71   S    
C127  H64   S    
C143  H119  S    
C128  H68   S    
C125  H57   S    
C89   O4    A    
C99   C100  A    
C134  H89   S    
C23   C24   A    
N8    H80   S    
C33   C34   A    
C107  H20   S    
N11   C140  S    
C73   H11   S    
C65   C66   A    
N16   C150  S    
C70   C76   A    
C145  H128  S    
C136  H94   S    
C132  H83   S    
O35   C135  S    
C138  H100  S    
C8    C14   A    
C136  H93   S    
C80   C81   A    
C124  H55   S    
C126  H60   S    
C11   C12   A    
C151  H146  S    
C16   H26   S    
C52   H8    S    
C3    N13   S    
C112  H22   S    
C28   C30   A    
C90   O6    A    
N10   C139  S    
C97   N9    S    
O29   C125  S    
Cu4   O8    S    
C133  H84   S    
C150  H143  S    
C138  H101  S    
C42   C47   A    
N5    H62   S    
C79   C80   A    
C45   C46   A    
C123  H50   S    
N15   H132  S    
C42   C43   A    
C27   C28   A    
C148  H136  S    
C2    C62   A    
N1    C118  S    
C135  H90   S    
