data_mof_unit_44072.cif
_audit_creation_date              2012-12-10T19:08:05-0500
_audit_creation_method            fapswitch 2.2
_symmetry_space_group_name_H-M    P1
_symmetry_Int_Tables_number       1
_space_group_crystal_system       triclinic
_cell_length_a                    9.053532
_cell_length_b                    10.852084
_cell_length_c                    9.571429
_cell_angle_alpha                 90.590827
_cell_angle_beta                  90.090086
_cell_angle_gamma                 91.152675
_cell_volume                      940.148155648

loop_
_atom_site_label
_atom_site_type_symbol
_atom_type_description
_atom_site_fract_x
_atom_site_fract_y
_atom_site_fract_z
_atom_type_partial_charge
C1    C     C_R   0.497350 0.262562 0.499290 0.797505
C2    C     C_R   0.517778 0.935250 0.374148 -0.177479
C3    C     C_R   0.484701 0.870881 0.497613 -0.069523
C4    C     C_R   0.429579 0.937299 0.611205 0.109480
C5    C     C_3   0.460560 0.932647 0.764175 -0.535529
C6    C     C_3   0.461240 0.073121 0.765058 -0.202252
C7    C     C_R   0.623273 0.536178 0.074645 0.223997
C8    C     C_R   0.383973 0.452224 0.073452 -0.044134
C9    C     C_R   0.383833 0.452400 0.924974 -0.024073
C10   C     C_R   0.624733 0.535907 0.926989 0.246667
C11   C     C_3   0.701133 0.660955 0.926611 -0.260982
C12   C     C_R   0.220755 0.498414 0.499835 0.836870
C13   C     C_3   0.699990 0.658044 0.087049 -0.289793
C14   C     C_R   0.497258 0.737688 0.500254 0.790701
C15   C     C_R   0.779152 0.498774 0.500040 0.864324
C16   C     C_1   0.065506 0.496857 0.499569 -0.198935
C17   C     C_1   0.934269 0.497157 0.499893 -0.138930
C18   C     C_R   0.431610 0.064200 0.611121 0.049935
C19   C     C_R   0.484447 0.129583 0.496045 -0.072585
C20   C     C_R   0.517177 0.063728 0.373170 -0.183872
Cu1   Cu    Cu3+1 0.499990 0.499980 0.640670 0.955545
Cu2   Cu    Cu3+1 0.500010 0.500020 0.359330 0.969936
H1    H     H_    0.550727 0.110932 0.278855 0.181523
H2    H     H_    0.623400 0.729639 0.887954 0.171301
H3    H     H_    0.627631 0.729464 0.132353 0.139624
H4    H     H_    0.551817 0.887384 0.280402 0.163020
H5    H     H_    0.367363 0.890837 0.823802 0.192109
H6    H     H_    0.569989 0.894305 0.784915 0.196608
H7    H     H_    0.366657 0.111978 0.823684 0.147249
H8    H     H_    0.288915 0.414904 0.127941 0.146750
H9    H     H_    0.288730 0.415144 0.869348 0.141131
N1    N     N_R   0.500920 0.500930 0.147930 -0.206857
N2    N     N_R   0.500930 0.500890 0.852020 -0.192813
O1    O     O_R   0.500000 0.319640 0.618810 -0.572176
O2    O     O_R   0.500020 0.319680 0.381230 -0.580041
O3    O     O_R   0.288380 0.499980 0.618770 -0.591851
O4    O     O_R   0.288400 0.500020 0.381190 -0.587164
O5    O     O_R   0.499980 0.680320 0.618770 -0.588974
O6    O     O_R   0.500000 0.680360 0.381190 -0.587590
O7    O     O_R   0.711600 0.499980 0.618810 -0.589205
O8    O     O_R   0.711620 0.500020 0.381230 -0.559851
C21   C     C_2   0.845709 0.648924 0.162781 0.902991
O9    O     O_2   0.883062 0.729763 0.246205 -0.610465
O10   O     O_R   0.937058 0.548367 0.138569 -0.780828
H10   H     H_    0.032530 0.554455 0.193863 0.330557
C22   C     C_2   0.608936 0.130615 0.805063 0.915767
O11   O     O_2   0.721384 0.102692 0.742446 -0.609291
O12   O     O_R   0.615849 0.216421 0.914799 -0.769762
H11   H     H_    0.719781 0.249729 0.932040 0.330147
C23   C     C_3   0.855158 0.667796 0.854122 -0.312984
C24   C     C_3   0.860741 0.767022 0.740695 -0.352256
C25   C     C_3   0.018338 0.792177 0.690052 -0.795782
H12   H     H_    0.085519 0.835798 0.774985 0.243916
H13   H     H_    0.071301 0.705619 0.657118 0.252743
H14   H     H_    0.016587 0.855841 0.600010 0.264670
H15   H     H_    0.790326 0.738244 0.650766 0.236296
H16   H     H_    0.818781 0.854919 0.783882 0.242430
H17   H     H_    0.943901 0.693322 0.929234 0.219420
H18   H     H_    0.884364 0.576942 0.808827 0.222768

loop_
_geom_bond_atom_site_label_1
_geom_bond_atom_site_label_2
_ccdc_geom_bond_type
C7    C10   A    
C20   H1    S    
C24   H16   S    
C14   O5    A    
C5    H6    S    
Cu2   N1    S    
C19   C20   A    
Cu1   O1    S    
C25   H14   S    
C4    C18   A    
C23   C24   S    
C8    N1    A    
C8    H8    S    
C2    H4    S    
C11   C23   S    
Cu1   Cu2   S    
C25   H12   S    
C4    C5    S    
C9    N2    A    
Cu2   O2    S    
C11   C13   S    
C13   H3    S    
C16   C17   T    
C3    C14   S    
C21   O10   S    
C23   H18   S    
C13   C21   S    
C25   H13   S    
C1    O1    A    
C2    C3    A    
C10   N2    A    
C5    C6    S    
C6    C18   S    
C22   O12   S    
C15   O7    A    
C1    C19   S    
Cu2   O8    S    
C12   O3    A    
C10   C11   S    
C9    H9    S    
C2    C20   A    
C3    C4    A    
C23   H17   S    
C12   C16   S    
C11   H2    S    
C7    C13   S    
C6    H7    S    
Cu1   N2    S    
O10   H10   S    
C15   O8    A    
C24   H15   S    
C21   O9    D    
C12   O4    A    
C15   C17   S    
C18   C19   A    
C22   O11   D    
O12   H11   S    
C7    N1    A    
C6    C22   S    
C1    O2    A    
C14   O6    A    
C5    H5    S    
Cu2   O4    S    
Cu2   O6    S    
Cu1   O3    S    
Cu1   O5    S    
C24   C25   S    
C8    C9    A    
Cu1   O7    S    
