data_mof_unit_33326.cif
_audit_creation_date              2012-12-10T17:13:35-0500
_audit_creation_method            fapswitch 2.2
_symmetry_space_group_name_H-M    P1
_symmetry_Int_Tables_number       1
_space_group_crystal_system       triclinic
_cell_length_a                    10.747732
_cell_length_b                    12.93987
_cell_length_c                    11.726753
_cell_angle_alpha                 98.933666
_cell_angle_beta                  93.2822
_cell_angle_gamma                 90.787976
_cell_volume                      1608.0380194

loop_
_atom_site_label
_atom_site_type_symbol
_atom_type_description
_atom_site_fract_x
_atom_site_fract_y
_atom_site_fract_z
_atom_type_partial_charge
C1    C     C_R   0.501740 0.299755 0.479407 0.788253
C2    C     C_3   0.878232 0.501416 0.499508 0.064515
C3    C     C_3   0.932898 0.615265 0.503479 -0.028773
C4    C     C_3   0.920928 0.427572 0.392427 -0.382083
C5    C     C_R   0.518322 0.812167 0.530872 -0.030923
C6    C     C_R   0.499947 0.186764 0.468780 -0.079206
C7    C     C_R   0.389084 0.025532 0.391399 -0.225144
C8    C     C_R   0.404692 0.132309 0.396658 -0.239077
C9    C     C_R   0.586218 0.133674 0.533428 0.076301
C10   C     C_R   0.563184 0.026149 0.535537 0.158873
C11   C     C_R   0.465489 0.972490 0.461820 0.142363
C12   C     C_R   0.259966 0.497892 0.500749 0.773231
C13   C     C_R   0.445283 0.865775 0.458870 -0.283685
C14   C     C_R   0.610730 0.864459 0.607769 -0.208221
C15   C     C_R   0.633747 0.970457 0.609820 -0.221834
C16   C     C_R   0.371110 0.412239 0.026955 -0.344286
C17   C     C_R   0.386019 0.418146 0.147407 -0.025271
C18   C     C_R   0.552364 0.542169 0.155414 0.665689
C19   C     C_R   0.546615 0.532167 0.032230 -0.073876
C20   C     C_R   0.454496 0.466272 0.967268 -0.088338
C21   C     C_R   0.448681 0.456693 0.844065 0.678693
C22   C     C_R   0.614394 0.581361 0.852476 -0.035595
C23   C     C_R   0.503753 0.700183 0.520540 0.787111
C24   C     C_R   0.630081 0.586241 0.972653 -0.330105
C25   C     C_R   0.740052 0.499840 0.499513 0.753252
C26   C     C_3   0.076951 0.466014 0.616850 0.393069
C27   C     C_3   0.933005 0.459668 0.609128 -0.479250
C28   C     C_3   0.075919 0.609590 0.491071 -0.339435
C29   C     C_3   0.063716 0.420384 0.398502 -0.504300
C30   C     C_3   0.122092 0.498521 0.502730 0.052170
Cu1   Cu    Cu3+1 0.509350 0.507730 0.615930 0.972875
Cu2   Cu    Cu3+1 0.490650 0.492270 0.384070 0.953120
H1    H     H_    0.889040 0.456584 0.311475 0.193862
H2    H     H_    0.100818 0.628263 0.405549 0.164754
H3    H     H_    0.372706 0.824103 0.400667 0.129992
H4    H     H_    0.667943 0.822444 0.663539 0.139851
H5    H     H_    0.314484 0.984955 0.335035 0.140872
H6    H     H_    0.706930 0.007198 0.670079 0.149293
H7    H     H_    0.340124 0.173249 0.346011 0.148783
H8    H     H_    0.114157 0.386703 0.622705 0.077848
H9    H     H_    0.677148 0.625702 0.808550 0.144085
H10   H     H_    0.293870 0.365811 0.981662 0.168412
H11   H     H_    0.707732 0.632200 0.017896 0.177833
H12   H     H_    0.323103 0.373992 0.191372 0.143651
H13   H     H_    0.901732 0.377246 0.607315 0.141708
H14   H     H_    0.897067 0.505747 0.687882 0.193970
H15   H     H_    0.124329 0.669204 0.558221 0.173471
H16   H     H_    0.917189 0.659243 0.590848 0.161449
H17   H     H_    0.098107 0.437416 0.315470 0.199012
H18   H     H_    0.090899 0.339161 0.407333 0.158915
H19   H     H_    0.878730 0.347960 0.388480 0.167269
N1    N     N_R   0.523430 0.519360 0.790130 -0.208629
N2    N     N_R   0.476570 0.480640 0.209880 -0.211825
O1    O     O_R   0.506640 0.354460 0.582000 -0.568170
O2    O     O_R   0.490840 0.341410 0.386200 -0.585447
O3    O     O_R   0.325590 0.506510 0.597900 -0.497092
O4    O     O_R   0.309790 0.493450 0.402100 -0.611069
O5    O     O_R   0.509160 0.658590 0.613800 -0.583733
O6    O     O_R   0.493360 0.645540 0.418000 -0.563769
O7    O     O_R   0.690210 0.506550 0.597900 -0.614186
O8    O     O_R   0.674410 0.493490 0.402100 -0.549596
O9    O     O_3   0.121564 0.540445 0.713414 -0.558061
C31   C     C_3   0.113227 0.500897 0.818777 -0.268332
H20   H     H_    0.133884 0.416290 0.812300 0.168647
H21   H     H_    0.019740 0.515246 0.852756 0.136409
H22   H     H_    0.182251 0.544086 0.883442 0.189472
C32   C     C_3   0.869111 0.678066 0.414958 -0.364440
C33   C     C_3   0.913208 0.792755 0.433997 -0.893671
H23   H     H_    0.896436 0.830623 0.523308 0.251333
H24   H     H_    0.013853 0.799609 0.419274 0.252294
H25   H     H_    0.860276 0.835201 0.372328 0.251068
H26   H     H_    0.885941 0.641738 0.325131 0.236787
H27   H     H_    0.767237 0.678646 0.424869 0.235961
C34   C     C_3   0.705074 0.188853 0.592230 -0.424893
C35   C     C_3   0.820270 0.148979 0.529588 -0.866555
H28   H     H_    0.830007 0.063353 0.525876 0.261057
H29   H     H_    0.813998 0.167036 0.439907 0.249570
H30   H     H_    0.905423 0.188129 0.575684 0.232054
H31   H     H_    0.705125 0.274297 0.592719 0.215589
H32   H     H_    0.714581 0.179115 0.684639 0.186679
O10   O     O_3   0.367486 0.384937 0.776971 -0.577345
C36   C     C_3   0.412483 0.282554 0.777176 -0.328706
H33   H     H_    0.384082 0.249446 0.853558 0.147295
H34   H     H_    0.515706 0.278440 0.772916 0.158055
H35   H     H_    0.370077 0.230985 0.699896 0.190955
O11   O     O_3   0.633967 0.614019 0.221775 -0.589735
C37   C     C_3   0.588548 0.716279 0.220989 -0.319953
H36   H     H_    0.631646 0.768710 0.297148 0.196698
H37   H     H_    0.615644 0.748799 0.143833 0.149386
H38   H     H_    0.485435 0.720336 0.226333 0.160758

loop_
_geom_bond_atom_site_label_1
_geom_bond_atom_site_label_2
_ccdc_geom_bond_type
C23   O5    A    
C37   H36   S    
C31   H21   S    
C28   H15   S    
C17   N2    A    
C2    C4    S    
C19   C20   A    
Cu1   N1    S    
C1    O1    A    
C6    C9    A    
O10   C36   S    
C7    C8    A    
C29   H17   S    
C7    C11   A    
C26   C27   S    
C18   O11   S    
Cu1   O5    S    
C3    C28   S    
Cu2   O8    S    
C13   H3    S    
C10   C15   A    
C14   H4    S    
C22   H9    S    
C3    H16   S    
C32   H26   S    
C18   N2    A    
C33   H23   S    
C16   C17   A    
C2    C27   S    
C32   H27   S    
C25   O7    A    
Cu1   O3    S    
C9    C10   A    
Cu2   O2    S    
C5    C13   A    
C4    C29   S    
C27   H13   S    
C31   H22   S    
C28   H2    S    
C34   H32   S    
Cu2   O4    S    
C29   H18   S    
C34   C35   S    
C4    H19   S    
C32   C33   S    
O11   C37   S    
C18   C19   A    
C6    C8    A    
C1    C6    S    
Cu1   O7    S    
C23   O6    A    
C35   H28   S    
C15   H6    S    
C29   C30   S    
Cu1   Cu2   S    
C5    C23   S    
C16   C20   A    
O9    C31   S    
C7    H5    S    
C25   O8    A    
C35   H29   S    
C5    C14   A    
C12   O3    A    
C12   O4    A    
C27   H14   S    
C8    H7    S    
C21   O10   S    
C26   C30   S    
C36   H34   S    
C34   H31   S    
C37   H37   S    
C22   C24   A    
C9    C34   S    
C16   H10   S    
Cu2   N2    S    
C22   N1    A    
C4    H1    S    
C12   C30   S    
C3    C32   S    
C36   H35   S    
C28   C30   S    
C2    C3    S    
C1    O2    A    
C17   H12   S    
C11   C13   A    
C26   H8    S    
C33   H25   S    
C19   C24   A    
C2    C25   S    
Cu1   O1    S    
C26   O9    S    
C35   H30   S    
C10   C11   A    
C31   H20   S    
C20   C21   A    
C33   H24   S    
C36   H33   S    
C37   H38   S    
C24   H11   S    
C14   C15   A    
Cu2   O6    S    
C21   N1    A    
