data_mof_unit_32320.cif
_audit_creation_date              2012-12-11T17:00:26-0500
_audit_creation_method            fapswitch 2.2
_symmetry_space_group_name_H-M    P1
_symmetry_Int_Tables_number       1
_space_group_crystal_system       triclinic
_cell_length_a                    6.951706
_cell_length_b                    13.571845
_cell_length_c                    20.253697
_cell_angle_alpha                 103.010245
_cell_angle_beta                  90.399253
_cell_angle_gamma                 90.082577
_cell_volume                      1861.77835568

loop_
_atom_site_label
_atom_site_type_symbol
_atom_type_description
_atom_site_fract_x
_atom_site_fract_y
_atom_site_fract_z
_atom_type_partial_charge
O1    O     O_R   0.506770 0.599700 0.449550 -0.548175
O2    O     O_R   0.179980 0.595740 0.587960 -0.547034
O3    O     O_R   0.004580 0.400300 0.550450 -0.544135
C1    C     C_R   0.348512 0.617884 0.615042 0.687773
O4    O     O_R   0.177380 0.611700 0.452380 -0.515071
O5    O     O_R   0.001970 0.416370 0.413900 -0.513343
C2    C     C_R   0.345225 0.638716 0.435865 0.793752
O6    O     O_R   0.509390 0.583630 0.586100 -0.543663
O7    O     O_3   0.337530 0.435890 0.487530 -0.369284
V1    V     V_3+5 0.064660 0.511890 0.502310 1.487987
O8    O     O_R   0.671950 0.404260 0.412040 -0.543381
C3    C     C_R   0.840390 0.384873 0.384059 0.762963
O9    O     O_R   0.674540 0.388300 0.547620 -0.544605
C4    C     C_R   0.843774 0.361402 0.564051 0.678360
V2    V     V_3+5 0.564030 0.488110 0.497690 1.446734
O10   O     O_3   0.841030 0.564110 0.512470 -0.375715
C5    C     C_R   0.886609 0.109728 0.610322 -0.161967
H1    H     H_    0.881817 0.159706 0.517073 0.101455
H2    H     H_    0.906523 0.984477 0.693423 0.122004
H3    H     H_    0.902498 0.031057 0.584535 0.115955
C6    C     C_R   0.853834 0.284273 0.603852 -0.025091
C7    C     C_R   0.839148 0.316633 0.930594 -0.167016
C8    C     C_R   0.826294 0.392759 0.895048 -0.118024
C9    C     C_R   0.832404 0.369535 0.824486 -0.158932
C10   C     C_R   0.851784 0.268231 0.787317 0.076543
C11   C     C_R   0.865198 0.190516 0.824205 0.070509
C12   C     C_R   0.858240 0.241445 0.714948 0.071419
C13   C     C_R   0.878663 0.138004 0.681349 0.144752
C14   C     C_R   0.891216 0.063440 0.718704 -0.205402
C15   C     C_R   0.884316 0.089085 0.788929 -0.197641
C16   C     C_R   0.845474 0.313641 0.674492 -0.213730
C17   C     C_R   0.874686 0.182564 0.571817 -0.179454
C18   C     C_R   0.858707 0.215896 0.895936 -0.075065
H4    H     H_    0.829727 0.393359 0.695973 0.089916
H5    H     H_    0.833530 0.336289 0.985460 0.106305
H6    H     H_    0.821505 0.432841 0.800823 0.105825
H7    H     H_    0.811147 0.470631 0.922412 0.118171
H8    H     H_    0.894269 0.028358 0.815434 0.108050
C19   C     C_R   0.736201 0.169749 0.232474 0.108887
C20   C     C_R   0.868465 0.184311 0.183822 -0.161310
C21   C     C_R   0.006123 0.261692 0.204149 -0.224554
H9    H     H_    0.114014 0.274187 0.168537 0.158101
C22   C     C_R   0.996868 0.328793 0.268454 0.370111
C23   C     C_R   0.852963 0.316743 0.315644 -0.170913
C24   C     C_R   0.730087 0.233090 0.296742 0.023316
C25   C     C_3   0.516128 0.226282 0.299256 -0.374510
C26   C     C_3   0.523211 0.157639 0.228731 -0.391240
H10   H     H_    0.445663 0.299908 0.300534 0.232213
H11   H     H_    0.467169 0.186711 0.338617 0.161988
H12   H     H_    0.456315 0.191411 0.188967 0.186101
H13   H     H_    0.480069 0.078816 0.227747 0.168220
C27   C     C_R   0.500841 0.679304 0.730156 0.097533
C28   C     C_R   0.352178 0.684072 0.684119 -0.105655
C29   C     C_R   0.196101 0.748562 0.707782 -0.168739
H14   H     H_    0.077051 0.754254 0.674250 0.133678
C30   C     C_R   0.197349 0.811186 0.773514 -0.175072
H15   H     H_    0.080296 0.863530 0.788486 0.124822
C31   C     C_R   0.355008 0.811522 0.817482 -0.108868
C32   C     C_R   0.502760 0.741924 0.795004 0.100140
C33   C     C_3   0.714065 0.759443 0.792633 -0.397695
C34   C     C_3   0.711791 0.691040 0.722080 -0.407630
H16   H     H_    0.794544 0.727004 0.830323 0.170984
H17   H     H_    0.748476 0.839529 0.792925 0.166963
H18   H     H_    0.790455 0.618895 0.718995 0.164646
H19   H     H_    0.745080 0.731290 0.681415 0.169990
C35   C     C_R   0.258147 0.886323 0.387168 -0.191034
H20   H     H_    0.197114 0.004294 0.301378 0.124899
H21   H     H_    0.211701 0.962372 0.410469 0.108324
C36   C     C_R   0.347065 0.717974 0.397267 -0.071035
C37   C     C_R   0.420722 0.685633 0.071499 -0.168711
C38   C     C_R   0.443944 0.611130 0.107950 -0.116132
C39   C     C_R   0.417637 0.633481 0.177856 -0.127078
C40   C     C_R   0.363743 0.731774 0.213233 0.087419
C41   C     C_R   0.330122 0.806412 0.174847 0.070584
C42   C     C_R   0.343258 0.758711 0.285309 0.070029
C43   C     C_R   0.282987 0.858107 0.316760 0.111206
C44   C     C_R   0.244834 0.928610 0.277756 -0.196996
C45   C     C_R   0.267762 0.903282 0.208017 -0.213901
C46   C     C_R   0.378753 0.690331 0.327369 -0.223660
C47   C     C_R   0.287225 0.816466 0.427669 0.192648
C48   C     C_R   0.363912 0.783130 0.104072 -0.081987
H22   H     H_    0.424065 0.613663 0.307269 0.157148
H23   H     H_    0.449333 0.667517 0.017582 0.104486
H24   H     H_    0.440818 0.571970 0.202497 0.146277
H25   H     H_    0.486738 0.535739 0.081998 0.124555
H26   H     H_    0.235643 0.960733 0.180267 0.127460
O11   O     O_R   0.203450 0.916320 0.913910 -0.541920
O12   O     O_R   0.535520 0.888300 0.047620 -0.538649
O13   O     O_R   0.710860 0.083650 0.086100 -0.537439
C49   C     C_R   0.367565 0.861915 0.064772 0.689066
O14   O     O_R   0.532860 0.904250 0.912040 -0.542770
O15   O     O_R   0.708190 0.099710 0.949550 -0.537763
C50   C     C_R   0.364161 0.882644 0.884758 0.698005
O16   O     O_R   0.206120 0.900260 0.050460 -0.540261
O17   O     O_3   0.375280 0.064080 0.012470 -0.370097
V3    V     V_3+5 0.648180 0.988110 0.997690 1.419443
O18   O     O_R   0.038220 0.111740 0.952370 -0.540106
C51   C     C_R   0.868987 0.138345 0.935742 0.689001
O19   O     O_R   0.040880 0.095790 0.087940 -0.547650
C52   C     C_R   0.872862 0.117393 0.115108 0.716551
V4    V     V_3+5 0.148800 0.011950 0.002300 1.412459
O20   O     O_3   0.871820 0.935920 0.987530 -0.371596
Cl1   Cl    Cl    0.152489 0.434190 0.283660 -0.735955
N1    N     N_3   0.252030 0.843993 0.499349 -0.682920
H27   H     H_    0.384086 0.842616 0.524150 0.209657
H28   H     H_    0.201530 0.918260 0.513457 0.225188

loop_
_geom_bond_atom_site_label_1
_geom_bond_atom_site_label_2
_ccdc_geom_bond_type
C35   H21   S    
O12   V3    S    
V4    O20   S    
V3    O20   S    
C1    C28   S    
C40   C42   A    
C21   H9    S    
C29   H14   S    
O17   V3    S    
H20   C44   S    
C1    O6    A    
N1    H28   S    
O18   C51   A    
O15   C51   A    
C44   C45   A    
C23   C24   A    
C7    H5    S    
C6    C16   A    
C25   H11   S    
C9    H6    S    
C47   N1    S    
C33   H17   S    
C4    C6    S    
C13   C14   A    
C31   C50   S    
C27   C34   S    
O5    C3    A    
V2    O10   S    
O15   V3    S    
C5    H3    S    
C30   H15   S    
C15   H8    S    
C33   H16   S    
C18   C51   S    
C40   C41   A    
C37   C48   A    
O14   V3    S    
C38   H25   S    
O8    V2    S    
O16   V4    S    
C8    C9    A    
C37   C38   A    
O1    V2    S    
O7    V1    S    
C19   C24   A    
C45   H26   S    
C32   C33   S    
O11   V4    S    
O9    C4    A    
C21   C22   A    
N1    H27   S    
C49   O16   A    
C26   H12   S    
C25   H10   S    
C6    C17   A    
C29   C30   A    
O13   C52   A    
C12   C16   A    
C43   C44   A    
C19   C20   A    
O4    C2    A    
C26   H13   S    
C10   C11   A    
C8    H7    S    
C33   C34   S    
C34   H18   S    
O2    C1    A    
C42   C43   A    
C20   C52   S    
C14   C15   A    
C27   C32   A    
C34   H19   S    
O14   C50   A    
C11   C18   A    
O19   C52   A    
C35   C43   A    
C16   H4    S    
C9    C10   A    
C37   H23   S    
C39   H24   S    
O3    C4    A    
C48   C49   S    
C20   C21   A    
O19   V4    S    
O12   C49   A    
C11   C15   A    
O6    V2    S    
O9    V2    S    
C22   C23   A    
C36   C46   A    
H1    C17   S    
C41   C48   A    
O2    V1    S    
C27   C28   A    
C19   C26   S    
C7    C18   A    
C25   C26   S    
O1    C2    A    
C5    C13   A    
C39   C40   A    
O5    V1    S    
C46   H22   S    
O8    C3    A    
C28   C29   A    
C10   C12   A    
C35   C47   A    
O13   V3    S    
C2    C36   S    
C31   C32   A    
O4    V1    S    
C3    C23   S    
O3    V1    S    
V1    O10   S    
O11   C50   A    
C30   C31   A    
O7    V2    S    
C22   Cl1   S    
C24   C25   S    
C38   C39   A    
C41   C45   A    
C12   C13   A    
C5    C17   A    
C7    C8    A    
C36   C47   A    
C42   C46   A    
O18   V4    S    
O17   V4    S    
H2    C14   S    
