data_mof_unit_17563.cif
_audit_creation_date              2012-12-10T17:01:29-0500
_audit_creation_method            fapswitch 2.2
_symmetry_space_group_name_H-M    P1
_symmetry_Int_Tables_number       1
_space_group_crystal_system       triclinic
_cell_length_a                    20.085081
_cell_length_b                    22.679756
_cell_length_c                    15.167805
_cell_angle_alpha                 89.237966
_cell_angle_beta                  90.441276
_cell_angle_gamma                 90.23137
_cell_volume                      6908.44087019

loop_
_atom_site_label
_atom_site_type_symbol
_atom_type_description
_atom_site_fract_x
_atom_site_fract_y
_atom_site_fract_z
_atom_type_partial_charge
C1    C     C_R   0.373121 0.886045 0.485411 0.830865
C2    C     C_R   0.282151 0.741165 0.499919 0.107586
C3    C     C_R   0.775683 0.074132 0.941328 -0.106078
C4    C     C_R   0.751202 0.017238 0.927060 -0.147071
C5    C     C_R   0.688032 0.001173 0.957429 -0.149178
C6    C     C_R   0.148695 0.542305 0.001542 0.137777
C7    C     C_R   0.174263 0.598944 0.017595 -0.149427
C8    C     C_R   0.237331 0.614887 0.986771 -0.123416
C9    C     C_R   0.275686 0.574134 0.941333 -0.106075
C10   C     C_R   0.251199 0.517243 0.927054 -0.147076
C11   C     C_R   0.188028 0.501181 0.957421 -0.149170
C12   C     C_R   0.382731 0.923909 0.809611 0.150995
C13   C     C_R   0.759913 0.741542 0.538485 0.111884
C14   C     C_R   0.332341 0.956022 0.766236 -0.191854
C15   C     C_R   0.285456 0.927254 0.713259 -0.158473
C16   C     C_R   0.288355 0.866155 0.703551 -0.100218
C17   C     C_R   0.339061 0.833956 0.745034 -0.127908
C18   C     C_R   0.386670 0.862698 0.796885 -0.071343
C19   C     C_R   0.882763 0.423873 0.809622 0.151042
C20   C     C_R   0.832332 0.455953 0.766275 -0.191839
C21   C     C_R   0.785452 0.427151 0.713330 -0.158494
C22   C     C_R   0.788399 0.366054 0.703624 -0.100205
C23   C     C_R   0.839150 0.333891 0.745071 -0.127890
C24   C     C_R   0.782142 0.241177 0.499885 0.107668
C25   C     C_R   0.886750 0.362665 0.796895 -0.071310
C26   C     C_R   0.568824 0.069475 0.849540 0.164272
C27   C     C_R   0.619002 0.055767 0.788959 -0.108617
C28   C     C_R   0.657585 0.100626 0.750856 -0.119086
C29   C     C_R   0.646091 0.159432 0.772192 -0.061687
C30   C     C_R   0.596212 0.173445 0.832072 -0.139853
C31   C     C_R   0.557648 0.128700 0.870646 -0.145345
C32   C     C_R   0.068821 0.569480 0.849538 0.164282
C33   C     C_R   0.118998 0.555773 0.788955 -0.108618
C34   C     C_R   0.157584 0.600632 0.750857 -0.118965
C35   C     C_R   0.304151 0.194014 0.550804 -0.079666
C36   C     C_R   0.146093 0.659438 0.772201 -0.061881
C37   C     C_R   0.096217 0.673450 0.832084 -0.139995
C38   C     C_R   0.057650 0.628704 0.870653 -0.145280
C39   C     C_R   0.724012 0.725385 0.291262 0.121746
C40   C     C_R   0.762184 0.742587 0.218039 -0.105692
C41   C     C_R   0.732995 0.745367 0.134084 -0.154038
C42   C     C_R   0.666028 0.730009 0.122598 -0.109793
C43   C     C_R   0.628360 0.711194 0.194885 -0.116104
C44   C     C_R   0.657434 0.708294 0.278867 -0.152363
C45   C     C_R   0.637346 0.344924 0.443241 0.123356
C46   C     C_R   0.335217 0.781772 0.494082 -0.083114
C47   C     C_R   0.605805 0.389520 0.490681 -0.121618
C48   C     C_R   0.544816 0.412233 0.461312 -0.152154
C49   C     C_R   0.515461 0.391195 0.383945 -0.101370
C50   C     C_R   0.547236 0.347648 0.335511 -0.104390
C51   C     C_R   0.608206 0.324775 0.364657 -0.142377
C52   C     C_R   0.224036 0.225399 0.291248 0.121762
C53   C     C_R   0.262222 0.242605 0.218039 -0.105682
C54   C     C_R   0.233049 0.245393 0.134075 -0.154032
C55   C     C_R   0.166082 0.230040 0.122565 -0.109789
C56   C     C_R   0.128400 0.211222 0.194837 -0.116140
C57   C     C_R   0.804148 0.694011 0.550807 -0.079678
C58   C     C_R   0.157459 0.208314 0.278827 -0.152354
C59   C     C_R   0.137429 0.844793 0.442507 0.123387
C60   C     C_R   0.105782 0.889538 0.489515 -0.121700
C61   C     C_R   0.044862 0.912174 0.459747 -0.152032
C62   C     C_R   0.015679 0.890907 0.382412 -0.101348
C63   C     C_R   0.047557 0.847205 0.334408 -0.104550
C64   C     C_R   0.108459 0.824411 0.363951 -0.142549
C65   C     C_2   0.685624 0.838177 0.354612 0.939671
C66   C     C_2   0.593578 0.239194 0.528422 0.943561
C67   C     C_2   0.185625 0.338181 0.354610 0.939671
C68   C     C_R   0.835208 0.281781 0.494015 -0.083135
C69   C     C_2   0.093552 0.739211 0.528072 0.943442
C70   C     C_R   0.404192 0.953670 0.152299 0.160499
C71   C     C_R   0.347466 0.989495 0.144762 -0.133870
C72   C     C_R   0.288043 0.972423 0.185441 -0.148716
C73   C     C_R   0.284817 0.919588 0.233757 -0.087505
C74   C     C_R   0.341155 0.883949 0.242139 -0.081149
C75   C     C_R   0.400966 0.901158 0.202605 -0.095544
C76   C     C_R   0.904182 0.453696 0.152290 0.160493
C77   C     C_R   0.847462 0.489527 0.144731 -0.133920
C78   C     C_R   0.788032 0.472468 0.185403 -0.148755
C79   C     C_R   0.297570 0.173912 0.394046 -0.261551
C80   C     C_R   0.784792 0.419638 0.233733 -0.087497
C81   C     C_R   0.841122 0.383991 0.242129 -0.081111
C82   C     C_R   0.900940 0.401188 0.202603 -0.095487
C83   C     C_R   0.387885 0.893317 0.992498 0.132358
C84   C     C_R   0.318018 0.897091 0.990523 -0.113251
C85   C     C_R   0.279160 0.849013 0.017661 -0.121881
C86   C     C_R   0.309625 0.796750 0.046049 -0.116189
C87   C     C_R   0.379023 0.792333 0.046877 -0.153906
C88   C     C_R   0.418127 0.840330 0.019894 -0.180988
C89   C     C_R   0.887908 0.393309 0.992509 0.132371
C90   C     C_R   0.255726 0.860853 0.468744 -0.303708
C91   C     C_R   0.818040 0.397069 0.990528 -0.113227
C92   C     C_R   0.779192 0.348986 0.017674 -0.121896
C93   C     C_R   0.809671 0.296731 0.046077 -0.116198
C94   C     C_R   0.879069 0.292329 0.046912 -0.153911
C95   C     C_R   0.918163 0.340330 0.019921 -0.180991
C96   C     C_R   0.797565 0.673908 0.394050 -0.261502
C97   C     C_R   0.372697 0.113719 0.485745 0.821909
C98   C     C_R   0.755709 0.360890 0.468970 -0.303578
C99   C     C_R   0.254738 0.221295 0.380025 -0.009358
C100  C     C_R   0.202628 0.821529 0.472674 -0.011744
C101  C     C_R   0.754729 0.721289 0.380031 -0.009333
C102  C     C_R   0.702603 0.321580 0.473012 -0.012085
C103  C     C_R   0.519154 0.996610 0.163880 -0.079586
C104  C     C_R   0.019153 0.496617 0.163880 -0.079592
C105  C     C_R   0.477668 0.995170 0.834186 -0.104840
C106  C     C_R   0.977671 0.495168 0.834186 -0.104842
C107  C     C_R   0.429825 0.943359 0.960421 -0.064423
C108  C     C_R   0.873123 0.386047 0.485412 0.830872
C109  C     C_R   0.929836 0.443356 0.960426 -0.064424
C110  C     C_R   0.431070 0.954621 0.869149 -0.078066
C111  C     C_R   0.931083 0.454611 0.869153 -0.078098
C112  C     C_R   0.525664 0.022322 0.888330 -0.119891
C113  C     C_R   0.025663 0.522327 0.888330 -0.119898
C114  C     C_R   0.626973 0.113758 0.513810 0.811727
C115  C     C_R   0.626426 0.885644 0.513722 0.832713
C116  C     C_R   0.126972 0.613757 0.513809 0.811888
C117  C     C_R   0.126425 0.385643 0.513721 0.832722
C118  C     C_R   0.528087 0.007608 0.979484 0.046602
C119  C     C_R   0.872696 0.613719 0.485745 0.821978
C120  C     C_R   0.028088 0.507616 0.979484 0.046596
C121  C     C_R   0.474673 0.974072 0.017199 0.032881
C122  C     C_R   0.974675 0.474079 0.017200 0.032883
C123  C     C_R   0.467692 0.972951 0.110554 -0.081333
C124  C     C_R   0.967690 0.472963 0.110553 -0.081333
C125  C     C_R   0.576716 0.019075 0.125482 -0.259829
C126  C     C_R   0.076717 0.519083 0.125483 -0.259829
C127  C     C_R   0.582215 0.024876 0.034720 -0.010088
C128  C     C_R   0.082215 0.524885 0.034720 -0.010091
C129  C     C_R   0.514190 0.998789 0.260243 0.825406
C130  C     C_R   0.737690 0.758182 0.451899 0.033248
C131  C     C_R   0.014190 0.498792 0.260243 0.825422
C132  C     C_R   0.484074 0.999288 0.738665 0.807019
C133  C     C_R   0.984072 0.499288 0.738665 0.807010
C134  C     C_R   0.323518 0.160903 0.477442 -0.068692
C135  C     C_R   0.320788 0.841832 0.482127 -0.076368
C136  C     C_R   0.823516 0.660902 0.477443 -0.068707
C137  C     C_R   0.820781 0.341846 0.482157 -0.076257
C138  C     C_R   0.674742 0.838150 0.518200 -0.080412
C139  C     C_R   0.678166 0.159255 0.514621 -0.093997
C140  C     C_R   0.174742 0.338150 0.518198 -0.080392
C141  C     C_R   0.714731 0.261271 0.495214 0.034544
C142  C     C_R   0.178163 0.659252 0.514618 -0.093932
C143  C     C_R   0.737054 0.772348 0.612066 -0.214857
C144  C     C_R   0.795366 0.180651 0.508100 -0.215724
C145  C     C_R   0.237053 0.272348 0.612062 -0.214837
C146  C     C_R   0.295370 0.680645 0.508273 -0.215695
C147  C     C_R   0.693458 0.818532 0.601923 -0.224476
C148  C     C_R   0.744053 0.140408 0.512896 -0.220717
C149  C     C_R   0.193456 0.318531 0.601921 -0.224479
C150  C     C_R   0.244053 0.640403 0.513048 -0.220771
C151  C     C_R   0.698449 0.810162 0.441989 -0.115321
C152  C     C_R   0.237694 0.258185 0.451895 0.033221
C153  C     C_R   0.662620 0.219866 0.510441 -0.114950
C154  C     C_R   0.198452 0.310165 0.441987 -0.115300
C155  C     C_R   0.162616 0.719859 0.510274 -0.115023
C156  C     C_R   0.329866 0.179153 0.640570 0.124965
C157  C     C_R   0.386478 0.208222 0.673698 -0.071854
C158  C     C_R   0.409873 0.195334 0.758809 -0.120587
C159  C     C_R   0.376065 0.154446 0.811934 -0.102673
C160  C     C_R   0.318895 0.126358 0.779940 -0.157122
C161  C     C_R   0.296172 0.138073 0.694099 -0.191358
C162  C     C_R   0.405889 0.762146 0.495775 0.129934
C163  C     C_R   0.214742 0.761248 0.495058 0.034626
C164  C     C_R   0.435314 0.740503 0.574002 -0.126812
C165  C     C_R   0.502666 0.725044 0.575714 -0.123169
C166  C     C_R   0.540972 0.731198 0.499579 -0.102659
C167  C     C_R   0.511933 0.752834 0.421686 -0.132271
C168  C     C_R   0.444713 0.768144 0.419609 -0.159211
C169  C     C_R   0.829858 0.679143 0.640574 0.124921
C170  C     C_R   0.886466 0.708211 0.673716 -0.071844
C171  C     C_R   0.909860 0.695309 0.758824 -0.120534
C172  C     C_R   0.876055 0.654408 0.811930 -0.102702
C173  C     C_R   0.818889 0.626321 0.779921 -0.157096
C174  C     C_R   0.259915 0.241544 0.538482 0.111901
C175  C     C_R   0.796167 0.638051 0.694085 -0.191334
C176  C     C_R   0.905878 0.262150 0.495619 0.129829
C177  C     C_R   0.935345 0.240494 0.573809 -0.126720
C178  C     C_R   0.002696 0.225030 0.575446 -0.123152
C179  C     C_R   0.040956 0.231190 0.499272 -0.102691
C180  C     C_R   0.011873 0.252835 0.421413 -0.132214
C181  C     C_R   0.944655 0.268154 0.419412 -0.159388
C182  C     C_R   0.648694 0.042298 0.001542 0.137771
C183  C     C_R   0.674256 0.098940 0.017585 -0.149433
C184  C     C_R   0.737322 0.114886 0.986758 -0.123428
H1    H     H_    0.311062 0.146780 0.338592 0.169178
H2    H     H_    0.756013 0.093855 0.516553 0.157527
H3    H     H_    0.225422 0.852289 0.016744 0.119982
H4    H     H_    0.279445 0.759672 0.067353 0.113500
H5    H     H_    0.402523 0.751742 0.068526 0.125265
H6    H     H_    0.471849 0.836365 0.020389 0.129316
H7    H     H_    0.793923 0.437303 0.968398 0.118764
H8    H     H_    0.725454 0.352250 0.016752 0.119977
H9    H     H_    0.779499 0.259650 0.067388 0.113515
H10   H     H_    0.902579 0.251745 0.068574 0.125268
H11   H     H_    0.971885 0.336377 0.020421 0.129318
H12   H     H_    0.175153 0.340116 0.660275 0.148128
H13   H     H_    0.256008 0.593852 0.516818 0.157407
H14   H     H_    0.617757 0.033623 0.166865 0.176319
H15   H     H_    0.117757 0.533628 0.166867 0.176318
H16   H     H_    0.412518 0.240451 0.633322 0.129372
H17   H     H_    0.453834 0.217428 0.783819 0.125727
H18   H     H_    0.393778 0.144879 0.878132 0.115287
H19   H     H_    0.291982 0.095748 0.821935 0.120260
H20   H     H_    0.251897 0.116005 0.669845 0.121300
H21   H     H_    0.246192 0.907113 0.454632 0.167931
H22   H     H_    0.406212 0.735750 0.633360 0.110135
H23   H     H_    0.525210 0.708467 0.636107 0.120239
H24   H     H_    0.593095 0.719300 0.501020 0.129256
H25   H     H_    0.541294 0.758080 0.362780 0.162382
H26   H     H_    0.423046 0.785149 0.358920 0.107119
H27   H     H_    0.912506 0.740448 0.633353 0.129335
H28   H     H_    0.953818 0.717402 0.783844 0.125738
H29   H     H_    0.893768 0.644830 0.878125 0.115292
H30   H     H_    0.791979 0.595701 0.821903 0.120239
H31   H     H_    0.751895 0.615983 0.669819 0.121294
H32   H     H_    0.811055 0.646776 0.338595 0.169182
H33   H     H_    0.906278 0.235738 0.633198 0.110160
H34   H     H_    0.025275 0.208445 0.635811 0.120265
H35   H     H_    0.093079 0.219288 0.500656 0.129204
H36   H     H_    0.041198 0.258080 0.362474 0.162407
H37   H     H_    0.922952 0.285165 0.358750 0.107146
H38   H     H_    0.644904 0.130866 0.052640 0.119054
H39   H     H_    0.756456 0.158828 0.998023 0.117814
H40   H     H_    0.824458 0.086581 0.917437 0.115734
H41   H     H_    0.781081 0.985639 0.892235 0.123139
H42   H     H_    0.669470 0.957011 0.945922 0.122707
H43   H     H_    0.746168 0.407165 0.454980 0.167898
H44   H     H_    0.144915 0.630869 0.052657 0.119043
H45   H     H_    0.256469 0.658826 0.998044 0.117804
H46   H     H_    0.324462 0.586580 0.917444 0.115723
H47   H     H_    0.281074 0.485644 0.892222 0.123128
H48   H     H_    0.169461 0.457022 0.945907 0.122703
H49   H     H_    0.329198 0.003134 0.774098 0.123374
H50   H     H_    0.246511 0.952247 0.680407 0.123524
H51   H     H_    0.251381 0.843750 0.663837 0.148897
H52   H     H_    0.341106 0.786657 0.737603 0.113735
H53   H     H_    0.425932 0.837231 0.828221 0.115977
H54   H     H_    0.251268 0.260315 0.678831 0.154707
H55   H     H_    0.829149 0.503062 0.774143 0.123332
H56   H     H_    0.746472 0.452117 0.680504 0.123464
H57   H     H_    0.751427 0.343623 0.663941 0.148867
H58   H     H_    0.841235 0.286593 0.737637 0.113719
H59   H     H_    0.926042 0.337224 0.828214 0.115953
H60   H     H_    0.628150 0.010373 0.771541 0.090019
H61   H     H_    0.696215 0.089806 0.704493 0.106546
H62   H     H_    0.675776 0.194127 0.742231 0.134998
H63   H     H_    0.587332 0.219017 0.848494 0.126035
H64   H     H_    0.519043 0.140112 0.916762 0.110818
H65   H     H_    0.345469 0.663365 0.508678 0.152914
H66   H     H_    0.128144 0.510380 0.771532 0.090000
H67   H     H_    0.196212 0.589813 0.704493 0.106516
H68   H     H_    0.175780 0.694133 0.742243 0.134866
H69   H     H_    0.087340 0.719021 0.848514 0.125991
H70   H     H_    0.019047 0.640117 0.916772 0.110808
H71   H     H_    0.814106 0.754521 0.226301 0.140119
H72   H     H_    0.762288 0.759374 0.077936 0.125756
H73   H     H_    0.643490 0.732214 0.057597 0.116902
H74   H     H_    0.576766 0.698557 0.185786 0.118293
H75   H     H_    0.628478 0.692362 0.334179 0.112638
H76   H     H_    0.751271 0.760316 0.678834 0.154708
H77   H     H_    0.628165 0.406149 0.550679 0.128006
H78   H     H_    0.520341 0.446191 0.498472 0.128431
H79   H     H_    0.468236 0.408815 0.361327 0.135495
H80   H     H_    0.524656 0.331660 0.275335 0.125183
H81   H     H_    0.632573 0.291231 0.326444 0.124080
H82   H     H_    0.314144 0.254536 0.226320 0.140101
H83   H     H_    0.262353 0.259404 0.077939 0.125758
H84   H     H_    0.143557 0.232251 0.057557 0.116906
H85   H     H_    0.076807 0.198589 0.185719 0.118276
H86   H     H_    0.128491 0.192381 0.334127 0.112621
H87   H     H_    0.845464 0.163370 0.508374 0.152936
H88   H     H_    0.128005 0.906346 0.549485 0.128041
H89   H     H_    0.020307 0.946252 0.496572 0.128492
H90   H     H_    0.968508 0.908468 0.359486 0.135468
H91   H     H_    0.025112 0.831038 0.274255 0.125112
H92   H     H_    0.132908 0.790748 0.326062 0.124101
H93   H     H_    0.724376 0.877867 0.246852 0.342929
H94   H     H_    0.532594 0.284762 0.607252 0.332754
H95   H     H_    0.224373 0.377880 0.246855 0.342937
H96   H     H_    0.032501 0.784974 0.606559 0.332795
H97   H     H_    0.349382 0.030464 0.107341 0.115393
H98   H     H_    0.675157 0.840119 0.660277 0.148136
H99   H     H_    0.244421 0.000067 0.179238 0.126450
H100  H     H_    0.238696 0.906288 0.264832 0.123405
H101  H     H_    0.338431 0.843094 0.279546 0.112036
H102  H     H_    0.444517 0.873499 0.210257 0.110040
H103  H     H_    0.849389 0.530492 0.107302 0.115406
H104  H     H_    0.744416 0.500117 0.179186 0.126454
H105  H     H_    0.738667 0.406348 0.264806 0.123331
H106  H     H_    0.838385 0.343140 0.279543 0.112010
H107  H     H_    0.944486 0.373523 0.210269 0.110019
H108  H     H_    0.293911 0.937332 0.968403 0.118768
O1    O     O_3   0.500000 0.000000 0.500000 -0.498454
O2    O     O_R   0.135640 0.430410 0.463140 -0.626764
O3    O     O_R   0.456890 1.000000 0.295720 -0.638623
O4    O     O_R   0.956890 0.500000 0.295720 -0.638620
O5    O     O_R   0.488070 0.049450 0.698020 -0.625131
O6    O     O_R   0.488070 0.950550 0.698020 -0.649178
O7    O     O_R   0.988070 0.549450 0.698020 -0.625143
O8    O     O_R   0.988070 0.450550 0.698020 -0.649197
O9    O     O_R   0.370630 0.069610 0.433010 -0.655911
O10   O     O_R   0.370630 0.930390 0.433010 -0.649620
O11   O     O_R   0.870630 0.569610 0.433010 -0.655903
O12   O     O_3   0.000000 0.500000 0.500000 -0.498458
O13   O     O_R   0.870630 0.430390 0.433010 -0.649624
O14   O     O_R   0.574320 0.880940 0.560740 -0.639078
O15   O     O_R   0.574320 0.119060 0.560740 -0.612552
O16   O     O_R   0.074320 0.380940 0.560740 -0.639091
O17   O     O_R   0.074320 0.619060 0.560740 -0.612568
O18   O     O_R   0.566990 0.000000 0.308240 -0.627993
O19   O     O_R   0.066990 0.500000 0.308240 -0.627989
O20   O     O_2   0.628583 0.843920 0.327149 -0.659988
O21   O     O_R   0.739143 0.859391 0.304977 -0.802128
O22   O     O_2   0.547810 0.224688 0.479536 -0.631308
O23   O     O_R   0.419410 0.880950 0.543120 -0.618192
O24   O     O_R   0.581333 0.274095 0.601744 -0.824204
O25   O     O_2   0.128583 0.343919 0.327147 -0.659974
O26   O     O_R   0.239142 0.359403 0.304979 -0.802142
O27   O     O_2   0.047820 0.724575 0.479216 -0.631338
O28   O     O_R   0.081247 0.774301 0.601173 -0.824096
O29   O     O_R   0.419410 0.119050 0.543120 -0.612300
O30   O     O_R   0.919410 0.380950 0.543120 -0.618208
O31   O     O_R   0.919410 0.619050 0.543120 -0.612302
O32   O     O_R   0.635640 0.069590 0.463140 -0.649640
O33   O     O_R   0.635640 0.930410 0.463140 -0.626750
O34   O     O_R   0.135640 0.569590 0.463140 -0.649618
Zn1   Zn    Zn3+2 0.583120 1.000000 0.434770 0.997661
Zn2   Zn    Zn3+2 0.083120 0.500000 0.434770 0.997702
Zn3   Zn    Zn3+2 0.425830 0.000000 0.416880 0.977382
Zn4   Zn    Zn3+2 0.925830 0.500000 0.416880 0.977427
Zn5   Zn    Zn3+2 0.495530 0.070660 0.574170 1.007810
Zn6   Zn    Zn3+2 0.495530 0.929340 0.574170 0.981045
Zn7   Zn    Zn3+2 0.995530 0.570660 0.574170 1.007813
Zn8   Zn    Zn3+2 0.995530 0.429340 0.574170 0.981021

loop_
_geom_bond_atom_site_label_1
_geom_bond_atom_site_label_2
_ccdc_geom_bond_type
C105  C110  A    
C157  C158  A    
C19   C20   A    
C55   C56   A    
C103  C123  A    
C27   H60   S    
C68   C176  S    
C47   H77   S    
C41   H72   S    
C3    H40   S    
C79   C99   A    
C42   H73   S    
C149  H12   S    
C148  H2    S    
C73   C74   A    
O12   Zn8   S    
C182  C183  A    
C146  C150  A    
C106  C133  S    
C13   C130  A    
C102  C141  A    
C116  O34   A    
C3    C184  A    
O19   Zn2   S    
C18   H53   S    
C101  C130  A    
C83   C88   A    
C67   O26   S    
C59   C60   A    
H96   O28   S    
C21   C22   A    
O16   Zn8   S    
C35   C134  A    
C162  C164  A    
C45   C47   A    
C181  H37   S    
C167  H25   S    
C74   C75   A    
C6    C11   A    
C72   C73   A    
C146  H65   S    
C98   C102  A    
C91   H7    S    
O17   Zn7   S    
C43   C44   A    
H93   O21   S    
C37   C38   A    
C113  C120  A    
C24   C141  A    
C4    H41   S    
C76   C77   A    
C52   C58   A    
C116  C142  S    
C73   H100  S    
C63   H91   S    
C38   H70   S    
C105  C112  A    
C158  C159  A    
C107  C110  A    
C115  O14   A    
C5    C182  A    
C39   C40   A    
O1    Zn3   S    
C164  C165  A    
C179  H35   S    
C94   H10   S    
C54   H83   S    
C177  H33   S    
C4    C5    A    
O29   Zn5   S    
C66   C153  S    
C6    C7    A    
C19   C111  S    
C138  C151  A    
C58   H86   S    
C119  C136  S    
C96   H32   S    
C69   O27   D    
C164  H22   S    
O32   Zn1   S    
C51   H81   S    
C75   H102  S    
C36   H68   S    
O4    Zn4   S    
C100  C163  A    
C33   H66   S    
C121  C123  A    
C45   C102  S    
C20   C21   A    
C125  C127  A    
C22   C23   A    
C22   H57   S    
C29   H62   S    
C160  H19   S    
C12   C110  S    
C178  C179  A    
C7    C8    A    
C53   C54   A    
C132  O6    A    
C67   C154  S    
C36   C37   A    
O15   Zn5   S    
C109  C111  A    
H94   O24   S    
C108  C137  S    
C78   C80   A    
C13   C57   A    
C170  C171  A    
C129  O3    A    
O9    Zn3   S    
C62   H90   S    
O33   Zn1   S    
C10   H47   S    
C104  C131  S    
C89   C91   A    
C9    C10   A    
C150  H13   S    
C116  O17   A    
O3    Zn3   S    
O1    Zn5   S    
C11   H48   S    
C59   C100  S    
C77   H103  S    
C78   H104  S    
C106  C111  A    
C173  C175  A    
C139  C148  A    
C106  C113  A    
C76   C124  S    
O12   Zn4   S    
C82   H107  S    
C76   C82   A    
C91   C92   A    
C147  H98   S    
C16   H51   S    
C155  C163  A    
C9    H46   S    
C65   C151  S    
C29   C30   A    
C8    H45   S    
C83   C84   A    
C84   H108  S    
C117  O16   A    
C145  H54   S    
C17   C18   A    
C165  H23   S    
C34   H67   S    
C162  C168  A    
C125  H14   S    
C119  O31   A    
O1    Zn1   S    
C1    O10   A    
C118  C127  A    
C122  C124  A    
C3    C4    A    
C52   C53   A    
C98   H43   S    
C81   H106  S    
C17   H52   S    
C79   C134  A    
C54   C55   A    
C40   C41   A    
C126  C128  A    
C55   H84   S    
O11   Zn4   S    
C152  C154  A    
C156  C161  A    
C39   C44   A    
C104  C124  A    
C66   O24   S    
O7    Zn7   S    
C99   C152  A    
C157  H16   S    
C6    C128  S    
C71   C72   A    
C171  H28   S    
C141  C153  A    
C15   H50   S    
C133  O8    A    
C56   C58   A    
C131  O4    A    
C34   C36   A    
C61   C62   A    
C31   H64   S    
C10   C11   A    
C63   C64   A    
C92   H8    S    
C145  C174  A    
C49   C50   A    
C70   C75   A    
C127  C182  S    
C14   C15   A    
O34   Zn2   S    
C1    C135  S    
C140  C149  A    
C14   H49   S    
C85   H3    S    
C184  H39   S    
C87   C88   A    
C67   O25   D    
C86   H4    S    
C41   C42   A    
C161  H20   S    
C96   C136  A    
C50   H80   S    
C77   C78   A    
C88   H6    S    
C26   C27   A    
C93   C94   A    
C28   C29   A    
C30   C31   A    
C139  C153  A    
C114  O15   A    
C46   C135  A    
H95   O26   S    
C16   C17   A    
C70   C71   A    
C32   C113  S    
C144  C148  A    
C66   O22   D    
C96   C101  A    
C68   C137  A    
C166  H24   S    
O12   Zn2   S    
C56   H85   S    
C105  C132  S    
C25   H59   S    
C176  C181  A    
O2    Zn2   S    
C30   H63   S    
C98   C137  A    
C71   H97   S    
C168  H26   S    
C84   C85   A    
C167  C168  A    
C86   C87   A    
C159  H18   S    
C74   H101  S    
C85   C86   A    
C64   H92   S    
C60   C61   A    
C175  H31   S    
O12   Zn7   S    
C89   C95   A    
C62   C63   A    
O14   Zn6   S    
C159  C160  A    
C50   C51   A    
C169  C175  A    
C72   H99   S    
C103  C129  S    
C48   C49   A    
C108  O13   A    
C37   H69   S    
C117  C140  S    
C42   C43   A    
C107  C121  A    
C172  H29   S    
C26   C112  S    
C180  C181  A    
C95   H11   S    
C178  H34   S    
C93   H9    S    
C2    C163  A    
C120  C128  A    
C117  O2    A    
C32   C33   A    
C142  C150  A    
C173  H30   S    
C131  O19   A    
C24   C144  A    
C48   H78   S    
C92   C93   A    
C65   O21   S    
C13   C143  A    
C94   C95   A    
C109  C122  A    
C24   C68   A    
C179  C180  A    
C177  C178  A    
C130  C151  A    
C61   H89   S    
C119  O11   A    
O10   Zn3   S    
C145  C149  A    
C53   H82   S    
C126  H15   S    
C171  C172  A    
C165  C166  A    
C90   C135  A    
C169  C170  A    
O31   Zn7   S    
C183  C184  A    
C81   C82   A    
C49   H79   S    
C2    C46   A    
C143  C147  A    
C59   C64   A    
C69   C155  S    
C69   O28   S    
C156  C157  A    
C80   H105  S    
C7    H44   S    
C45   C51   A    
C15   C16   A    
C90   H21   S    
C89   C109  S    
C5    H42   S    
C183  H38   S    
C40   H71   S    
C70   C123  S    
O18   Zn1   S    
C8    C9    A    
C57   C136  A    
C32   C38   A    
C142  C155  A    
C87   H5    S    
C152  C174  A    
C23   C25   A    
C26   C31   A    
C114  O32   A    
C97   C134  S    
C103  C125  A    
C90   C100  A    
C120  C122  A    
C39   C101  S    
C57   C169  S    
O30   Zn8   S    
C132  O5    A    
C170  H27   S    
C108  O30   A    
C144  H87   S    
C35   C156  S    
C97   O29   A    
C118  C121  A    
O5    Zn5   S    
C47   C48   A    
C115  C138  S    
C138  C147  A    
C33   C34   A    
C133  O7    A    
C114  C139  S    
C60   H88   S    
C23   H58   S    
C176  C177  A    
O1    Zn6   S    
C12   C14   A    
C1    O23   A    
C166  C167  A    
C180  H36   S    
C97   O9    A    
C172  C173  A    
C158  H17   S    
C79   H1    S    
C35   C174  A    
C143  H76   S    
C80   C81   A    
C65   O20   D    
C129  O18   A    
C2    C146  A    
C20   H55   S    
C52   C99   S    
O6    Zn6   S    
C160  C161  A    
O8    Zn8   S    
C44   H75   S    
C112  C118  A    
C115  O33   A    
C83   C107  S    
C28   H61   S    
C43   H74   S    
C19   C25   A    
C21   H56   S    
C104  C126  A    
C46   C162  S    
C12   C18   A    
C27   C28   A    
O13   Zn4   S    
O23   Zn6   S    
C140  C154  A    
