data_mof_unit_30890.cif
_audit_creation_date              2012-12-11T15:17:35-0500
_audit_creation_method            fapswitch 2.2
_symmetry_space_group_name_H-M    P1
_symmetry_Int_Tables_number       1
_space_group_crystal_system       triclinic
_cell_length_a                    15.730372
_cell_length_b                    15.730473
_cell_length_c                    34.588004
_cell_angle_alpha                 89.987555
_cell_angle_beta                  90.020089
_cell_angle_gamma                 119.99617
_cell_volume                      7412.31111436

loop_
_atom_site_label
_atom_site_type_symbol
_atom_type_description
_atom_site_fract_x
_atom_site_fract_y
_atom_site_fract_z
_atom_type_partial_charge
C1    C     C_R   0.579488 0.440888 0.555536 0.569591
C2    C     C_R   0.507930 0.955664 0.214761 0.339265
C3    C     C_2   0.354455 0.990145 0.327407 0.245254
C4    C     C_2   0.635413 0.645666 0.327480 0.245206
C5    C     C_2   0.010165 0.364484 0.327513 0.245276
C6    C     C_R   0.447768 0.492058 0.214745 0.339223
C7    C     C_R   0.044229 0.552133 0.214742 0.339224
C8    C     C_R   0.010613 0.443263 0.850247 -0.006456
C9    C     C_R   0.556898 0.568122 0.850259 -0.006522
C10   C     C_R   0.431728 0.988901 0.850282 -0.006550
C11   C     C_R   0.443317 0.011608 0.350152 -0.006484
C12   C     C_R   0.568101 0.556732 0.350190 -0.006474
C13   C     C_R   0.988508 0.431799 0.350200 -0.006308
C14   C     C_R   0.042781 0.449811 0.888834 0.061603
C15   C     C_R   0.559156 0.138614 0.555546 0.570648
C16   C     C_R   0.550360 0.593104 0.888933 0.061638
C17   C     C_R   0.406658 0.957190 0.888930 0.061791
C18   C     C_R   0.449766 0.043081 0.388829 0.061618
C19   C     C_R   0.593134 0.550269 0.388870 0.061603
C20   C     C_R   0.957075 0.406826 0.388883 0.061693
C21   C     C_R   0.068951 0.615478 0.893128 -0.143319
C22   C     C_R   0.384321 0.454158 0.892919 -0.143399
C23   C     C_R   0.546118 0.930909 0.893043 -0.143370
C24   C     C_R   0.615629 0.069699 0.392966 -0.143491
C25   C     C_R   0.454055 0.384314 0.392942 -0.143688
C26   C     C_R   0.861362 0.420452 0.555574 0.565204
C27   C     C_R   0.930055 0.545827 0.392907 -0.143555
C28   C     C_R   0.033364 0.608771 0.855561 0.074697
C29   C     C_R   0.391020 0.425827 0.855265 0.074665
C30   C     C_R   0.574560 0.966206 0.855422 0.074846
C31   C     C_R   0.609009 0.034729 0.355307 0.074668
C32   C     C_R   0.425692 0.390940 0.355279 0.074600
C33   C     C_R   0.964987 0.574137 0.355241 0.074647
C34   C     C_R   0.007266 0.524038 0.833437 0.050258
C35   C     C_R   0.475924 0.484580 0.833245 0.050216
C36   C     C_R   0.515594 0.992025 0.833345 0.050056
C37   C     C_R   0.440909 0.579473 0.055530 0.569235
C38   C     C_R   0.524239 0.008816 0.333218 0.050274
C39   C     C_R   0.484475 0.475761 0.333220 0.050255
C40   C     C_R   0.991079 0.515367 0.333204 0.050225
C41   C     C_R   0.077798 0.538630 0.909439 0.030670
C42   C     C_R   0.461356 0.539367 0.909418 0.030717
C43   C     C_R   0.460620 0.922204 0.909460 0.030662
C44   C     C_R   0.538648 0.078068 0.409397 0.030705
C45   C     C_R   0.539344 0.461338 0.409404 0.030589
C46   C     C_R   0.921903 0.460608 0.409397 0.030449
C47   C     C_R   0.577862 0.442223 0.445423 0.578381
C48   C     C_R   0.138590 0.559103 0.055532 0.569224
C49   C     C_R   0.557773 0.135655 0.445421 0.578460
C50   C     C_R   0.864344 0.422131 0.445422 0.577860
C51   C     C_R   0.442220 0.577867 0.945426 0.578692
C52   C     C_R   0.135664 0.557799 0.945409 0.578603
C53   C     C_R   0.422120 0.864379 0.945431 0.578640
C54   C     C_R   0.907103 0.449499 0.594215 0.049821
C55   C     C_R   0.550084 0.457691 0.594041 0.062670
C56   C     C_R   0.542582 0.092526 0.594079 0.061462
C57   C     C_R   0.449967 0.907671 0.094033 0.062488
C58   C     C_R   0.457772 0.550043 0.094026 0.062490
C59   C     C_R   0.420534 0.861423 0.055532 0.569213
C60   C     C_R   0.092350 0.542257 0.094030 0.062495
C61   C     C_R   0.908060 0.379057 0.619566 0.097572
C62   C     C_R   0.620047 0.529591 0.619247 0.093063
C63   C     C_R   0.469940 0.089458 0.619148 0.091732
C64   C     C_R   0.379961 0.909422 0.119256 0.092592
C65   C     C_R   0.529495 0.620062 0.119269 0.092579
C66   C     C_R   0.090703 0.470557 0.119275 0.092588
C67   C     C_R   0.925173 0.400756 0.658973 -0.084410
C68   C     C_R   0.598368 0.526554 0.658502 -0.097969
C69   C     C_R   0.473028 0.071079 0.658439 -0.098923
C70   C     C_R   0.952656 0.507430 0.715076 0.338451
C71   C     C_R   0.401719 0.928119 0.158506 -0.098167
C72   C     C_R   0.526435 0.598296 0.158518 -0.098162
C73   C     C_R   0.071968 0.473585 0.158519 -0.098174
C74   C     C_R   0.944287 0.491708 0.673301 0.020889
C75   C     C_R   0.507633 0.454761 0.672998 0.023363
C76   C     C_R   0.545608 0.053471 0.673090 0.022292
C77   C     C_R   0.492558 0.947269 0.172984 0.023098
C78   C     C_R   0.454783 0.507437 0.172972 0.023096
C79   C     C_R   0.052678 0.545183 0.172970 0.023085
C80   C     C_R   0.952714 0.564520 0.647840 -0.133660
C81   C     C_R   0.492313 0.447857 0.714775 0.339289
C82   C     C_R   0.435022 0.389292 0.647697 -0.132806
C83   C     C_R   0.611961 0.047507 0.647931 -0.123818
C84   C     C_R   0.565199 0.954615 0.147664 -0.132931
C85   C     C_R   0.389538 0.434781 0.147635 -0.132962
C86   C     C_R   0.045250 0.610428 0.147629 -0.132906
C87   C     C_R   0.933255 0.543213 0.608578 -0.160422
C88   C     C_R   0.456432 0.390166 0.608477 -0.161767
C89   C     C_R   0.611052 0.067833 0.608693 -0.147154
C90   C     C_R   0.543722 0.934048 0.108444 -0.161550
C91   C     C_R   0.390447 0.456266 0.108416 -0.161528
C92   C     C_R   0.552401 0.045182 0.714878 0.339612
C93   C     C_R   0.065857 0.609554 0.108416 -0.161530
C94   C     C_R   0.981749 0.522605 0.792378 0.392615
C95   C     C_R   0.477385 0.461180 0.792111 0.392441
C96   C     C_R   0.539067 0.017016 0.792221 0.392257
C97   C     C_R   0.522845 0.983925 0.292096 0.392557
C98   C     C_R   0.461019 0.477142 0.292088 0.392548
C99   C     C_R   0.015939 0.538805 0.292075 0.392512
C100  C     C_2   0.988963 0.354453 0.827442 0.245138
C101  C     C_2   0.645929 0.635411 0.827601 0.245245
C102  C     C_2   0.364190 0.010208 0.827560 0.245272
Cr1   Cr    Cr6+3 0.522350 0.263930 0.500020 1.045926
Cr2   Cr    Cr6+3 0.736070 0.258420 0.500020 1.042593
Cr3   Cr    Cr6+3 0.741580 0.477650 0.500020 1.046627
Cr4   Cr    Cr6+3 0.263930 0.522350 0.000020 1.046155
Cr5   Cr    Cr6+3 0.258420 0.736070 0.000020 1.046125
Cr6   Cr    Cr6+3 0.477650 0.741580 0.000020 1.046147
H1    H     H_    0.933572 0.598432 0.589763 0.133311
H2    H     H_    0.346254 0.925228 0.177941 0.145439
H3    H     H_    0.578971 0.653771 0.177969 0.145444
H4    H     H_    0.074935 0.421055 0.177970 0.145424
H5    H     H_    0.968775 0.635692 0.658609 0.137616
H6    H     H_    0.364035 0.334099 0.658586 0.137235
H7    H     H_    0.667804 0.032795 0.658947 0.137977
H8    H     H_    0.636268 0.970580 0.158537 0.137755
H9    H     H_    0.334465 0.363698 0.158492 0.137746
H10   H     H_    0.029184 0.665466 0.158481 0.137754
H11   H     H_    0.093600 0.683017 0.909137 0.133891
H12   H     H_    0.401418 0.334622 0.589802 0.132009
H13   H     H_    0.316642 0.411289 0.908842 0.134079
H14   H     H_    0.589156 0.906340 0.909008 0.133817
H15   H     H_    0.683212 0.094306 0.408950 0.133635
H16   H     H_    0.411150 0.316694 0.408903 0.133714
H17   H     H_    0.905303 0.588720 0.408850 0.133825
H18   H     H_    0.878456 0.237551 0.628896 0.220453
H19   H     H_    0.946650 0.293596 0.589800 0.237198
H20   H     H_    0.725066 0.671485 0.612367 0.231082
H21   H     H_    0.767927 0.593915 0.621171 0.229004
H22   H     H_    0.327536 0.050515 0.612058 0.231142
H23   H     H_    0.667273 0.069347 0.590148 0.138772
H24   H     H_    0.403689 0.171263 0.620793 0.228908
H25   H     H_    0.232114 0.825525 0.121209 0.228351
H26   H     H_    0.274621 0.945895 0.112420 0.231778
H27   H     H_    0.671273 0.725459 0.112469 0.231785
H28   H     H_    0.593354 0.767899 0.121242 0.228321
H29   H     H_    0.054439 0.328808 0.112466 0.231774
H30   H     H_    0.174773 0.406789 0.121275 0.228343
H31   H     H_    0.089763 0.350548 0.890009 0.237114
H32   H     H_    0.974030 0.308329 0.907310 0.213634
H33   H     H_    0.650329 0.739111 0.890538 0.237302
H34   H     H_    0.598769 0.933677 0.089750 0.133193
H35   H     H_    0.691760 0.664652 0.907535 0.213580
H36   H     H_    0.334419 0.026394 0.907451 0.213593
H37   H     H_    0.260487 0.910470 0.890403 0.237351
H38   H     H_    0.350109 0.089538 0.390327 0.237065
H39   H     H_    0.308284 0.973570 0.407301 0.213316
H40   H     H_    0.739190 0.650088 0.390426 0.237070
H41   H     H_    0.664894 0.691721 0.407392 0.213284
H42   H     H_    0.026893 0.335195 0.407438 0.212554
H43   H     H_    0.910962 0.260798 0.390476 0.237320
H44   H     H_    0.947828 0.282133 0.840354 0.095199
H45   H     H_    0.335059 0.401208 0.089706 0.133213
H46   H     H_    0.718179 0.665843 0.840521 0.095130
H47   H     H_    0.333513 0.051859 0.840417 0.095194
H48   H     H_    0.282137 0.948584 0.340277 0.095049
H49   H     H_    0.666026 0.717956 0.340369 0.094998
H50   H     H_    0.051875 0.333913 0.340422 0.094940
H51   H     H_    0.951612 0.665167 0.835446 0.228701
H52   H     H_    0.053327 0.748222 0.858467 0.227187
H53   H     H_    0.334148 0.287978 0.834789 0.228940
H54   H     H_    0.251308 0.306702 0.857935 0.227116
H55   H     H_    0.712451 0.047874 0.835085 0.228837
H56   H     H_    0.066156 0.664933 0.089705 0.133155
H57   H     H_    0.694181 0.946425 0.858214 0.227238
H58   H     H_    0.665694 0.953547 0.334877 0.228709
H59   H     H_    0.748591 0.054981 0.358089 0.227002
H60   H     H_    0.287827 0.334120 0.334803 0.228684
H61   H     H_    0.306493 0.251283 0.358009 0.226969
H62   H     H_    0.045914 0.711979 0.334748 0.228733
H63   H     H_    0.944401 0.693267 0.357931 0.227104
H64   H     H_    0.922085 0.345814 0.678757 0.143124
H65   H     H_    0.653806 0.579246 0.677924 0.145239
H66   H     H_    0.419718 0.072945 0.677764 0.145386
N1    N     N_R   0.903943 0.442096 0.776960 -0.195249
N2    N     N_R   0.434784 0.892877 0.238536 -0.200774
N3    N     N_R   0.457981 0.565157 0.238517 -0.200760
N4    N     N_R   0.107076 0.541894 0.238545 -0.200760
N5    N     N_R   0.027802 0.590100 0.730537 -0.201815
N6    N     N_R   0.409655 0.440138 0.730320 -0.201754
N7    N     N_R   0.560870 0.970720 0.730487 -0.202372
N8    N     N_R   0.590575 0.030617 0.230321 -0.200969
N9    N     N_R   0.440170 0.409455 0.230311 -0.200947
N10   N     N_R   0.969193 0.559707 0.230273 -0.201004
N11   N     N_R   0.042309 0.597333 0.768603 -0.147030
N12   N     N_R   0.557903 0.464132 0.776594 -0.194977
N13   N     N_R   0.402557 0.447148 0.768405 -0.147329
N14   N     N_R   0.553843 0.956642 0.768575 -0.147173
N15   N     N_R   0.597669 0.044728 0.268408 -0.146807
N16   N     N_R   0.447143 0.402362 0.268402 -0.146789
N17   N     N_R   0.955067 0.552698 0.268358 -0.146814
N18   N     N_3   0.886122 0.283902 0.605846 -0.595335
N19   N     N_3   0.715274 0.602259 0.605819 -0.594024
N20   N     N_3   0.396383 0.110566 0.605538 -0.594235
N21   N     N_3   0.284611 0.886591 0.105855 -0.593839
N22   N     N_3   0.601965 0.715432 0.105887 -0.593870
N23   N     N_R   0.535375 0.094152 0.776639 -0.195050
N24   N     N_3   0.113683 0.398138 0.105902 -0.593869
N25   N     N_3   0.045313 0.368479 0.906557 -0.602305
N26   N     N_3   0.631918 0.676291 0.906880 -0.602280
N27   N     N_3   0.323153 0.955053 0.906797 -0.602185
N28   N     N_3   0.368266 0.044965 0.406694 -0.602660
N29   N     N_3   0.676427 0.631811 0.406774 -0.602677
N30   N     N_3   0.955430 0.323605 0.406813 -0.604187
N31   N     N_3   0.026179 0.689076 0.839229 -0.579964
N32   N     N_3   0.310536 0.338815 0.838742 -0.579900
N33   N     N_3   0.661905 0.973328 0.838988 -0.579656
N34   N     N_R   0.442348 0.906344 0.276565 -0.195504
N35   N     N_3   0.689442 0.028018 0.338849 -0.579736
N36   N     N_3   0.338623 0.310459 0.338786 -0.579752
N37   N     N_3   0.971479 0.661147 0.338725 -0.579634
N38   N     N_R   0.463837 0.557592 0.276550 -0.195461
N39   N     N_R   0.093595 0.536001 0.276572 -0.195496
N40   N     N_R   0.890066 0.434405 0.738949 -0.199249
N41   N     N_R   0.565478 0.458248 0.738565 -0.199884
N42   N     N_R   0.541257 0.107561 0.738604 -0.199013
O1    O     O_R   0.498680 0.159540 0.541860 -0.470239
O2    O     O_R   0.358060 0.532760 0.040030 -0.515757
O3    O     O_R   0.174700 0.641940 0.040030 -0.515794
O4    O     O_R   0.467240 0.825300 0.040030 -0.515793
O5    O     O_R   0.498590 0.161190 0.456930 -0.470538
O6    O     O_R   0.838810 0.337400 0.456930 -0.471837
O7    O     O_R   0.662600 0.501410 0.456930 -0.470605
O8    O     O_R   0.161190 0.498590 0.956930 -0.470276
O9    O     O_R   0.337400 0.838810 0.956930 -0.470324
O10   O     O_R   0.501410 0.662600 0.956930 -0.470351
O11   O     O_R   0.532680 0.359580 0.461300 -0.520310
O12   O     O_R   0.840460 0.339140 0.541860 -0.482086
O13   O     O_R   0.640420 0.173100 0.461300 -0.520411
O14   O     O_R   0.826900 0.467320 0.461300 -0.519983
O15   O     O_R   0.359580 0.532680 0.961300 -0.519987
O16   O     O_R   0.173100 0.640420 0.961300 -0.519977
O17   O     O_R   0.467320 0.826900 0.961300 -0.519941
O18   O     O_3   0.666667 0.333333 0.499990 -0.261811
O19   O     O_3   0.333333 0.666667 0.999990 -0.263550
O20   O     O_2   0.021250 0.361550 0.794773 -0.453910
O21   O     O_2   0.639113 0.661558 0.795064 -0.453463
O22   O     O_2   0.338110 0.977046 0.795048 -0.453452
O23   O     O_R   0.660860 0.501320 0.541860 -0.469563
O24   O     O_2   0.361496 0.023051 0.294848 -0.453272
O25   O     O_2   0.661374 0.638724 0.294933 -0.453298
O26   O     O_2   0.977259 0.338477 0.294963 -0.453291
O27   O     O_R   0.159540 0.498680 0.041860 -0.469513
O28   O     O_R   0.339140 0.840460 0.041860 -0.469486
O29   O     O_R   0.501320 0.660860 0.041860 -0.469474
O30   O     O_R   0.532760 0.358060 0.540030 -0.515942
O31   O     O_R   0.641940 0.174700 0.540030 -0.511680
O32   O     O_R   0.825300 0.467240 0.540030 -0.511571

loop_
_geom_bond_atom_site_label_1
_geom_bond_atom_site_label_2
_ccdc_geom_bond_type
C44   C49   S    
C99   N17   A    
C55   C62   A    
C11   C18   A    
C22   C29   A    
C25   C45   A    
C71   C77   A    
C27   H17   S    
Cr3   O18   S    
C96   N14   A    
C94   N11   A    
H42   N30   S    
H43   N30   S    
C98   N16   A    
C63   N20   S    
C40   C99   S    
C85   C91   A    
C23   C43   A    
C22   C42   A    
C27   C33   A    
C68   C75   A    
H35   N26   S    
C7    N10   A    
C57   C64   A    
N3    N38   A    
N6    N13   A    
H32   N25   S    
H33   N26   S    
H63   N37   S    
C91   H45   S    
C80   C87   A    
C18   C44   A    
C92   N7    A    
C48   O27   A    
H58   N35   S    
C54   C87   A    
H31   N25   S    
C70   N5    A    
C6    C78   S    
H61   N36   S    
C10   C17   A    
Cr1   O11   S    
C29   C35   A    
C71   H2    S    
C37   O29   A    
Cr4   O15   S    
C69   C76   A    
C2    N8    A    
C32   C39   A    
H55   N33   S    
C55   C88   A    
C36   C96   S    
C13   C40   A    
C72   C78   A    
C2    N2    A    
H27   N22   S    
C43   C53   S    
Cr4   O8    S    
H62   N37   S    
C63   C69   A    
C26   O12   A    
C70   C74   S    
C61   N18   S    
C49   O13   A    
Cr2   O12   S    
N8    N15   A    
C5    O26   D    
C15   O1    A    
C58   C91   A    
H41   N29   S    
C41   C52   S    
C5    C13   S    
C37   C58   S    
C13   C20   A    
C42   C51   S    
C50   O14   A    
C65   N22   S    
C53   O9    A    
C60   C93   A    
C25   C32   A    
C97   N15   A    
H52   N31   S    
Cr6   O19   S    
C28   C34   A    
C84   H8    S    
C74   C80   A    
Cr5   O16   S    
H54   N32   S    
H24   N20   S    
C28   N31   S    
C84   C90   A    
C37   O2    A    
C38   C97   S    
C26   C54   S    
C76   C83   A    
Cr2   O6    S    
N7    N14   A    
C26   O32   A    
C46   C50   S    
C48   C60   S    
C23   H14   S    
C45   C47   S    
Cr3   O23   S    
C96   N23   A    
C83   C89   A    
N10   N17   A    
Cr1   O30   S    
C102  O22   D    
C57   C90   A    
C64   C71   A    
C33   C40   A    
C23   C30   A    
C83   H7    S    
C10   C102  S    
C3    C11   S    
H20   N19   S    
C20   N30   S    
C86   H10   S    
Cr4   O19   S    
C75   C81   S    
C39   C98   S    
C99   N39   A    
C93   H56   S    
H51   N31   S    
Cr3   O7    S    
C66   C73   A    
C98   N38   A    
Cr6   O29   S    
C24   H15   S    
C100  H44   S    
C29   N32   S    
C7    N4    A    
C59   O28   A    
C70   N40   A    
C11   C38   A    
C17   N27   S    
C17   C43   A    
Cr3   O32   S    
C89   H23   S    
C86   C93   A    
C94   N1    A    
C32   N36   S    
C61   C67   A    
C58   C65   A    
C4    H49   S    
C31   N35   S    
H25   N21   S    
Cr2   O31   S    
N12   N41   A    
C51   O10   A    
C19   N29   S    
C73   C79   A    
C56   C63   A    
C18   N28   S    
C67   C74   A    
C8    C34   A    
N1    N40   A    
C85   H9    S    
H57   N33   S    
C82   H6    S    
C66   N24   S    
N23   N42   A    
C76   C92   S    
C14   C41   A    
C21   C41   A    
H30   N24   S    
C27   C46   A    
C56   C89   A    
Cr4   O2    S    
C21   C28   A    
Cr1   O1    S    
C95   N13   A    
Cr1   O18   S    
C35   C95   S    
C6    N3    A    
C24   C44   A    
Cr5   O3    S    
Cr5   O28   S    
C100  O20   D    
C88   H12   S    
C69   H66   S    
Cr5   O19   S    
N9    N16   A    
C53   O17   A    
C4    O25   D    
H18   N18   S    
C64   N21   S    
C78   C85   A    
C22   H13   S    
C7    C79   S    
C73   H4    S    
C47   O7    A    
Cr6   O17   S    
C50   O6    A    
C8    C14   A    
N4    N39   A    
C49   O5    A    
C16   C42   A    
C1    O23   A    
H39   N28   S    
C52   O16   A    
C34   C94   S    
C81   N6    A    
C15   O31   A    
H22   N20   S    
H28   N22   S    
C16   N26   S    
H21   N19   S    
C68   H65   S    
C19   C45   A    
C75   C82   A    
C52   O8    A    
C87   H1    S    
C54   C61   A    
C51   O15   A    
C67   H64   S    
C90   H34   S    
C65   C72   A    
C14   N25   S    
C3    O24   D    
H19   N18   S    
C77   C84   A    
C31   C38   A    
C30   C36   A    
C6    N9    A    
C59   O4    A    
H26   N21   S    
Cr3   O14   S    
N2    N34   A    
C12   C39   A    
C1    C55   S    
C24   C31   A    
H38   N28   S    
C2    C77   S    
C15   C56   S    
Cr6   O4    S    
H37   N27   S    
C33   N37   S    
Cr2   O13   S    
C81   N41   A    
H59   N35   S    
Cr6   O10   S    
C101  H46   S    
C82   C88   A    
C30   N33   S    
Cr5   O9    S    
C12   C19   A    
Cr2   O18   S    
C3    H48   S    
N5    N11   A    
C92   N42   A    
C62   C68   A    
C101  O21   D    
C97   N34   A    
C8    C100  S    
H53   N32   S    
C25   H16   S    
C20   C46   A    
C72   H3    S    
C57   C59   S    
C60   C66   A    
H36   N27   S    
Cr4   O27   S    
C21   H11   S    
C47   O11   A    
C80   H5    S    
H40   N29   S    
H60   N36   S    
C9    C101  S    
C5    H50   S    
C9    C35   A    
H29   N24   S    
C10   C36   A    
C62   N19   S    
C1    O30   A    
C4    C12   S    
C102  H47   S    
C79   C86   A    
Cr1   O5    S    
C95   N12   A    
C9    C16   A    
C48   O3    A    
