data_mof_unit_49870.cif
_audit_creation_date              2012-12-10T21:32:03-0500
_audit_creation_method            fapswitch 2.2
_symmetry_space_group_name_H-M    P1
_symmetry_Int_Tables_number       1
_space_group_crystal_system       triclinic
_cell_length_a                    15.282038
_cell_length_b                    16.112093
_cell_length_c                    16.420197
_cell_angle_alpha                 92.296533
_cell_angle_beta                  89.203004
_cell_angle_gamma                 110.614112
_cell_volume                      3781.16721081

loop_
_atom_site_label
_atom_site_type_symbol
_atom_type_description
_atom_site_fract_x
_atom_site_fract_y
_atom_site_fract_z
_atom_type_partial_charge
C1    C     C_R   0.504878 0.490704 0.346276 0.922064
C2    C     C_R   0.501925 0.511992 0.653689 0.912661
C3    C     C_R   0.898748 0.395187 0.414396 -0.253563
C4    C     C_R   0.104863 0.603153 0.432678 -0.270765
C5    C     C_R   0.940115 0.331179 0.418633 -0.226994
C6    C     C_R   0.064490 0.667563 0.440151 -0.194662
C7    C     C_R   0.530926 0.492063 0.260356 -0.359382
C8    C     C_R   0.518528 0.526813 0.741011 -0.342790
C9    C     C_R   0.606667 0.564301 0.230818 -0.218523
C10   C     C_R   0.606802 0.535648 0.773284 -0.217368
C11   C     C_R   0.637332 0.559390 0.150605 0.536913
C12   C     C_R   0.622978 0.555665 0.856871 0.539991
C13   C     C_R   0.586772 0.488082 0.098382 -0.012023
C14   C     C_R   0.548204 0.555176 0.908439 -0.027701
C15   C     C_R   0.515894 0.413576 0.128397 -0.194284
C16   C     C_R   0.463219 0.554251 0.875675 -0.173256
C17   C     C_R   0.485276 0.417235 0.209425 0.487218
C18   C     C_R   0.448173 0.539014 0.791097 0.460777
C19   C     C_R   0.547449 0.781479 0.537547 -0.202776
C20   C     C_R   0.444954 0.220286 0.466365 -0.234528
C21   C     C_R   0.547512 0.868464 0.532396 0.427512
C22   C     C_R   0.439884 0.130998 0.469004 0.419117
C23   C     C_R   0.324860 0.443918 0.501946 0.879459
C24   C     C_R   0.674601 0.555694 0.496318 0.817547
C25   C     C_R   0.481063 0.884254 0.481077 0.152541
C26   C     C_R   0.503255 0.111032 0.519938 0.175770
C27   C     C_R   0.422937 0.813101 0.433024 -0.467631
C28   C     C_R   0.568865 0.180300 0.564412 -0.483547
C29   C     C_R   0.429480 0.728156 0.436310 0.612591
C30   C     C_R   0.573931 0.268645 0.557400 0.619125
C31   C     C_R   0.222136 0.406981 0.489379 -0.246990
C32   C     C_R   0.776044 0.590907 0.481471 -0.224844
C33   C     C_R   0.075520 0.289991 0.449062 0.496011
C34   C     C_R   0.928700 0.707513 0.473928 0.505000
C35   C     C_R   0.167772 0.315180 0.480886 -0.143136
C36   C     C_R   0.834608 0.679381 0.500838 -0.118705
C37   C     C_R   0.180412 0.469539 0.476185 -0.232555
C38   C     C_R   0.814125 0.531326 0.445207 -0.298160
C39   C     C_R   0.089345 0.446216 0.447726 0.008466
C40   C     C_R   0.910498 0.552960 0.437684 0.028122
C41   C     C_R   0.035065 0.355309 0.437431 0.027377
C42   C     C_R   0.967904 0.643255 0.449410 0.017192
C43   C     C_R   0.049734 0.512100 0.434708 0.108357
C44   C     C_R   0.951711 0.486549 0.426525 0.120090
H1    H     H_    0.895760 0.262135 0.411373 0.178575
H2    H     H_    0.110246 0.736379 0.444202 0.196050
H3    H     H_    0.394442 0.237081 0.431589 0.179137
H4    H     H_    0.595584 0.768346 0.578374 0.166764
H5    H     H_    0.372391 0.823649 0.392977 0.184974
H6    H     H_    0.615738 0.164918 0.604831 0.185795
H7    H     H_    0.767038 0.465805 0.428405 0.168845
H8    H     H_    0.219693 0.537937 0.491868 0.202168
H9    H     H_    0.824842 0.370425 0.402058 0.136520
H10   H     H_    0.179965 0.626657 0.427123 0.181413
N1    N     N_2   0.594314 0.498589 0.013819 -0.113946
N2    N     N_2   0.555079 0.550644 0.993655 -0.161068
N3    N     N_R   0.489120 0.713640 0.490430 -0.140349
N4    N     N_R   0.510880 0.286360 0.509570 -0.142418
N5    N     N_2   0.473972 0.969832 0.471578 -0.115135
N6    N     N_2   0.503582 0.023400 0.530637 -0.087927
O1    O     O_R   0.503890 0.423710 0.387290 -0.571590
O2    O     O_R   0.496110 0.576290 0.612710 -0.581213
O3    O     O_R   0.496910 0.560910 0.381140 -0.613044
O4    O     O_R   0.503090 0.439090 0.618860 -0.585768
O5    O     O_R   0.373240 0.392210 0.504830 -0.638563
O6    O     O_R   0.626760 0.607790 0.495170 -0.651420
O7    O     O_R   0.366260 0.529410 0.498680 -0.547811
O8    O     O_R   0.633740 0.470590 0.501320 -0.581172
Zn1   Zn    Zn3+2 0.504660 0.408390 0.504100 0.968502
Zn2   Zn    Zn3+2 0.495340 0.591610 0.495900 0.969251
O9    O     O_3   0.366320 0.062538 0.432780 -0.607782
C45   C     C_3   0.359121 0.074339 0.348384 0.085291
H11   H     H_    0.362061 0.013825 0.315327 0.165860
H12   H     H_    0.417145 0.131470 0.323367 0.135088
C46   C     C_3   0.264821 0.083348 0.330631 -0.322528
H13   H     H_    0.207579 0.027100 0.356917 0.249642
H14   H     H_    0.262462 0.146016 0.359376 0.234637
C47   C     C_3   0.248582 0.083890 0.239262 -0.944427
H15   H     H_    0.305341 0.139305 0.211564 0.313685
H16   H     H_    0.180924 0.092793 0.228678 0.255766
H17   H     H_    0.246140 0.020035 0.209374 0.271053
O10   O     O_3   0.609503 0.935106 0.580701 -0.616434
C48   C     C_3   0.683487 0.989830 0.532588 0.058922
H18   H     H_    0.704449 0.058435 0.559469 0.171675
H19   H     H_    0.663723 0.993472 0.467963 0.125859
C49   C     C_3   0.767461 0.959427 0.535066 -0.354373
H20   H     H_    0.785152 0.953680 0.599531 0.268620
H21   H     H_    0.749309 0.893335 0.503332 0.224621
C50   C     C_3   0.852409 0.024916 0.493737 -0.836366
H22   H     H_    0.837974 0.028067 0.428053 0.244622
H23   H     H_    0.913225 0.003181 0.499432 0.288504
H24   H     H_    0.870500 0.092119 0.523232 0.279656
O11   O     O_3   0.370274 0.656935 0.390602 -0.630124
C51   C     C_3   0.380637 0.671784 0.305886 0.079289
H25   H     H_    0.408362 0.622430 0.277384 0.178559
H26   H     H_    0.430573 0.738476 0.289762 0.128180
C52   C     C_3   0.284918 0.657213 0.268832 -0.391330
H27   H     H_    0.234980 0.591284 0.285654 0.245846
H28   H     H_    0.258266 0.708945 0.293745 0.216680
C53   C     C_3   0.290059 0.661046 0.176128 -0.904912
H29   H     H_    0.338440 0.727002 0.157700 0.269677
H30   H     H_    0.219489 0.650148 0.151317 0.271325
H31   H     H_    0.314788 0.608557 0.149897 0.258414
O12   O     O_3   0.636345 0.336745 0.604181 -0.611758
C54   C     C_3   0.730035 0.344681 0.586401 0.073340
H32   H     H_    0.768948 0.414833 0.572208 0.191783
H33   H     H_    0.738023 0.303700 0.532223 0.103004
C55   C     C_3   0.776059 0.323293 0.661032 -0.324256
H34   H     H_    0.774132 0.368837 0.712968 0.279697
H35   H     H_    0.737537 0.254516 0.679483 0.211983
C56   C     C_3   0.877462 0.333107 0.643478 -0.925832
H36   H     H_    0.880887 0.285422 0.593840 0.267055
H37   H     H_    0.909250 0.318924 0.699184 0.270650
H38   H     H_    0.918261 0.401733 0.625416 0.278226
C57   C     C_2   0.801850 0.738620 0.555674 0.384279
H39   H     H_    0.732792 0.715402 0.582383 0.065763
O13   O     O_2   0.853683 0.813228 0.576066 -0.551908
C58   C     C_2   0.202949 0.246885 0.511951 0.406364
H40   H     H_    0.259833 0.265303 0.555371 0.095012
O14   O     O_2   0.166548 0.168297 0.492854 -0.561638
O15   O     O_3   0.021713 0.201255 0.435415 -0.634302
C59   C     C_3   0.044644 0.170566 0.358672 0.144670
H41   H     H_    0.038010 0.100186 0.364664 0.184473
H42   H     H_    0.118157 0.206453 0.339065 0.132252
C60   C     C_3   0.976419 0.174515 0.292752 -0.433070
H43   H     H_    0.903471 0.138965 0.312827 0.231825
H44   H     H_    0.985038 0.244709 0.282935 0.229880
C61   C     C_3   0.993352 0.132430 0.211982 -0.937840
H45   H     H_    0.066117 0.166327 0.190763 0.257794
H46   H     H_    0.944525 0.138720 0.165197 0.277893
H47   H     H_    0.980837 0.060916 0.218760 0.270492
O16   O     O_3   0.986152 0.795880 0.481648 -0.600573
C62   C     C_3   0.968912 0.843027 0.416391 0.144177
H48   H     H_    0.993672 0.914312 0.435797 0.189644
H49   H     H_    0.892956 0.823752 0.402159 0.135658
C63   C     C_3   0.023701 0.833090 0.339830 -0.437785
H50   H     H_    0.099233 0.853780 0.354895 0.237358
H51   H     H_    0.998823 0.762692 0.317512 0.224030
C64   C     C_3   0.011498 0.889816 0.271845 -0.931708
H52   H     H_    0.936506 0.870057 0.255206 0.282158
H53   H     H_    0.051249 0.880672 0.217209 0.274973
H54   H     H_    0.038620 0.960933 0.291711 0.256215
C65   C     C_2   0.683275 0.528142 0.719366 0.494400
H55   H     H_    0.677958 0.529409 0.654115 0.054897
O17   O     O_2   0.753316 0.519873 0.747081 -0.549506
C66   C     C_2   0.656247 0.644111 0.283343 0.439827
H56   H     H_    0.664267 0.638437 0.347812 0.075128
O18   O     O_2   0.688752 0.717557 0.254778 -0.548257
O19   O     O_3   0.711781 0.573983 0.888521 -0.580469
C67   C     C_3   0.753171 0.666070 0.908167 0.132449
H57   H     H_    0.813761 0.675205 0.948358 0.166375
H58   H     H_    0.705264 0.692604 0.943408 0.155530
C68   C     C_3   0.789810 0.720130 0.831964 -0.388686
H59   H     H_    0.838457 0.693565 0.798334 0.270787
H60   H     H_    0.730678 0.715005 0.791079 0.206916
C69   C     C_3   0.841319 0.817892 0.854616 -0.886435
H61   H     H_    0.793693 0.846355 0.887393 0.264613
H62   H     H_    0.866545 0.855127 0.798364 0.287768
H63   H     H_    0.902479 0.825674 0.893938 0.264197
O20   O     O_3   0.714652 0.626836 0.121794 -0.594353
C70   C     C_3   0.793027 0.598934 0.119405 0.111774
H64   H     H_    0.845583 0.643134 0.078244 0.163142
H65   H     H_    0.775765 0.530164 0.092988 0.138268
C71   C     C_3   0.838448 0.607785 0.203853 -0.386467
H66   H     H_    0.852945 0.675997 0.230004 0.255319
H67   H     H_    0.790293 0.559738 0.245417 0.204066
C72   C     C_3   0.929924 0.589627 0.198904 -0.940778
H68   H     H_    0.917215 0.521427 0.173558 0.271586
H69   H     H_    0.960296 0.595668 0.260838 0.269237
H70   H     H_    0.981042 0.638384 0.159810 0.267956
C73   C     C_2   0.473304 0.334014 0.073374 0.430917
H71   H     H_    0.486466 0.337765 0.008282 0.085147
O21   O     O_2   0.425610 0.262499 0.099984 -0.563671
C74   C     C_2   0.390599 0.567320 0.931166 0.451550
H72   H     H_    0.400006 0.570800 0.996747 0.062010
O22   O     O_2   0.320145 0.576099 0.904917 -0.533283
O23   O     O_3   0.409218 0.349049 0.239245 -0.605950
C75   C     C_3   0.324884 0.353905 0.208389 0.119398
H73   H     H_    0.278110 0.285303 0.191509 0.184593
H74   H     H_    0.333829 0.392845 0.152090 0.118220
C76   C     C_3   0.276132 0.391983 0.273876 -0.386704
H75   H     H_    0.261015 0.349017 0.327248 0.225400
H76   H     H_    0.322388 0.459655 0.293753 0.227678
C77   C     C_3   0.185117 0.397105 0.241594 -0.965458
H77   H     H_    0.199549 0.442287 0.189788 0.273462
H78   H     H_    0.149974 0.423178 0.290379 0.274904
H79   H     H_    0.137470 0.330332 0.220876 0.267682
O24   O     O_3   0.366465 0.539907 0.756393 -0.581796
C78   C     C_3   0.301575 0.452212 0.749876 0.112648
H80   H     H_    0.285252 0.422830 0.811023 0.154900
H81   H     H_    0.329141 0.409554 0.709890 0.106401
C79   C     C_3   0.211540 0.454236 0.712297 -0.290412
H82   H     H_    0.182370 0.495669 0.751983 0.257111
H83   H     H_    0.227567 0.484879 0.651966 0.222173
C80   C     C_3   0.138619 0.361251 0.701678 -0.955842
H84   H     H_    0.168231 0.316731 0.667145 0.259271
H85   H     H_    0.078080 0.364503 0.667212 0.277728
H86   H     H_    0.114229 0.333307 0.762105 0.273177

loop_
_geom_bond_atom_site_label_1
_geom_bond_atom_site_label_2
_ccdc_geom_bond_type
C14   N2    S    
N1    N2    D    
O11   C51   S    
C27   C29   A    
C3    H9    S    
C56   H36   S    
C34   C42   A    
C73   H71   S    
C61   H45   S    
C52   C53   S    
C52   H27   S    
C71   H67   S    
C39   C41   A    
C76   H75   S    
C77   H77   S    
C73   O21   D    
C32   C36   A    
C71   H66   S    
C19   C21   A    
C63   C64   S    
C64   H54   S    
C49   H21   S    
O1    Zn1   S    
C57   H39   S    
C9    C66   S    
C11   C13   A    
C55   H34   S    
O2    Zn2   S    
C65   O17   D    
C23   O7    A    
C78   H81   S    
C58   H40   S    
C21   C25   A    
C52   H28   S    
C74   H72   S    
C28   H6    S    
C55   H35   S    
O8    Zn1   S    
C57   O13   D    
C67   C68   S    
C62   C63   S    
C32   C38   A    
N3    Zn2   S    
C68   H60   S    
C24   O6    A    
C80   H86   S    
C40   C42   A    
C60   H43   S    
C34   O16   S    
N5    N6    D    
C38   C40   A    
C1    C7    S    
C33   O15   S    
C72   H69   S    
C78   H80   S    
C45   C46   S    
C1    O3    A    
C53   H30   S    
O12   C54   S    
C70   H65   S    
C2    O4    A    
C11   O20   S    
C70   H64   S    
C72   H70   S    
C66   O18   D    
C59   H41   S    
C76   H76   S    
C54   C55   S    
C3    C44   A    
C27   H5    S    
C20   H3    S    
C79   C80   S    
C75   H73   S    
C20   N4    A    
C63   H51   S    
C72   H68   S    
C37   H8    S    
C47   H15   S    
O16   C62   S    
C39   C43   A    
C38   H7    S    
C51   C52   S    
C7    C17   A    
C5    H1    S    
C53   H31   S    
C19   N3    A    
C31   C37   A    
C1    O1    A    
O24   C78   S    
C50   H24   S    
C23   C31   S    
C78   C79   S    
C46   H13   S    
C24   C32   S    
C67   H58   S    
C60   C61   S    
C54   H33   S    
C48   H18   S    
O3    Zn2   S    
C8    C18   A    
C47   H16   S    
C15   C73   S    
C56   H37   S    
C16   C18   A    
O4    Zn1   S    
C68   C69   S    
C51   H26   S    
C46   H14   S    
O15   C59   S    
C10   C12   A    
C45   H12   S    
C48   H19   S    
C29   N3    A    
O10   C48   S    
C9    C11   A    
C13   C15   A    
C22   C26   A    
C62   H48   S    
C14   C16   A    
C4    C6    A    
C50   H23   S    
C59   H42   S    
C50   H22   S    
C61   H47   S    
C22   O9    S    
C70   C71   S    
C49   H20   S    
C62   H49   S    
C66   H56   S    
C76   C77   S    
C16   C74   S    
C7    C9    A    
C5    C41   A    
C69   H61   S    
C6    H2    S    
C4    H10   S    
C19   H4    S    
C12   O19   S    
C71   C72   S    
C2    C8    S    
C20   C22   A    
C45   H11   S    
C3    C5    A    
C49   C50   S    
C61   H46   S    
C75   H74   S    
C64   H52   S    
C77   H79   S    
N4    Zn1   S    
C15   C17   A    
C4    C43   A    
C69   H63   S    
C25   C27   A    
C54   H32   S    
C26   C28   A    
C55   C56   S    
O7    Zn2   S    
C33   C41   A    
O20   C70   S    
C23   O5    A    
C59   C60   S    
C69   H62   S    
C12   C14   A    
C18   O24   S    
O9    C45   S    
C37   C39   A    
O19   C67   S    
C79   H82   S    
C29   O11   S    
C64   H53   S    
C47   H17   S    
O6    Zn2   S    
C43   C44   A    
O5    Zn1   S    
C30   N4    A    
C31   C35   A    
C28   C30   A    
C53   H29   S    
C33   C35   A    
C74   O22   D    
C77   H78   S    
C56   H38   S    
C34   C36   A    
C10   C65   S    
C51   H25   S    
C46   C47   S    
C58   O14   D    
C75   C76   S    
C24   O8    A    
C80   H84   S    
C2    O2    A    
C40   C44   A    
C48   C49   S    
C21   O10   S    
C8    C10   A    
O23   C75   S    
C6    C42   A    
C30   O12   S    
C60   H44   S    
C67   H57   S    
C63   H50   S    
C35   C58   S    
C17   O23   S    
C25   N5    S    
C80   H85   S    
C68   H59   S    
C36   C57   S    
C26   N6    S    
C65   H55   S    
C79   H83   S    
C13   N1    S    
