data_mof_unit_44649.cif
_audit_creation_date              2012-12-10T17:39:08-0500
_audit_creation_method            fapswitch 2.2
_symmetry_space_group_name_H-M    P1
_symmetry_Int_Tables_number       1
_space_group_crystal_system       triclinic
_cell_length_a                    12.026127
_cell_length_b                    12.870862
_cell_length_c                    23.347467
_cell_angle_alpha                 90.640405
_cell_angle_beta                  87.281937
_cell_angle_gamma                 93.70639
_cell_volume                      3602.14032616

loop_
_atom_site_label
_atom_site_type_symbol
_atom_type_description
_atom_site_fract_x
_atom_site_fract_y
_atom_site_fract_z
_atom_type_partial_charge
C1    C     C_R   0.522236 0.700332 0.498537 0.924974
C2    C     C_R   0.504423 0.391036 0.302146 -0.038837
C3    C     C_R   0.537279 0.566157 0.764919 -0.217417
C4    C     C_R   0.498618 0.380876 0.243117 -0.197141
C5    C     C_R   0.505866 0.470446 0.790351 0.188611
C6    C     C_R   0.486274 0.468134 0.209586 0.158375
C7    C     C_R   0.464069 0.188182 0.501943 -0.123522
C8    C     C_R   0.535975 0.811813 0.497489 -0.142457
C9    C     C_R   0.647903 0.971241 0.511576 0.553549
C10   C     C_R   0.352217 0.028812 0.487504 0.554343
C11   C     C_R   0.638760 0.863266 0.508269 -0.266409
C12   C     C_R   0.477766 0.299673 0.501296 0.929814
C13   C     C_R   0.361367 0.136812 0.490920 -0.255749
C14   C     C_R   0.442374 0.866826 0.488517 -0.215541
C15   C     C_R   0.557676 0.133144 0.510794 -0.222564
C16   C     C_R   0.500967 0.500008 0.610268 0.905294
C17   C     C_R   0.498803 0.499308 0.389787 0.907310
C18   C     C_R   0.448346 0.973737 0.493437 -0.007128
C19   C     C_R   0.551754 0.026289 0.505683 -0.007738
C20   C     C_R   0.950879 0.401061 0.446769 -0.307308
C21   C     C_R   0.049218 0.598639 0.553172 -0.307015
C22   C     C_R   0.835732 0.410797 0.452004 0.019823
C23   C     C_R   0.472306 0.383439 0.757209 0.542791
C24   C     C_R   0.164222 0.588851 0.548120 0.023879
C25   C     C_R   0.859593 0.542911 0.522956 0.074071
C26   C     C_R   0.140782 0.457292 0.476713 0.074861
C27   C     C_R   0.976993 0.535934 0.519320 0.047369
C28   C     C_R   0.023265 0.463869 0.480473 0.047125
C29   C     C_R   0.579479 0.429845 0.119303 0.512861
C30   C     C_R   0.403760 0.483631 0.880363 0.589371
C31   C     C_R   0.389733 0.474351 0.121979 0.613688
C32   C     C_R   0.593756 0.439867 0.878063 0.537458
C33   C     C_R   0.388866 0.472612 0.061823 -0.143762
C34   C     C_R   0.479273 0.567381 0.234962 0.554219
C35   C     C_R   0.591248 0.432281 0.938078 -0.120809
C36   C     C_R   0.487803 0.449709 0.030133 -0.087728
C37   C     C_R   0.491484 0.453477 0.969644 -0.083011
C38   C     C_R   0.583088 0.423201 0.058994 -0.103464
C39   C     C_R   0.396443 0.481017 0.940774 -0.118351
C40   C     C_R   0.292894 0.495602 0.032890 0.486526
C41   C     C_R   0.685285 0.403772 0.966970 0.475309
C42   C     C_R   0.298267 0.504812 0.973079 -0.134471
C43   C     C_R   0.679095 0.393895 0.026755 -0.133205
C44   C     C_3   0.124655 0.425713 0.066705 -0.191478
C45   C     C_R   0.467947 0.394016 0.697703 -0.164943
C46   C     C_3   0.858849 0.464796 0.935520 -0.173601
C47   C     C_1   0.191626 0.386135 0.436762 0.215623
C48   C     C_1   0.809696 0.615619 0.562125 0.210636
C49   C     C_1   0.202479 0.543996 0.946948 0.347710
C50   C     C_1   0.771434 0.348872 0.053101 0.341989
C51   C     C_3   0.517196 0.222278 0.783283 -0.264813
C52   C     C_3   0.572100 0.698072 0.184526 -0.277544
C53   C     C_1   0.425313 0.306723 0.663768 0.242940
C54   C     C_1   0.467453 0.678612 0.321277 0.244933
C55   C     C_1   0.558683 0.679122 0.681421 0.200959
C56   C     C_R   0.479913 0.577567 0.294729 -0.174051
C57   C     C_1   0.518852 0.299115 0.335340 0.203905
C58   C     C_3   0.819596 0.027776 0.475739 -0.321982
C59   C     C_3   0.179624 0.973819 0.522902 -0.317226
C60   C     C_R   0.501827 0.490366 0.672050 -0.177701
C61   C     C_R   0.494666 0.489512 0.328065 -0.181369
C62   C     C_R   0.534767 0.577025 0.705877 -0.041195
H1    H     H_    0.219175 0.637124 0.574211 0.144174
H2    H     H_    0.711146 0.820173 0.515452 0.183891
H3    H     H_    0.048909 0.442122 0.093363 0.211820
H4    H     H_    0.165391 0.361820 0.087695 0.165985
H5    H     H_    0.097257 0.399858 0.023695 0.131048
H6    H     H_    0.823186 0.534651 0.917697 0.167974
H7    H     H_    0.931694 0.446252 0.907219 0.212780
H8    H     H_    0.889690 0.482900 0.978881 0.127989
H9    H     H_    0.588495 0.253088 0.808326 0.202558
H10   H     H_    0.546743 0.202742 0.738821 0.161236
H11   H     H_    0.483443 0.148775 0.803785 0.201691
H12   H     H_    0.780678 0.362318 0.426063 0.147501
H13   H     H_    0.620610 0.643385 0.157692 0.170577
H14   H     H_    0.619848 0.724571 0.222285 0.160735
H15   H     H_    0.561272 0.767492 0.158127 0.204737
H16   H     H_    0.897817 0.073006 0.486173 0.202308
H17   H     H_    0.781794 0.069078 0.440541 0.167635
H18   H     H_    0.842376 0.949027 0.461125 0.169945
H19   H     H_    0.216717 0.933843 0.558800 0.165166
H20   H     H_    0.101698 0.928090 0.512485 0.201731
H21   H     H_    0.156463 0.052980 0.536525 0.172820
H22   H     H_    0.982280 0.344487 0.416484 0.159758
H23   H     H_    0.017813 0.655108 0.583515 0.159516
H24   H     H_    0.560478 0.632678 0.791710 0.161996
H25   H     H_    0.504614 0.305203 0.222729 0.174723
H26   H     H_    0.636331 0.174056 0.520375 0.214978
H27   H     H_    0.363684 0.825857 0.479046 0.219072
H28   H     H_    0.289075 0.180018 0.483683 0.180000
N1    N     N_R   0.484646 0.456139 0.148740 -0.342043
N2    N     N_1   0.457532 0.759323 0.342563 -0.183256
N3    N     N_1   0.576985 0.761140 0.662000 -0.184305
N4    N     N_1   0.530518 0.225414 0.361776 -0.203697
N5    N     N_R   0.500945 0.463836 0.851249 -0.333690
N6    N     N_R   0.207800 0.519350 0.510590 -0.124119
N7    N     N_R   0.792200 0.480650 0.489410 -0.124668
N8    N     N_1   0.231681 0.329045 0.404452 -0.198740
N9    N     N_1   0.771120 0.674442 0.593839 -0.196436
N10   N     N_1   0.125980 0.575757 0.926360 -0.194801
N11   N     N_1   0.845219 0.312609 0.073870 -0.195228
N12   N     N_1   0.390959 0.236771 0.636894 -0.203184
O1    O     O_R   0.421690 0.658830 0.502820 -0.634699
O2    O     O_2   0.315076 0.505024 0.850268 -0.542555
O3    O     O_2   0.297518 0.495720 0.154018 -0.475907
O4    O     O_2   0.687644 0.423575 0.846164 -0.526271
O5    O     O_3   0.195231 0.517640 0.063212 -0.563758
O6    O     O_3   0.781354 0.377531 0.936527 -0.571191
O7    O     O_3   0.431731 0.292392 0.784020 -0.597369
O8    O     O_3   0.465716 0.653123 0.201368 -0.578320
O9    O     O_3   0.748089 0.022161 0.525389 -0.611599
O10   O     O_3   0.252103 0.977843 0.473594 -0.609634
O11   O     O_R   0.578310 0.341170 0.497180 -0.634986
O12   O     O_R   0.609320 0.646410 0.496030 -0.623950
O13   O     O_R   0.390680 0.353590 0.503970 -0.622095
O14   O     O_R   0.406170 0.506240 0.587240 -0.615806
O15   O     O_R   0.593830 0.493760 0.412760 -0.620199
O16   O     O_R   0.593790 0.493820 0.580450 -0.610466
O17   O     O_R   0.406210 0.506180 0.419550 -0.607126
O18   O     O_2   0.670841 0.414507 0.148727 -0.564298
Zn1   Zn    Zn3+2 0.374720 0.508290 0.504530 0.972432
Zn2   Zn    Zn3+2 0.625280 0.491710 0.495470 0.966835

loop_
_geom_bond_atom_site_label_1
_geom_bond_atom_site_label_2
_ccdc_geom_bond_type
C9    O9    S    
C45   C60   A    
C34   C56   A    
C23   C45   A    
C41   O6    S    
C13   H28   S    
C1    C8    S    
C41   C43   A    
C14   C18   A    
C44   H4    S    
C59   H20   S    
C55   N3    T    
C52   H13   S    
C2    C57   S    
C4    H25   S    
C15   C19   A    
N7    Zn2   S    
C47   N8    T    
N6    Zn1   S    
O13   Zn1   S    
C36   C37   A    
C35   C37   A    
C59   H21   S    
C24   N6    A    
C16   C60   S    
C3    C62   A    
C6    N1    S    
C55   C62   S    
C33   C36   A    
C60   C62   A    
C18   C19   A    
O16   Zn2   S    
C46   H7    S    
C17   C61   S    
C46   H6    S    
C9    C19   A    
O11   Zn2   S    
C46   O6    S    
C29   C38   A    
C31   C33   A    
C10   O10   S    
C1    O1    A    
C2    C61   A    
C17   O15   A    
C12   O13   A    
C40   C42   A    
C21   C27   A    
C45   C53   S    
C51   O7    S    
C22   N7    A    
C32   O4    S    
C3    H24   S    
C31   O3    S    
C44   H3    S    
C51   H9    S    
C16   O14   A    
C5    N5    S    
C39   C42   A    
C54   C56   S    
O17   Zn1   S    
C26   N6    A    
C7    C12   S    
C23   O7    S    
C29   O18   S    
C21   H23   S    
C33   C40   A    
O14   Zn1   S    
C58   O9    S    
C32   C35   A    
C59   H19   S    
C4    C6    A    
C11   H2    S    
C17   O17   A    
C20   C28   A    
C52   H14   S    
C6    C34   A    
C2    C4    A    
O15   Zn2   S    
C14   H27   S    
C54   N2    T    
C30   N5    A    
C16   O16   A    
C5    C23   A    
C52   O8    S    
C53   N12   T    
C59   O10   S    
C9    C11   A    
C25   C48   S    
C26   C47   S    
C40   O5    S    
C58   H17   S    
C25   N7    A    
C20   C22   A    
C24   H1    S    
C31   N1    A    
C57   N4    T    
C20   H22   S    
C34   O8    S    
C1    O12   A    
C22   H12   S    
C52   H15   S    
O1    Zn1   S    
C29   N1    A    
C12   O11   A    
C44   O5    S    
C48   N9    T    
C8    C14   A    
C51   H11   S    
C3    C5    A    
C10   C13   A    
C43   C50   S    
C58   H18   S    
C25   C27   A    
C26   C28   A    
C36   C38   A    
C38   C43   A    
C37   C39   A    
C49   N10   T    
C10   C18   A    
C8    C11   A    
C7    C15   A    
C30   C39   A    
C35   C41   A    
C46   H8    S    
C58   H16   S    
C42   C49   S    
O12   Zn2   S    
C7    C13   A    
C32   N5    A    
C50   N11   T    
C51   H10   S    
C21   C24   A    
C30   O2    S    
C27   C28   A    
C56   C61   A    
C44   H5    S    
C15   H26   S    
