data_mof_unit_12555.cif
_audit_creation_date              2012-12-10T19:45:45-0500
_audit_creation_method            fapswitch 2.2
_symmetry_space_group_name_H-M    P1
_symmetry_Int_Tables_number       1
_space_group_crystal_system       triclinic
_cell_length_a                    10.888862
_cell_length_b                    14.746538
_cell_length_c                    14.815603
_cell_angle_alpha                 64.645103
_cell_angle_beta                  104.360427
_cell_angle_gamma                 102.859694
_cell_volume                      2064.17521292

loop_
_atom_site_label
_atom_site_type_symbol
_atom_type_description
_atom_site_fract_x
_atom_site_fract_y
_atom_site_fract_z
_atom_type_partial_charge
C1    C     C_R   0.480375 0.119806 0.312561 0.878820
C2    C     C_R   0.687168 0.773203 0.957354 0.039051
C3    C     C_R   0.350001 0.160569 0.142403 -0.181761
C4    C     C_R   0.650710 0.839674 0.857677 -0.178075
C5    C     C_R   0.529165 0.283740 0.167254 0.001511
C6    C     C_R   0.472421 0.715923 0.832746 0.001266
C7    C     C_R   0.475241 0.359386 0.076384 0.005165
C8    C     C_R   0.526468 0.640454 0.923589 0.010445
C9    C     C_R   0.376638 0.328006 0.008187 -0.162059
C10   C     C_R   0.624955 0.671987 0.991766 -0.167308
C11   C     C_R   0.518496 0.464967 0.050344 -0.179410
C12   C     C_R   0.520216 0.880195 0.687460 0.871543
C13   C     C_R   0.483704 0.534819 0.949567 -0.169432
C14   C     C_R   0.411152 0.496266 0.877169 0.579876
C15   C     C_R   0.591532 0.503440 0.122671 0.582722
C16   C     C_R   0.262707 0.001192 0.499254 0.867814
C17   C     C_R   0.737298 0.998807 0.500732 0.866824
C18   C     C_R   0.348098 0.397899 0.907534 0.594582
C19   C     C_R   0.654185 0.601942 0.092276 0.599537
C20   C     C_R   0.716017 0.283464 0.667817 -0.125029
C21   C     C_R   0.284172 0.716663 0.332006 -0.122303
C22   C     C_R   0.682487 0.202845 0.637926 -0.019200
C23   C     C_R   0.871204 0.995653 0.502414 -0.140670
C24   C     C_R   0.317630 0.797231 0.361973 -0.013245
C25   C     C_R   0.516535 0.284441 0.509365 0.799132
C26   C     C_R   0.483427 0.715537 0.490647 0.795510
C27   C     C_R   0.549521 0.372013 0.532970 -0.196441
C28   C     C_R   0.450453 0.627988 0.467000 -0.194100
C29   C     C_R   0.648885 0.367481 0.617004 -0.072743
C30   C     C_R   0.351217 0.632600 0.382869 -0.070729
C31   C     C_R   0.485286 0.460874 0.480830 -0.042920
C32   C     C_R   0.514618 0.539091 0.519176 -0.046913
C33   C     C_R   0.605812 0.524869 0.608772 -0.070841
C34   C     C_R   0.128808 0.004314 0.497587 -0.127854
C35   C     C_R   0.394072 0.475083 0.391244 -0.066970
C36   C     C_R   0.675527 0.443797 0.653627 0.694837
C37   C     C_R   0.324528 0.556263 0.346273 0.693623
C38   C     C_R   0.351735 0.011232 0.802946 -0.253050
C39   C     C_R   0.646023 0.983676 0.199658 -0.248887
C40   C     C_R   0.253774 0.982905 0.734180 0.434479
C41   C     C_R   0.744056 0.013696 0.267234 0.432368
C42   C     C_R   0.195718 0.056688 0.646548 -0.146629
C43   C     C_R   0.804380 0.941222 0.354741 -0.144287
C44   C     C_R   0.229648 0.159412 0.629888 0.583716
C45   C     C_R   0.904212 0.972859 0.428468 0.113537
C46   C     C_R   0.772583 0.838160 0.372396 0.588441
C47   C     C_R   0.321620 0.189121 0.700953 -0.300495
C48   C     C_R   0.680657 0.806838 0.302388 -0.304274
C49   C     C_R   0.386557 0.114719 0.784980 0.497980
C50   C     C_R   0.613456 0.879880 0.218550 0.496082
C51   C     C_R   0.966652 0.018939 0.576199 -0.019282
C52   C     C_R   0.033381 0.981162 0.423729 -0.013485
C53   C     C_2   0.206359 0.188080 0.980064 0.997814
C54   C     C_2   0.794110 0.812486 0.020069 0.998167
C55   C     C_2   0.415910 0.932840 0.894321 1.029405
C56   C     C_R   0.095813 0.026700 0.571782 0.116067
C57   C     C_2   0.579395 0.060695 0.108558 1.033106
C58   C     C_2   0.344894 0.296492 0.690109 1.044418
C59   C     C_2   0.659618 0.699249 0.314167 1.045256
C60   C     C_2   0.931778 0.023656 0.664880 0.881151
C61   C     C_2   0.068303 0.977100 0.334735 0.881282
C62   C     C_2   0.331637 0.702276 0.794341 1.033862
C63   C     C_2   0.670172 0.296432 0.205527 1.039309
C64   C     C_R   0.456118 0.187992 0.205305 -0.157654
C65   C     C_R   0.544929 0.811977 0.794738 -0.162536
C66   C     C_R   0.313821 0.227018 0.042684 0.036782
Cu1   Cu    Cu3+1 0.466270 0.918260 0.475690 1.070720
Cu2   Cu    Cu3+1 0.533730 0.081740 0.524310 1.064630
F1    F     F_    0.479453 0.142425 0.852117 -0.571903
F2    F     F_    0.780796 0.113076 0.249308 -0.618119
F3    F     F_    0.170708 0.229499 0.544812 -0.555110
F4    F     F_    0.833579 0.769342 0.457374 -0.547681
F5    F     F_    0.262860 0.371769 0.835928 -0.596886
F6    F     F_    0.739904 0.627967 0.163742 -0.593905
F7    F     F_    0.520506 0.850616 0.152471 -0.570514
F8    F     F_    0.403439 0.551992 0.775933 -0.634191
F9    F     F_    0.600115 0.447506 0.223930 -0.633011
F10   F     F_    0.764862 0.437074 0.737838 -0.597395
F11   F     F_    0.235275 0.563035 0.262008 -0.594695
F12   F     F_    0.588441 0.727543 0.557767 -0.631231
F13   F     F_    0.411493 0.272399 0.442286 -0.629697
F14   F     F_    0.214723 0.883910 0.751137 -0.608539
H1    H     H_    0.268260 0.863111 0.321631 0.168617
H2    H     H_    0.851309 0.856828 0.136787 0.336548
H3    H     H_    0.408431 0.787192 0.994663 0.374215
H4    H     H_    0.583550 0.205798 0.006985 0.373694
H5    H     H_    0.288698 0.435591 0.619225 0.364759
H6    H     H_    0.718265 0.561027 0.386224 0.362415
H7    H     H_    0.949390 0.100519 0.752836 0.323471
H8    H     H_    0.051136 0.900972 0.246163 0.323353
H9    H     H_    0.155927 0.639438 0.829258 0.389156
H10   H     H_    0.817257 0.268228 0.323528 0.380716
H11   H     H_    0.731893 0.136986 0.678247 0.169728
H12   H     H_    0.792333 0.278836 0.731844 0.233153
H13   H     H_    0.207949 0.721350 0.267908 0.232644
H14   H     H_    0.623679 0.573044 0.649313 0.253070
H15   H     H_    0.376152 0.426873 0.350737 0.252409
H16   H     H_    0.702821 0.915226 0.830086 0.194786
H17   H     H_    0.297349 0.085234 0.170077 0.194814
H18   H     H_    0.148425 0.142624 0.864118 0.336660
N1    N     N_R   0.584450 0.204570 0.560790 -0.243500
N2    N     N_R   0.415550 0.795430 0.439210 -0.244218
O1    O     O_R   0.455540 0.022090 0.338120 -0.630586
O2    O     O_R   0.228832 0.171466 0.899964 -0.680596
O3    O     O_2   0.901077 0.835891 0.998085 -0.538277
O4    O     O_R   0.771289 0.827562 0.100962 -0.678046
O5    O     O_2   0.523357 0.954568 0.935847 -0.503212
O6    O     O_R   0.354119 0.833679 0.933166 -0.660683
O7    O     O_2   0.471485 0.037510 0.068783 -0.506492
O8    O     O_R   0.639427 0.160246 0.068018 -0.658648
O9    O     O_2   0.432268 0.324348 0.746371 -0.513112
O10   O     O_R   0.264693 0.365839 0.617369 -0.651534
O11   O     O_2   0.572969 0.670134 0.258378 -0.511815
O12   O     O_R   0.544460 0.977910 0.661880 -0.628176
O13   O     O_R   0.740986 0.631108 0.387323 -0.651442
O14   O     O_2   0.864042 0.952279 0.717187 -0.587526
O15   O     O_R   0.976973 0.108319 0.689102 -0.737050
O16   O     O_2   0.135919 0.048781 0.282639 -0.588564
O17   O     O_R   0.023411 0.892721 0.310007 -0.735050
O18   O     O_2   0.287566 0.741772 0.704215 -0.503074
O19   O     O_R   0.248862 0.643554 0.863309 -0.698294
O20   O     O_2   0.742980 0.345324 0.144975 -0.502837
O21   O     O_R   0.720575 0.253423 0.308820 -0.693241
O22   O     O_R   0.512510 0.160150 0.379180 -0.475562
O23   O     O_R   0.487490 0.839850 0.620820 -0.481809
O24   O     O_R   0.291160 0.930970 0.479480 -0.564108
O25   O     O_R   0.708840 0.069030 0.520520 -0.569474
O26   O     O_R   0.348130 0.069020 0.520540 -0.556968
O27   O     O_R   0.651870 0.930980 0.479460 -0.554799
O28   O     O_2   0.099182 0.166361 0.001426 -0.534886

loop_
_geom_bond_atom_site_label_1
_geom_bond_atom_site_label_2
_ccdc_geom_bond_type
C1    C64   S    
C34   C56   A    
C8    C13   A    
C23   C45   A    
C4    H16   S    
C61   O17   S    
C14   C18   A    
C2    C4    A    
Cu2   O22   S    
Cu1   O1    S    
C39   C41   A    
C38   C49   A    
C3    C64   A    
C15   C19   A    
C37   F11   S    
C29   C36   A    
C17   C23   S    
C22   N1    A    
C58   O10   S    
C35   C37   A    
C24   H1    S    
C52   C61   S    
Cu1   O23   S    
C4    C65   A    
C27   C29   A    
C53   O2    S    
C39   C57   S    
H18   O2    S    
C33   C36   A    
C5    C63   S    
C44   F3    S    
C51   C56   A    
C9    C66   A    
C20   H12   S    
C16   C34   S    
C11   C15   A    
C6    C65   A    
C57   O7    D    
C38   C55   S    
C31   C32   A    
H2    O4    S    
H3    O6    S    
C1    O1    A    
C46   F4    S    
C44   C47   A    
C42   C56   S    
C40   C42   A    
C49   F1    S    
C13   C14   A    
C25   F13   S    
C41   C43   A    
Cu1   O27   S    
C42   C44   A    
C26   C28   A    
C12   O12   A    
C20   C29   A    
C46   C48   A    
C54   O4    S    
C27   C31   A    
C58   O9    D    
C40   F14   S    
C28   C32   A    
Cu2   N1    S    
C47   C49   A    
C2    C54   S    
H10   O21   S    
C5    C7    A    
C17   O25   A    
C6    C8    A    
H5    O10   S    
C21   H13   S    
C45   C52   A    
C17   O27   A    
C26   F12   S    
Cu1   Cu2   S    
C30   C37   A    
C55   O5    D    
C14   F8    S    
C7    C11   A    
C16   O26   A    
C23   C51   A    
C57   O8    S    
C10   C19   A    
C59   O11   D    
C60   O15   S    
C53   C66   S    
C43   C45   S    
Cu2   O25   S    
C8    C10   A    
H7    O15   S    
C18   F5    S    
C22   H11   S    
C31   C35   A    
Cu1   O24   S    
C3    C66   A    
C51   C60   S    
C2    C10   A    
C33   H14   S    
C63   O20   D    
C48   C59   S    
C12   C65   S    
C7    C9    A    
Cu2   O26   S    
C54   O3    D    
H4    O8    S    
C61   O16   D    
C62   O18   D    
C19   F6    S    
C20   C22   A    
C63   O21   S    
C12   O23   A    
C25   C27   A    
C21   C30   A    
C34   C52   A    
C55   O6    S    
H8    O17   S    
C6    C62   S    
H6    O13   S    
C28   C30   A    
C1    O22   A    
C36   F10   S    
C50   F7    S    
C32   C33   A    
C47   C58   S    
C38   C40   A    
C11   C13   A    
C25   N1    A    
C15   F9    S    
C48   C50   A    
C24   N2    A    
C43   C46   A    
C60   O14   D    
C3    H17   S    
C9    C18   A    
C39   C50   A    
C5    C64   A    
C59   O13   S    
H9    O19   S    
C21   C24   A    
C53   O28   D    
C35   H15   S    
C16   O24   A    
C62   O19   S    
C26   N2    A    
Cu1   N2    S    
Cu2   O12   S    
C41   F2    S    
