data_mof_unit_49235.cif
_audit_creation_date              2012-12-10T19:04:14-0500
_audit_creation_method            fapswitch 2.2
_symmetry_space_group_name_H-M    P1
_symmetry_Int_Tables_number       1
_space_group_crystal_system       triclinic
_cell_length_a                    10.624499
_cell_length_b                    10.812592
_cell_length_c                    9.643713
_cell_angle_alpha                 90.145161
_cell_angle_beta                  89.791916
_cell_angle_gamma                 92.020963
_cell_volume                      1107.15445454

loop_
_atom_site_label
_atom_site_type_symbol
_atom_type_description
_atom_site_fract_x
_atom_site_fract_y
_atom_site_fract_z
_atom_type_partial_charge
C1    C     C_R   0.498164 0.262559 0.499885 0.806477
C2    C     C_3   0.960855 0.497282 0.367957 -0.135857
C3    C     C_3   0.039641 0.396696 0.435958 -0.182863
C4    C     C_3   0.122836 0.499299 0.501353 0.000708
C5    C     C_R   0.488658 0.063539 0.624462 0.172071
C6    C     C_R   0.486907 0.128849 0.499836 -0.101158
C7    C     C_R   0.468315 0.062956 0.375325 -0.223307
C8    C     C_R   0.468037 0.934070 0.375459 -0.214908
C9    C     C_R   0.486719 0.870161 0.500116 -0.098970
C10   C     C_R   0.488578 0.936235 0.624603 0.128825
C11   C     C_3   0.579371 0.933031 0.742379 -0.500574
C12   C     C_R   0.259683 0.499712 0.500356 0.798453
C13   C     C_3   0.579488 0.073492 0.742252 -0.413925
C14   C     C_R   0.568549 0.587707 0.073550 0.152017
C15   C     C_R   0.419424 0.422543 0.073218 0.210017
C16   C     C_R   0.419332 0.423755 0.924861 0.336720
C17   C     C_R   0.573603 0.582995 0.927453 0.126689
C18   C     C_3   0.714589 0.596684 0.929131 0.082641
C19   C     C_3   0.706199 0.614218 0.084881 -0.488069
C20   C     C_R   0.498276 0.737297 0.500077 0.783022
C21   C     C_R   0.740524 0.499467 0.499606 0.789064
C22   C     C_3   0.040260 0.500449 0.632047 -0.058401
C23   C     C_3   0.954560 0.397833 0.566329 -0.106177
C24   C     C_3   0.877829 0.498610 0.498542 0.008910
C25   C     C_3   0.961357 0.601154 0.564129 -0.175660
C26   C     C_3   0.046325 0.599929 0.433587 -0.182001
Cu1   Cu    Cu3+1 0.499990 0.499980 0.640670 1.004864
Cu2   Cu    Cu3+1 0.500010 0.500020 0.359330 0.947650
H1    H     H_    0.914269 0.314746 0.620058 0.164444
H2    H     H_    0.671448 0.895131 0.711826 0.192809
H3    H     H_    0.536117 0.112734 0.836992 0.228446
H4    H     H_    0.671632 0.117454 0.711623 0.202680
H5    H     H_    0.751547 0.680034 0.873026 0.118831
H6    H     H_    0.754488 0.543137 0.144704 0.244020
H7    H     H_    0.727619 0.711003 0.118784 0.163064
H8    H     H_    0.075448 0.501914 0.740317 0.188237
H9    H     H_    0.926295 0.684727 0.616738 0.135238
H10   H     H_    0.086861 0.682617 0.379292 0.141494
H11   H     H_    0.929803 0.494368 0.258582 0.158629
H12   H     H_    0.074861 0.313116 0.383499 0.140714
H13   H     H_    0.459995 0.110386 0.277302 0.172113
H14   H     H_    0.459144 0.885398 0.277482 0.169374
H15   H     H_    0.535889 0.891314 0.837125 0.202869
N1    N     N_R   0.500800 0.500930 0.147930 -0.183047
N2    N     N_R   0.500800 0.500890 0.852020 -0.199247
O1    O     O_R   0.500000 0.319640 0.618810 -0.525935
O2    O     O_R   0.500010 0.319680 0.381230 -0.596913
O3    O     O_R   0.316850 0.499950 0.618770 -0.548089
O4    O     O_R   0.316860 0.499990 0.381190 -0.596283
O5    O     O_R   0.499990 0.680320 0.618770 -0.584438
O6    O     O_R   0.500000 0.680360 0.381190 -0.582916
O7    O     O_R   0.683140 0.500010 0.618810 -0.537145
O8    O     O_R   0.683150 0.500050 0.381230 -0.591673
C27   C     C_3   0.326924 0.331451 0.140932 -0.739591
H16   H     H_    0.325868 0.327367 0.253134 0.261260
H17   H     H_    0.229594 0.353778 0.110534 0.228568
H18   H     H_    0.346599 0.236239 0.105621 0.213443
Br1   Br    Br    0.304273 0.310781 0.828378 -0.553147
Br2   Br    Br    0.798952 0.443087 0.889521 -0.554067

loop_
_geom_bond_atom_site_label_1
_geom_bond_atom_site_label_2
_ccdc_geom_bond_type
Cu1   O3    S    
C15   N1    A    
C4    C26   S    
C23   C24   S    
Cu2   O2    S    
C11   H15   S    
C6    C7    A    
C4    C12   S    
C4    C22   S    
Cu2   O4    S    
C9    C20   S    
C5    C13   S    
Cu1   O5    S    
C12   O3    A    
Cu1   N2    S    
C12   O4    A    
C5    C10   A    
C2    C26   S    
C16   Br1   S    
Cu1   O7    S    
Cu2   O8    S    
C21   O8    A    
C11   C13   S    
C14   C17   A    
C20   O5    A    
C15   C16   A    
C23   H1    S    
Cu1   O1    S    
C14   C19   S    
Cu2   O6    S    
C13   H3    S    
C3    H12   S    
C17   C18   S    
C20   O6    A    
C2    C3    S    
C7    H13   S    
C2    C24   S    
C5    C6    A    
C18   H5    S    
C27   H17   S    
C1    O1    A    
C10   C11   S    
C16   N2    A    
C8    H14   S    
C3    C4    S    
C15   C27   S    
C18   Br2   S    
C7    C8    A    
C22   H8    S    
C24   C25   S    
C22   C25   S    
Cu2   N1    S    
C14   N1    A    
C18   C19   S    
C9    C10   A    
C21   C24   S    
Cu1   Cu2   S    
C22   C23   S    
C26   H10   S    
C19   H7    S    
C13   H4    S    
C25   H9    S    
C25   C26   S    
C27   H16   S    
C3    C23   S    
C2    H11   S    
C19   H6    S    
C21   O7    A    
C1    O2    A    
C1    C6    S    
C11   H2    S    
C17   N2    A    
C8    C9    A    
C27   H18   S    
