data_mof_unit_49843.cif
_audit_creation_date              2012-12-10T17:15:54-0500
_audit_creation_method            fapswitch 2.2
_symmetry_space_group_name_H-M    P1
_symmetry_Int_Tables_number       1
_space_group_crystal_system       triclinic
_cell_length_a                    10.138651
_cell_length_b                    10.63614
_cell_length_c                    10.812219
_cell_angle_alpha                 89.975035
_cell_angle_beta                  95.370232
_cell_angle_gamma                 81.564851
_cell_volume                      1148.15397179

loop_
_atom_site_label
_atom_site_type_symbol
_atom_type_description
_atom_site_fract_x
_atom_site_fract_y
_atom_site_fract_z
_atom_type_partial_charge
C1    C     C_R   0.443920 0.512107 0.267348 0.947244
C2    C     C_2   0.488450 0.544379 0.933805 -0.143179
C3    C     C_2   0.072591 0.489851 0.489652 -0.120087
C4    C     C_R   0.500624 0.260479 0.504293 0.865978
C5    C     C_2   0.927304 0.510356 0.510310 -0.123292
C6    C     C_R   0.556174 0.495392 0.732632 0.912157
C7    C     C_R   0.501453 0.739274 0.503351 0.863789
C8    C     C_R   0.681136 0.105429 0.688167 -0.260575
C9    C     C_R   0.770013 0.027519 0.771788 -0.241840
C10   C     C_R   0.774047 0.895332 0.769138 0.602181
C11   C     C_R   0.684304 0.843019 0.685457 -0.281881
C12   C     C_R   0.594131 0.052633 0.599488 0.098927
C13   C     C_R   0.595455 0.920709 0.598360 0.016521
C14   C     C_3   0.991591 0.818604 0.833032 -0.335581
C15   C     C_R   0.501908 0.128030 0.513793 -0.072155
C16   C     C_R   0.409445 0.076936 0.433138 -0.214129
C17   C     C_R   0.410668 0.948379 0.432073 -0.201823
C18   C     C_R   0.504274 0.871176 0.511726 -0.062545
C19   C     C_2   0.412298 0.531067 0.135293 -0.385497
C20   C     C_2   0.512652 0.540523 0.066169 -0.137858
C21   C     C_2   0.588190 0.504844 0.864635 -0.357539
H1    H     H_    0.338544 0.136628 0.368724 0.148048
H2    H     H_    0.340273 0.908509 0.367175 0.153393
H3    H     H_    0.385631 0.570989 0.893545 0.184060
H4    H     H_    0.615747 0.535977 0.106451 0.195013
H5    H     H_    0.690721 0.478155 0.905335 0.158097
H6    H     H_    0.024504 0.909685 0.863808 0.169026
H7    H     H_    0.008564 0.801583 0.733692 0.147437
H8    H     H_    0.055437 0.741120 0.888725 0.193367
H9    H     H_    0.309500 0.535380 0.094520 0.151436
H10   H     H_    0.891416 0.578850 0.578436 0.168068
H11   H     H_    0.108382 0.421588 0.421325 0.161679
H12   H     H_    0.879975 0.384242 0.384957 0.165510
H13   H     H_    0.120242 0.615281 0.615506 0.157316
H14   H     H_    0.679633 0.206972 0.695596 0.174398
H15   H     H_    0.834045 0.070362 0.840073 0.152264
H16   H     H_    0.684994 0.741421 0.690430 0.167538
N1    N     N_2   0.157290 0.551390 0.551110 -0.193921
N2    N     N_2   0.842740 0.448550 0.448960 -0.194130
O1    O     O_R   0.568950 0.489660 0.307530 -0.606193
O2    O     O_R   0.348880 0.522640 0.340350 -0.612459
O3    O     O_R   0.610060 0.300270 0.483590 -0.610665
O4    O     O_R   0.389990 0.333260 0.516410 -0.611304
O5    O     O_R   0.651120 0.477360 0.659650 -0.623381
O6    O     O_R   0.431050 0.510340 0.692470 -0.608923
O7    O     O_R   0.610010 0.666740 0.483590 -0.616302
O8    O     O_R   0.389940 0.699730 0.516410 -0.612397
O9    O     O_3   0.856858 0.816086 0.854489 -0.609098
Zn1   Zn    Zn3+2 0.646940 0.477980 0.478090 0.942933
Zn2   Zn    Zn3+2 0.353060 0.522020 0.521910 0.940380

loop_
_geom_bond_atom_site_label_1
_geom_bond_atom_site_label_2
_ccdc_geom_bond_type
O5    Zn1   S    
C9    H15   S    
C14   O9    S    
C21   H5    S    
N2    Zn1   S    
O4    Zn2   S    
N1    Zn2   S    
C6    O6    A    
C14   H6    S    
C9    C10   A    
C19   C20   D    
C12   C15   A    
C8    C12   A    
C7    C18   S    
C4    C15   S    
C17   C18   A    
C19   H9    S    
C6    O5    A    
C10   O9    S    
C11   C13   A    
O7    Zn1   S    
C17   H2    S    
C4    O3    A    
C13   C18   A    
C2    C21   D    
O6    Zn2   S    
C1    O2    A    
C4    O4    A    
O8    Zn2   S    
C5    N2    D    
C2    H3    S    
C3    H11   S    
C1    C19   S    
C20   H4    S    
O3    Zn1   S    
C2    C20   S    
O1    Zn1   S    
C7    O7    A    
C3    C5    S    
O2    Zn2   S    
C12   C13   A    
C10   C11   A    
C11   H16   S    
C16   C17   A    
C16   H1    S    
C14   H8    S    
C1    O1    A    
C14   H7    S    
H13   N1    S    
C6    C21   S    
H12   N2    S    
C15   C16   A    
C3    N1    D    
C8    C9    A    
C5    H10   S    
C8    H14   S    
C7    O8    A    
