data_mof_unit_40889.cif
_audit_creation_date              2012-12-10T17:24:16-0500
_audit_creation_method            fapswitch 2.2
_symmetry_space_group_name_H-M    P1
_symmetry_Int_Tables_number       1
_space_group_crystal_system       triclinic
_cell_length_a                    10.121173
_cell_length_b                    10.829323
_cell_length_c                    17.040555
_cell_angle_alpha                 90.431768
_cell_angle_beta                  78.239885
_cell_angle_gamma                 94.908535
_cell_volume                      1821.73304676

loop_
_atom_site_label
_atom_site_type_symbol
_atom_type_description
_atom_site_fract_x
_atom_site_fract_y
_atom_site_fract_z
_atom_type_partial_charge
C1    C     C_R   0.556618 0.732388 0.492571 0.933842
C2    C     C_R   0.514522 0.496698 0.345813 0.920222
C3    C     C_R   0.490412 0.518061 0.739055 -0.198418
C4    C     C_R   0.509089 0.481783 0.261028 -0.194622
C5    C     C_R   0.609641 0.494883 0.765961 0.407202
C6    C     C_R   0.389830 0.505788 0.234426 0.408262
C7    C     C_R   0.618100 0.519119 0.845762 -0.130197
C8    C     C_R   0.379504 0.479421 0.155178 -0.130148
C9    C     C_R   0.506849 0.564257 0.898193 -0.055606
C10   C     C_R   0.489604 0.432683 0.102648 -0.055743
C11   C     C_R   0.391921 0.595080 0.869809 0.465221
C12   C     C_R   0.443707 0.267592 0.503187 0.933039
C13   C     C_R   0.604847 0.401701 0.130667 0.465072
C14   C     C_R   0.384006 0.569270 0.790866 -0.305666
C15   C     C_R   0.614165 0.428686 0.209284 -0.308439
C16   C     C_2   0.500092 0.554474 0.983976 -0.162547
C17   C     C_2   0.495570 0.442108 0.016901 -0.161350
C18   C     C_R   0.253091 0.501438 0.127863 0.152455
C19   C     C_R   0.169883 0.400387 0.108366 -0.170271
C20   C     C_R   0.042145 0.418311 0.093445 -0.126251
C21   C     C_R   0.997386 0.537232 0.097021 -0.072019
C22   C     C_R   0.081350 0.638768 0.113991 -0.153941
C23   C     C_2   0.589215 0.863924 0.481466 -0.362562
C24   C     C_R   0.208777 0.621145 0.129580 -0.159788
C25   C     C_R   0.743659 0.496307 0.873788 0.151713
C26   C     C_R   0.788168 0.376611 0.871151 -0.159217
C27   C     C_R   0.914687 0.358320 0.887857 -0.153019
C28   C     C_R   0.997558 0.459194 0.906858 -0.067576
C29   C     C_R   0.952618 0.578083 0.911236 -0.122777
C30   C     C_R   0.825765 0.596656 0.895208 -0.170490
C31   C     C_2   0.412361 0.135976 0.498025 -0.356938
C32   C     C_2   0.489315 0.933936 0.476502 -0.147380
C33   C     C_2   0.514539 0.065786 0.474121 -0.149873
C34   C     C_2   0.925566 0.510650 0.506224 0.369302
C35   C     C_2   0.074631 0.489840 0.493425 0.366030
C36   C     C_R   0.485488 0.503467 0.654178 0.926638
H1    H     H_    0.703393 0.405908 0.230228 0.199475
H2    H     H_    0.886121 0.389396 0.422703 0.116122
H3    H     H_    0.802649 0.480663 0.725920 0.347432
H4    H     H_    0.197731 0.522781 0.275564 0.348350
H5    H     H_    0.310570 0.680172 0.966372 0.335603
H6    H     H_    0.684149 0.314775 0.034419 0.335647
H7    H     H_    0.202068 0.307448 0.107436 0.131189
H8    H     H_    0.977628 0.339768 0.079632 0.183706
H9    H     H_    0.897991 0.550943 0.086139 0.173534
H10   H     H_    0.046965 0.730879 0.116123 0.135017
H11   H     H_    0.271721 0.700030 0.144734 0.144827
H12   H     H_    0.294758 0.591509 0.769741 0.200517
H13   H     H_    0.726058 0.298274 0.854517 0.144871
H14   H     H_    0.949211 0.266226 0.885063 0.135013
H15   H     H_    0.096265 0.444993 0.918637 0.173603
H16   H     H_    0.016294 0.656109 0.926585 0.182548
H17   H     H_    0.793417 0.689592 0.896877 0.131093
H18   H     H_    0.066658 0.328423 0.445121 0.293350
H19   H     H_    0.934272 0.672312 0.554193 0.292862
H20   H     H_    0.500714 0.359023 0.980578 0.140278
H21   H     H_    0.495161 0.637592 0.020271 0.140373
H22   H     H_    0.619251 0.104903 0.457841 0.188208
H23   H     H_    0.385648 0.894728 0.479743 0.191583
H24   H     H_    0.307933 0.096394 0.514420 0.152221
H25   H     H_    0.692576 0.903594 0.478397 0.153866
H26   H     H_    0.113614 0.609928 0.577655 0.118213
N1    N     N_2   0.846390 0.448330 0.467170 -0.192911
N2    N     N_2   0.153610 0.551670 0.532830 -0.193574
O1    O     O_R   0.430310 0.692580 0.506610 -0.624483
O2    O     O_3   0.285925 0.557770 0.286212 -0.724862
O3    O     O_3   0.283471 0.646194 0.917465 -0.798988
O4    O     O_3   0.712256 0.349233 0.082930 -0.798787
O5    O     O_3   0.131083 0.403309 0.439960 -0.713252
O6    O     O_3   0.869331 0.597791 0.559287 -0.711791
O7    O     O_R   0.569690 0.307420 0.493390 -0.624357
O8    O     O_R   0.652740 0.659410 0.485540 -0.574911
O9    O     O_R   0.347260 0.340590 0.514460 -0.575918
O10   O     O_R   0.375640 0.518570 0.627580 -0.644582
O11   O     O_R   0.624360 0.481430 0.372420 -0.647308
O12   O     O_R   0.598070 0.485390 0.606510 -0.492167
O13   O     O_R   0.401930 0.514610 0.393490 -0.495197
O14   O     O_3   0.715357 0.445823 0.713908 -0.722574
Zn1   Zn    Zn3+2 0.351480 0.522150 0.514070 1.010695
Zn2   Zn    Zn3+2 0.648520 0.477850 0.485930 1.011306

loop_
_geom_bond_atom_site_label_1
_geom_bond_atom_site_label_2
_ccdc_geom_bond_type
C33   H22   S    
O1    Zn1   S    
C19   C20   A    
H5    O3    S    
C26   C27   A    
C18   C24   A    
C28   C29   A    
C9    C16   S    
C18   C19   A    
C28   H15   S    
C10   C17   S    
C34   C35   S    
C15   H1    S    
H26   N2    S    
C36   O12   A    
C19   H7    S    
C16   C17   D    
C1    O1    A    
C31   C33   D    
C35   N2    D    
O11   Zn2   S    
C34   O6    S    
C27   H14   S    
H4    O2    S    
C21   C22   A    
H6    O4    S    
O7    Zn2   S    
C20   H8    S    
C11   O3    S    
C21   H9    S    
N1    Zn2   S    
O13   Zn1   S    
C30   H17   S    
C1    O8    A    
H3    O14   S    
C4    C6    A    
C26   H13   S    
C5    C7    A    
C6    C8    A    
C25   C26   A    
C8    C18   S    
C31   H24   S    
C2    C4    S    
C29   C30   A    
C6    O2    S    
O9    Zn1   S    
C9    C11   A    
C17   H20   S    
C3    C14   A    
C36   O10   A    
C22   H10   S    
C12   O7    A    
C1    C23   S    
O10   Zn1   S    
C13   C15   A    
C12   C31   S    
N2    Zn1   S    
C22   C24   A    
H2    N1    S    
C25   C30   A    
C7    C9    A    
C24   H11   S    
O12   Zn2   S    
C3    C5    A    
C10   C13   A    
C14   H12   S    
C7    C25   S    
C23   C32   D    
C4    C15   A    
O8    Zn2   S    
C2    O13   A    
C32   C33   S    
H18   O5    S    
C3    C36   S    
C34   N1    D    
C11   C14   A    
C16   H21   S    
H19   O6    S    
C23   H25   S    
C20   C21   A    
C35   O5    S    
C8    C10   A    
C27   C28   A    
C32   H23   S    
C5    O14   S    
C12   O9    A    
C29   H16   S    
C2    O11   A    
C13   O4    S    
