data_mof_unit_16905.cif
_audit_creation_date              2012-12-11T16:25:19-0500
_audit_creation_method            fapswitch 2.2
_symmetry_space_group_name_H-M    P1
_symmetry_Int_Tables_number       1
_space_group_crystal_system       triclinic
_cell_length_a                    22.427419
_cell_length_b                    30.434465
_cell_length_c                    18.922923
_cell_angle_alpha                 89.776596
_cell_angle_beta                  126.947603
_cell_angle_gamma                 89.943928
_cell_volume                      10322.2352299

loop_
_atom_site_label
_atom_site_type_symbol
_atom_type_description
_atom_site_fract_x
_atom_site_fract_y
_atom_site_fract_z
_atom_type_partial_charge
C1    C     C_R   0.954475 0.620973 0.071748 -0.146946
C2    C     C_R   0.942186 0.458783 0.317025 -0.279521
C3    C     C_R   0.380018 0.461606 0.323275 -0.163734
C4    C     C_R   0.871276 0.034832 0.266805 -0.160499
C5    C     C_R   0.184215 0.968658 0.555744 -0.157190
C6    C     C_R   0.154908 0.042032 0.576140 -0.172477
C7    C     C_R   0.880018 0.961606 0.323276 -0.163734
C8    C     C_R   0.337358 0.498999 0.276577 0.142335
C9    C     C_R   0.699299 0.504077 0.611494 0.139240
C10   C     C_R   0.837358 0.998999 0.276578 0.142335
C11   C     C_R   0.199299 0.004077 0.611494 0.139240
C12   C     C_R   0.491554 0.499127 0.364246 0.115141
C13   C     C_R   0.382917 0.038099 0.559787 -0.261137
C14   C     C_R   0.570997 0.505149 0.436575 0.112143
C15   C     C_R   0.991554 0.999127 0.364246 0.115141
C16   C     C_R   0.070997 0.005149 0.436575 0.112143
C17   C     C_R   0.798005 0.537440 0.759078 -0.127154
C18   C     C_R   0.212538 0.463696 0.214225 -0.116203
C19   C     C_R   0.211712 0.536890 0.207315 -0.128743
C20   C     C_R   0.797932 0.464455 0.756478 -0.128078
C21   C     C_R   0.298005 0.037440 0.759078 -0.127154
C22   C     C_R   0.712538 0.963696 0.214225 -0.116204
C23   C     C_R   0.711712 0.036890 0.207316 -0.128743
C24   C     C_R   0.442173 0.958784 0.317012 -0.279520
C25   C     C_R   0.297932 0.964455 0.756478 -0.128076
C26   C     C_R   0.005561 0.463570 0.217233 -0.135629
C27   C     C_R   0.954365 0.536396 0.755463 -0.127567
C28   C     C_R   0.954316 0.463517 0.756229 -0.142756
C29   C     C_R   0.999095 0.536902 0.210705 -0.131042
C30   C     C_R   0.505557 0.963570 0.217229 -0.135629
C31   C     C_R   0.454367 0.036396 0.755464 -0.127568
C32   C     C_R   0.454317 0.963517 0.756229 -0.142756
C33   C     C_R   0.499091 0.036902 0.210702 -0.131042
C34   C     C_R   0.903178 0.645531 0.996628 0.088971
C35   C     C_R   0.874670 0.538043 0.480250 0.090798
C36   C     C_R   0.137024 0.379523 0.000849 0.072823
C37   C     C_R   0.092837 0.646273 0.999460 0.088269
C38   C     C_R   0.860337 0.380191 0.994568 0.071097
C39   C     C_R   0.403178 0.145531 0.996628 0.088971
C40   C     C_R   0.637024 0.879523 0.000849 0.072824
C41   C     C_R   0.592842 0.146272 0.999461 0.088269
C42   C     C_R   0.360341 0.880188 0.994569 0.071096
C43   C     C_R   0.759240 0.501650 0.706690 0.039768
C44   C     C_R   0.257662 0.500119 0.237104 0.033229
C45   C     C_R   0.259239 0.001650 0.706690 0.039768
C46   C     C_R   0.914889 0.456867 0.366541 0.090740
C47   C     C_R   0.757662 0.000119 0.237105 0.033229
C48   C     C_R   0.985189 0.500039 0.242286 0.073274
C49   C     C_R   0.936748 0.499807 0.702936 0.074909
C50   C     C_R   0.485183 0.000039 0.242280 0.073274
C51   C     C_R   0.436751 0.999807 0.702937 0.074909
C52   C     C_R   0.890249 0.458725 0.566611 -0.236069
C53   C     C_R   0.924662 0.537715 0.300640 -0.235976
C54   C     C_R   0.390248 0.958727 0.566609 -0.236068
C55   C     C_R   0.424657 0.037716 0.300633 -0.235976
C56   C     C_R   0.899069 0.498926 0.607327 0.111948
C57   C     C_R   0.374675 0.038046 0.480253 0.090799
C58   C     C_R   0.950424 0.498992 0.287578 0.117580
C59   C     C_R   0.399073 0.998927 0.607328 0.111948
C60   C     C_R   0.450415 0.998993 0.287569 0.117580
C61   C     C_3   0.852784 0.621731 0.459252 -0.427250
C62   C     C_3   0.925879 0.644907 0.530406 -0.260852
C63   C     C_3   0.910900 0.688007 0.558215 -0.887928
C64   C     C_3   0.932815 0.372476 0.385286 -0.442303
C65   C     C_3   0.873757 0.356160 0.291061 -0.222133
C66   C     C_3   0.901156 0.315546 0.271117 -0.925501
C67   C     C_3   0.352812 0.121736 0.459274 -0.427251
C68   C     C_R   0.414876 0.956869 0.366529 0.090744
C69   C     C_3   0.425916 0.144900 0.530435 -0.260866
C70   C     C_3   0.410957 0.187993 0.558286 -0.887929
C71   C     C_3   0.432793 0.872477 0.385267 -0.442297
C72   C     C_3   0.373734 0.856163 0.291040 -0.222150
C73   C     C_3   0.401122 0.815543 0.271101 -0.925525
C74   C     C_R   0.882585 0.497458 0.450035 0.000743
C75   C     C_R   0.896099 0.496929 0.386904 0.002936
C76   C     C_R   0.382583 0.997460 0.450032 0.000743
C77   C     C_R   0.070376 0.395481 0.926178 -0.136341
C78   C     C_R   0.396092 0.996931 0.386897 0.002934
C79   C     C_R   0.885495 0.457694 0.490253 0.134497
C80   C     C_R   0.898666 0.537071 0.351350 0.133761
C81   C     C_R   0.385490 0.957696 0.490247 0.134499
C82   C     C_R   0.398663 0.037073 0.351346 0.133760
C83   C     C_R   0.868049 0.577612 0.436202 0.132398
C84   C     C_R   0.911395 0.416513 0.401981 0.136602
C85   C     C_R   0.368059 0.077615 0.436209 0.132400
C86   C     C_R   0.411379 0.916515 0.401966 0.136603
C87   C     C_R   0.880269 0.576499 0.371895 -0.276160
C88   C     C_R   0.044282 0.620573 0.925963 -0.130094
C89   C     C_R   0.894538 0.417633 0.461956 -0.270186
C90   C     C_R   0.380273 0.076502 0.371897 -0.276158
C91   C     C_R   0.394526 0.917635 0.461945 -0.270190
C92   C     C_R   0.706129 0.301646 0.923079 -0.241134
C93   C     C_R   0.187363 0.755821 0.072570 -0.132482
C94   C     C_R   0.300954 0.307843 0.074447 -0.245872
C95   C     C_R   0.799133 0.752101 0.917313 -0.125592
C96   C     C_R   0.206147 0.801634 0.923094 -0.241129
C97   C     C_R   0.687382 0.255815 0.072573 -0.132474
C98   C     C_R   0.800954 0.807843 0.074447 -0.245871
C99   C     C_R   0.928582 0.393307 0.070723 -0.135018
C100  C     C_R   0.299133 0.252101 0.917313 -0.125589
C101  C     C_R   0.761039 0.324638 0.926488 -0.173471
C102  C     C_R   0.167136 0.713280 0.076048 -0.199697
C103  C     C_R   0.246957 0.330130 0.074160 -0.169368
C104  C     C_R   0.820330 0.709357 0.917557 -0.207478
C105  C     C_R   0.261058 0.824627 0.926504 -0.173477
C106  C     C_R   0.667156 0.213274 0.076049 -0.199701
C107  C     C_R   0.746957 0.830130 0.074160 -0.169369
C108  C     C_R   0.320330 0.209357 0.917556 -0.207478
C109  C     C_R   0.800570 0.357600 0.989262 0.121314
C110  C     C_R   0.454475 0.120974 0.071748 -0.146947
C111  C     C_R   0.105967 0.693563 0.999439 0.045911
C112  C     C_R   0.196803 0.358095 0.003670 0.121951
C113  C     C_R   0.887069 0.692469 0.992470 0.045321
C114  C     C_R   0.300576 0.857596 0.989264 0.121313
C115  C     C_R   0.605976 0.193561 0.999444 0.045910
C116  C     C_R   0.696804 0.858095 0.003671 0.121951
C117  C     C_R   0.387069 0.192470 0.992470 0.045320
C118  C     C_R   0.780782 0.369987 0.043966 -0.360117
C119  C     C_R   0.059902 0.718927 0.922174 -0.216203
C120  C     C_R   0.205102 0.366318 0.936956 -0.359934
C121  C     C_R   0.570376 0.895481 0.926178 -0.136341
C122  C     C_R   0.936520 0.720390 0.063195 -0.214890
C123  C     C_R   0.280776 0.869988 0.043953 -0.360115
C124  C     C_R   0.559902 0.218928 0.922186 -0.216203
C125  C     C_R   0.705102 0.866318 0.936956 -0.359934
C126  C     C_R   0.436520 0.220390 0.063195 -0.214891
C127  C     C_R   0.856175 0.394985 0.922763 -0.138617
C128  C     C_R   0.116009 0.621052 0.073139 -0.146938
C129  C     C_R   0.140291 0.391560 0.073801 -0.133261
C130  C     C_R   0.880614 0.619945 0.924392 -0.128414
C131  C     C_R   0.356176 0.894983 0.922763 -0.138616
C132  C     C_R   0.544284 0.120572 0.925964 -0.130096
C133  C     C_R   0.616012 0.121051 0.073140 -0.146941
C134  C     C_R   0.640291 0.891560 0.073801 -0.133262
C135  C     C_R   0.380614 0.119945 0.924392 -0.128414
C136  C     C_R   0.724055 0.347381 0.039717 0.539293
C137  C     C_R   0.079684 0.761714 0.917887 0.507946
C138  C     C_R   0.259925 0.344037 0.936966 0.544111
C139  C     C_R   0.916145 0.763676 0.063397 0.506701
C140  C     C_R   0.224047 0.847382 0.039702 0.539290
C141  C     C_R   0.579683 0.261717 0.917901 0.507947
C142  C     C_R   0.759924 0.844037 0.936966 0.544110
C143  C     C_R   0.428584 0.893305 0.070723 -0.135023
C144  C     C_R   0.416145 0.263677 0.063397 0.506702
C145  C     C_R   0.689084 0.311826 0.981362 0.008403
C146  C     C_R   0.147349 0.779013 0.992269 0.010247
C147  C     C_R   0.305868 0.313254 0.004454 0.011501
C148  C     C_R   0.844229 0.778596 0.992099 0.004607
C149  C     C_R   0.189087 0.811822 0.981360 0.008401
C150  C     C_R   0.647355 0.279012 0.992277 0.010244
C151  C     C_R   0.805868 0.813254 0.004454 0.011502
C152  C     C_R   0.344229 0.278596 0.992099 0.004607
C153  C     C_R   0.448008 0.534798 0.310087 -0.179602
C154  C     C_R   0.882910 0.538097 0.559783 -0.261130
C155  C     C_R   0.620397 0.469305 0.468320 -0.174086
C156  C     C_R   0.591477 0.542684 0.489169 -0.161859
C157  C     C_R   0.456402 0.461597 0.366426 -0.153451
C158  C     C_R   0.948008 0.034797 0.310087 -0.179603
C159  C     C_R   0.120397 0.969305 0.468320 -0.174087
C160  C     C_R   0.091477 0.042684 0.489169 -0.161858
C161  C     C_R   0.956402 0.961597 0.366426 -0.153452
C162  C     C_R   0.371276 0.534832 0.266805 -0.160500
C163  C     C_R   0.684215 0.468659 0.555743 -0.157190
C164  C     C_R   0.654909 0.542032 0.576140 -0.172478
H1    H     H_    0.990955 0.632976 0.138774 0.091529
H2    H     H_    0.203053 0.694859 0.137004 0.125043
H3    H     H_    0.952922 0.323179 0.278167 0.256091
H4    H     H_    0.912348 0.288245 0.316794 0.261078
H5    H     H_    0.858095 0.304844 0.202189 0.253002
H6    H     H_    0.821827 0.347942 0.283297 0.221973
H7    H     H_    0.860214 0.382066 0.242157 0.188987
H8    H     H_    0.988373 0.375044 0.399186 0.189288
H9    H     H_    0.939515 0.347039 0.431989 0.188173
H10   H     H_    0.377304 0.210492 0.500551 0.260367
H11   H     H_    0.380626 0.181672 0.586877 0.257964
H12   H     H_    0.464747 0.204167 0.609159 0.257786
H13   H     H_    0.242043 0.323520 0.126697 0.119830
H14   H     H_    0.460769 0.123428 0.589676 0.198174
H15   H     H_    0.457967 0.151936 0.504233 0.202514
H16   H     H_    0.320553 0.142867 0.399051 0.188574
H17   H     H_    0.316764 0.117813 0.480934 0.187348
H18   H     H_    0.452900 0.823164 0.278172 0.256104
H19   H     H_    0.412287 0.788242 0.316765 0.261080
H20   H     H_    0.358067 0.804847 0.202167 0.253004
H21   H     H_    0.321799 0.847954 0.283271 0.221979
H22   H     H_    0.360202 0.882067 0.242138 0.188994
H23   H     H_    0.488352 0.875042 0.399167 0.189281
H24   H     H_    0.781633 0.688613 0.861712 0.127880
H25   H     H_    0.439490 0.847039 0.431968 0.188180
H26   H     H_    0.275108 0.815280 0.882935 0.124723
H27   H     H_    0.703081 0.194849 0.136999 0.125043
H28   H     H_    0.742043 0.823520 0.126697 0.119830
H29   H     H_    0.281634 0.188613 0.861712 0.127880
H30   H     H_    0.809573 0.396935 0.089701 0.129766
H31   H     H_    0.009946 0.705250 0.863551 0.142725
H32   H     H_    0.168322 0.389399 0.884264 0.127963
H33   H     H_    0.048889 0.391513 0.857941 0.100348
H34   H     H_    0.990160 0.708443 0.119618 0.144173
H35   H     H_    0.309557 0.896941 0.089677 0.129767
H36   H     H_    0.509939 0.205255 0.863567 0.142726
H37   H     H_    0.668322 0.889399 0.884264 0.127962
H38   H     H_    0.490160 0.208443 0.119619 0.144175
H39   H     H_    0.474050 0.563914 0.306866 0.116375
H40   H     H_    0.606087 0.440290 0.428132 0.122292
H41   H     H_    0.554296 0.570695 0.466860 0.116383
H42   H     H_    0.488544 0.433834 0.408644 0.119228
H43   H     H_    0.974050 0.063914 0.306866 0.116375
H44   H     H_    0.008209 0.631263 0.857742 0.089916
H45   H     H_    0.106087 0.940290 0.428132 0.122292
H46   H     H_    0.054296 0.070695 0.466860 0.116383
H47   H     H_    0.988544 0.933834 0.408644 0.119229
H48   H     H_    0.339154 0.563423 0.228191 0.113346
H49   H     H_    0.719414 0.439704 0.580347 0.109323
H50   H     H_    0.665651 0.570071 0.617239 0.111431
H51   H     H_    0.355651 0.433240 0.331422 0.109941
H52   H     H_    0.839154 0.063423 0.228191 0.113345
H53   H     H_    0.219414 0.939704 0.580347 0.109322
H54   H     H_    0.165651 0.070070 0.617239 0.111431
H55   H     H_    0.950401 0.383802 0.137020 0.098172
H56   H     H_    0.855651 0.933240 0.331423 0.109942
H57   H     H_    0.810777 0.390428 0.853658 0.102273
H58   H     H_    0.144118 0.633012 0.139794 0.092621
H59   H     H_    0.181406 0.380794 0.140713 0.086364
H60   H     H_    0.850430 0.631133 0.856669 0.090441
H61   H     H_    0.310779 0.890425 0.853659 0.102276
H62   H     H_    0.644121 0.133011 0.139795 0.092626
H63   H     H_    0.681406 0.880794 0.140713 0.086365
H64   H     H_    0.350430 0.131133 0.856669 0.090441
H65   H     H_    0.790999 0.571187 0.737181 0.086254
H66   H     H_    0.490955 0.132976 0.138774 0.091530
H67   H     H_    0.231054 0.430383 0.233714 0.085860
H68   H     H_    0.228038 0.570909 0.214716 0.095441
H69   H     H_    0.789563 0.431297 0.731990 0.084429
H70   H     H_    0.290999 0.071187 0.737181 0.086254
H71   H     H_    0.731054 0.930383 0.233715 0.085860
H72   H     H_    0.728038 0.070909 0.214717 0.095440
H73   H     H_    0.289563 0.931296 0.731991 0.084429
H74   H     H_    0.010440 0.430117 0.238270 0.086382
H75   H     H_    0.939130 0.570100 0.733498 0.086538
H76   H     H_    0.938211 0.429909 0.735448 0.084997
H77   H     H_    0.548889 0.891513 0.857941 0.100348
H78   H     H_    0.992156 0.571036 0.219592 0.095457
H79   H     H_    0.510435 0.930117 0.238266 0.086384
H80   H     H_    0.439133 0.070100 0.733500 0.086539
H81   H     H_    0.438212 0.929910 0.735447 0.084998
H82   H     H_    0.492152 0.071036 0.219587 0.095458
H83   H     H_    0.897455 0.427970 0.599652 0.111317
H84   H     H_    0.928008 0.568797 0.275287 0.116786
H85   H     H_    0.397453 0.927971 0.599648 0.111317
H86   H     H_    0.428006 0.068798 0.275283 0.116786
H87   H     H_    0.884835 0.568714 0.589460 0.126558
H88   H     H_    0.508212 0.131264 0.857743 0.089918
H89   H     H_    0.960036 0.429056 0.304408 0.131309
H90   H     H_    0.384846 0.068716 0.589467 0.126567
H91   H     H_    0.460019 0.929057 0.304392 0.131306
H92   H     H_    0.879935 0.606992 0.341773 0.136666
H93   H     H_    0.895284 0.387356 0.492931 0.131583
H94   H     H_    0.379943 0.106995 0.341779 0.136663
H95   H     H_    0.395270 0.887359 0.492919 0.131584
H96   H     H_    0.680150 0.273975 0.878585 0.159976
H97   H     H_    0.239258 0.768542 0.130170 0.149039
H98   H     H_    0.334984 0.283606 0.125881 0.161569
H99   H     H_    0.450405 0.883799 0.137021 0.098175
H100  H     H_    0.743594 0.762658 0.862480 0.152001
H101  H     H_    0.180178 0.773960 0.878611 0.159977
H102  H     H_    0.739284 0.268533 0.130168 0.149027
H103  H     H_    0.834984 0.783606 0.125881 0.161569
H104  H     H_    0.243595 0.262659 0.862480 0.152000
H105  H     H_    0.728945 0.385952 0.124538 0.307884
H106  H     H_    0.050812 0.815246 0.847929 0.324240
H107  H     H_    0.230524 0.372411 0.827995 0.313387
H108  H     H_    0.947678 0.820052 0.123011 0.323985
H109  H     H_    0.228923 0.885961 0.124505 0.307886
H110  H     H_    0.775078 0.315296 0.882906 0.124718
H111  H     H_    0.550801 0.315253 0.847953 0.324241
H112  H     H_    0.730524 0.872411 0.827995 0.313387
H113  H     H_    0.447678 0.320052 0.123011 0.323984
H114  H     H_    0.877266 0.710500 0.500466 0.260354
H115  H     H_    0.880542 0.681697 0.586774 0.257975
H116  H     H_    0.964684 0.704184 0.609101 0.257793
H117  H     H_    0.960729 0.623446 0.589665 0.198163
H118  H     H_    0.957938 0.651935 0.504212 0.202515
H119  H     H_    0.820515 0.642857 0.399021 0.188585
H120  H     H_    0.816738 0.617805 0.480915 0.187338
N1    N     N_R   0.963040 0.582050 0.045950 -0.038278
N2    N     N_R   0.082060 0.582000 0.045840 -0.038796
N3    N     N_R   0.082060 0.418000 0.045840 -0.039783
N4    N     N_R   0.917940 0.582000 0.954160 -0.039864
N5    N     N_R   0.417940 0.918000 0.954160 -0.040700
N6    N     N_R   0.582060 0.082000 0.045840 -0.038796
N7    N     N_R   0.582060 0.918000 0.045840 -0.039783
N8    N     N_R   0.417940 0.082000 0.954160 -0.039864
N9    N     N_R   0.858490 0.522630 0.835610 -0.037644
N10   N     N_R   0.141510 0.477370 0.164390 -0.039957
N11   N     N_R   0.141510 0.522630 0.164390 -0.039795
N12   N     N_R   0.036960 0.417950 0.954050 -0.041270
N13   N     N_R   0.858490 0.477370 0.835610 -0.037253
N14   N     N_R   0.358490 0.022630 0.835610 -0.037644
N15   N     N_R   0.641510 0.977370 0.164390 -0.039957
N16   N     N_R   0.641510 0.022630 0.164390 -0.039794
N17   N     N_R   0.358490 0.977370 0.835610 -0.037253
N18   N     N_R   0.022480 0.477420 0.164500 -0.039715
N19   N     N_R   0.977520 0.522580 0.835500 -0.038921
N20   N     N_R   0.977520 0.477420 0.835500 -0.038402
N21   N     N_R   0.022480 0.522580 0.164500 -0.040519
N22   N     N_R   0.522480 0.977420 0.164500 -0.039715
N23   N     N_R   0.036960 0.582050 0.954050 -0.039547
N24   N     N_R   0.477520 0.022580 0.835500 -0.038921
N25   N     N_R   0.477520 0.977420 0.835500 -0.038402
N26   N     N_R   0.522480 0.022580 0.164500 -0.040520
N27   N     N_R   0.963040 0.417950 0.045950 -0.040492
N28   N     N_R   0.463040 0.082050 0.045950 -0.038279
N29   N     N_R   0.536960 0.917950 0.954050 -0.041270
N30   N     N_R   0.536960 0.082050 0.954050 -0.039547
N31   N     N_R   0.463040 0.917950 0.045950 -0.040491
N32   N     N_R   0.917940 0.418000 0.954160 -0.040700
Ni1   Ni    Ni4+2 0.051820 0.551870 0.104030 0.213881
Ni2   Ni    Ni4+2 0.948180 0.448130 0.895970 0.209333
Ni3   Ni    Ni4+2 0.948180 0.551870 0.895970 0.208852
Ni4   Ni    Ni4+2 0.051820 0.448130 0.104030 0.216838
Ni5   Ni    Ni4+2 0.551820 0.051870 0.104030 0.213882
Ni6   Ni    Ni4+2 0.448180 0.948130 0.895970 0.209333
Ni7   Ni    Ni4+2 0.448180 0.051870 0.895970 0.208851
Ni8   Ni    Ni4+2 0.551820 0.948130 0.104030 0.216839
O1    O     O_3   0.703210 0.358464 0.092744 -0.763138
O2    O     O_3   0.034845 0.784136 0.838569 -0.756438
O3    O     O_3   0.267405 0.350122 0.870268 -0.760560
O4    O     O_3   0.965432 0.789179 0.136348 -0.756448
O5    O     O_3   0.203190 0.858471 0.092714 -0.763138
O6    O     O_3   0.534832 0.284143 0.838590 -0.756432
O7    O     O_3   0.767405 0.850122 0.870268 -0.760560
O8    O     O_3   0.465432 0.289179 0.136348 -0.756448

loop_
_geom_bond_atom_site_label_1
_geom_bond_atom_site_label_2
_ccdc_geom_bond_type
C2    H89   S    
C22   N15   A    
H108  O4    S    
C35   C154  A    
C129  H59   S    
C126  H38   S    
N22   N26   A    
C158  H43   S    
N13   Ni2   S    
C57   C76   A    
C122  C139  A    
C63   H116  S    
C3    H51   S    
N28   Ni5   S    
N12   Ni2   S    
C132  N30   A    
C64   C84   S    
C110  H66   S    
C5    H53   S    
C113  C122  A    
C107  H28   S    
C1    C34   A    
C97   C150  A    
C148  C151  S    
C12   C157  A    
C117  C126  A    
N29   Ni6   S    
C21   C45   A    
C22   C47   A    
C136  O1    S    
C88   H44   S    
C104  H24   S    
C109  C118  A    
C67   C85   S    
C9    C43   S    
C26   N18   A    
C31   H80   S    
N23   Ni3   S    
C134  N7    A    
C56   C154  A    
C3    C8    A    
C74   C75   A    
C6    C11   A    
C112  C120  A    
C33   C50   A    
N18   Ni4   S    
C103  C112  A    
C142  C151  A    
C9    C164  A    
C17   C43   A    
N8    N28   A    
C18   C44   A    
C69   H14   S    
C78   C82   A    
C21   H70   S    
C25   H73   S    
C53   C58   A    
N27   Ni4   S    
C18   H67   S    
C110  N28   A    
C33   H82   S    
C120  H32   S    
C38   C109  S    
C46   C84   A    
C87   H92   S    
C94   H98   S    
C74   C79   A    
C120  C138  A    
C90   H94   S    
C118  C136  A    
C19   C44   A    
C14   C156  A    
N3    Ni4   S    
C15   C161  A    
H111  O6    S    
N4    Ni3   S    
C71   H23   S    
C72   C73   S    
C6    C160  A    
C85   C90   A    
C63   H114  S    
C65   H6    S    
C159  H45   S    
N7    N29   A    
C106  C115  A    
C86   C91   A    
C164  H50   S    
C134  H63   S    
C30   N22   A    
C8    C162  A    
C64   C65   S    
C77   N12   A    
C54   H85   S    
C57   C85   A    
C119  H31   S    
C69   C70   S    
C72   H21   S    
C37   C111  S    
C10   C47   S    
C67   C69   S    
N22   Ni8   S    
C54   C81   A    
C28   H76   S    
C23   N16   A    
C153  H39   S    
N2    N23   A    
C4    H52   S    
C16   C160  A    
C62   H117  S    
C41   C133  A    
N8    Ni7   S    
N26   Ni5   S    
C17   N9    A    
C100  C152  A    
C121  H77   S    
C7    C161  A    
H113  O8    S    
C19   N11   A    
C66   H3    S    
C61   H119  S    
C123  H35   S    
C76   C78   A    
C67   H16   S    
C73   H19   S    
C13   C57   A    
C111  C119  A    
C42   C114  S    
C42   C131  A    
C52   C79   A    
C138  C147  A    
C145  C150  S    
C102  H2    S    
C41   C115  S    
N6    Ni5   S    
C46   C75   A    
N9    Ni3   S    
C141  C150  A    
N10   Ni4   S    
C54   C59   A    
N11   Ni1   S    
C139  C148  A    
C100  C108  A    
C23   C47   A    
C131  N5    A    
C129  N3    A    
C53   C80   A    
C15   C158  A    
C100  H104  S    
C155  C163  A    
C40   C134  A    
N31   Ni8   S    
C71   C86   S    
C70   H12   S    
C28   C49   A    
N30   Ni7   S    
C20   N13   A    
C93   C146  A    
C122  H34   S    
N25   Ni6   S    
C70   H10   S    
C114  C123  A    
C116  C125  A    
C124  C141  A    
C7    H56   S    
C25   C45   A    
C42   C143  A    
C19   H68   S    
C108  C117  A    
C31   C51   A    
C13   C59   A    
C32   H81   S    
C50   C60   S    
C137  C146  A    
C130  H60   S    
C71   C72   S    
C144  C152  A    
C63   H115  S    
C143  N31   A    
N7    Ni8   S    
C13   H90   S    
C126  C144  A    
C30   C50   A    
C61   C62   S    
C101  H110  S    
C107  C116  A    
C79   C89   A    
C91   H95   S    
C104  C113  A    
C20   H69   S    
N2    Ni1   S    
N17   Ni6   S    
C3    C157  A    
C144  O8    S    
C140  C149  A    
C27   C49   A    
C7    C10   A    
C83   C87   A    
C96   C105  A    
C35   C74   A    
C37   C88   A    
C137  O2    S    
C1    N1    A    
C102  C111  A    
C27   H75   S    
C39   C135  A    
N24   N25   A    
C34   C113  S    
C125  H37   S    
C5    C11   A    
C36   C77   A    
N10   N11   A    
C101  C109  A    
C141  O6    S    
N32   Ni2   S    
C9    C163  A    
C67   H17   S    
C6    H54   S    
N15   Ni8   S    
C36   C112  S    
C29   H78   S    
C135  N8    A    
C26   C48   A    
C37   C128  A    
C18   N10   A    
N5    N31   A    
C55   C60   A    
C98   C151  A    
C68   C78   A    
N1    Ni1   S    
C133  H62   S    
C61   C83   S    
C35   C83   A    
C39   C117  S    
C98   C107  A    
H112  O7    S    
N14   N17   A    
C64   H8    S    
N15   N16   A    
C32   C51   A    
C62   C63   S    
C146  C149  S    
C26   H74   S    
N20   Ni2   S    
C31   N24   A    
C55   H86   S    
C71   H25   S    
C156  H41   S    
C72   H22   S    
C92   C101  A    
C97   C106  A    
C130  N4    A    
C95   H100  S    
C99   H55   S    
C94   C103  A    
C11   C45   S    
C143  H99   S    
C52   H83   S    
C96   H101  S    
C17   H65   S    
C115  C124  A    
C105  H26   S    
C157  H42   S    
C62   H118  S    
C38   C99   A    
C93   C102  A    
C41   C132  A    
C2    C58   A    
C48   C58   S    
C80   C87   A    
C160  H46   S    
C124  H36   S    
C82   C90   A    
C66   H4    S    
C153  C162  A    
C133  N6    A    
C53   H84   S    
C36   C129  A    
C69   H15   S    
C73   H18   S    
C163  H49   S    
H105  O1    S    
C96   C149  A    
N9    N13   A    
C118  H30   S    
C24   C68   A    
C81   C91   A    
C97   H102  S    
N6    N30   A    
C64   H9    S    
C77   H33   S    
C14   C155  A    
C68   C86   A    
C99   N27   A    
C12   C153  A    
C142  O7    S    
C38   C127  A    
C2    C46   A    
C40   C121  A    
C161  H47   S    
N18   N21   A    
C65   H7    S    
N1    N4    A    
N19   Ni3   S    
C154  H87   S    
C121  N29   A    
C15   C16   S    
C25   N17   A    
C32   N25   A    
N3    N12   A    
C27   N19   A    
C33   N26   A    
C28   N20   A    
C39   C110  A    
C4    C158  A    
N19   N20   A    
C5    C159  A    
C70   H11   S    
C136  C145  A    
C127  N32   A    
N27   N32   A    
C16   C159  A    
H109  O5    S    
H106  O2    S    
N16   Ni5   S    
C106  H27   S    
C92   H96   S    
N5    Ni6   S    
C93   H97   S    
C98   H103  S    
N21   Ni1   S    
C135  H64   S    
C29   C48   A    
C21   N14   A    
C119  C137  A    
C61   H120  S    
C105  C114  A    
C89   H93   S    
C128  H58   S    
C73   H20   S    
C123  C140  A    
C22   H71   S    
C103  H13   S    
C24   H91   S    
C131  H61   S    
C1    H1    S    
C125  C142  A    
C24   C60   A    
C138  O3    S    
C29   N21   A    
C140  O5    S    
C55   C82   A    
C156  C164  A    
N24   Ni7   S    
C23   H72   S    
C12   C14   S    
C30   H79   S    
N14   Ni7   S    
C51   C59   S    
C84   C89   A    
C4    C10   A    
C155  H40   S    
C20   C43   A    
C95   C104  A    
C132  H88   S    
C75   C80   A    
C94   C147  A    
C139  O4    S    
C92   C145  A    
C95   C148  A    
C8    C44   S    
C76   C81   A    
C66   H5    S    
C49   C56   S    
H107  O3    S    
C147  C152  S    
C128  N2    A    
C40   C116  S    
C162  H48   S    
C127  H57   S    
C34   C130  A    
C88   N23   A    
C65   C66   S    
C108  H29   S    
C52   C56   A    
