data_mof_unit_57084.cif
_audit_creation_date              2012-12-10T16:51:15-0500
_audit_creation_method            fapswitch 2.2
_symmetry_space_group_name_H-M    P1
_symmetry_Int_Tables_number       1
_space_group_crystal_system       triclinic
_cell_length_a                    27.734473
_cell_length_b                    8.681847
_cell_length_c                    7.427241
_cell_angle_alpha                 102.993413
_cell_angle_beta                  94.136604
_cell_angle_gamma                 92.381717
_cell_volume                      1734.97562363

loop_
_atom_site_label
_atom_site_type_symbol
_atom_type_description
_atom_site_fract_x
_atom_site_fract_y
_atom_site_fract_z
_atom_type_partial_charge
C1    C     C_R   0.498538 0.199610 0.453180 0.891293
C2    C     C_R   0.501462 0.800390 0.546820 0.891290
C3    C     C_R   0.101713 0.479840 0.513186 -0.056419
C4    C     C_R   0.898285 0.519477 0.486875 -0.056413
C5    C     C_R   0.123825 0.404195 0.355068 -0.119645
C6    C     C_R   0.876174 0.595153 0.645002 -0.119704
C7    C     C_R   0.094958 0.321503 0.198869 -0.205199
C8    C     C_R   0.905041 0.677842 0.801199 -0.205190
C9    C     C_R   0.130775 0.544602 0.678253 -0.117850
C10   C     C_R   0.869222 0.454725 0.321794 -0.117817
C11   C     C_R   0.354878 0.499280 0.507818 -0.280673
C12   C     C_R   0.645119 0.500552 0.492161 -0.280710
C13   C     C_R   0.971131 0.438512 0.329683 -0.015323
C14   C     C_R   0.028865 0.560786 0.670367 -0.015298
C15   C     C_R   0.978204 0.581338 0.659823 0.001145
C16   C     C_R   0.021793 0.417965 0.340233 0.001122
C17   C     C_R   0.949401 0.511390 0.492768 -0.058901
C18   C     C_R   0.050596 0.487908 0.507291 -0.058916
C19   C     C_R   0.941376 0.399184 0.159889 0.700462
C20   C     C_R   0.058621 0.600128 0.840148 0.700475
C21   C     C_R   0.891248 0.399843 0.158303 -0.214453
C22   C     C_R   0.108750 0.599475 0.841731 -0.214447
C23   C     C_R   0.407608 0.500854 0.502589 0.918150
C24   C     C_R   0.592391 0.499122 0.497407 0.918190
C25   C     C_R   0.044786 0.320845 0.194831 0.727575
C26   C     C_R   0.955213 0.678478 0.805224 0.727619
C27   C     C_2   0.497811 0.031739 0.426743 -0.335852
C28   C     C_2   0.502189 0.968261 0.573257 -0.335843
C29   C     C_R   0.174506 0.405675 0.360625 0.694450
C30   C     C_R   0.825494 0.593736 0.639440 0.694428
C31   C     C_R   0.181376 0.545957 0.677515 0.706202
C32   C     C_R   0.818622 0.453424 0.322524 0.706206
C33   C     C_R   0.276096 0.574784 0.404815 0.544260
C34   C     C_R   0.723870 0.424836 0.595200 0.544346
C35   C     C_R   0.326415 0.576666 0.394248 0.344164
C36   C     C_R   0.673550 0.423071 0.605720 0.344192
C37   C     C_R   0.332649 0.415752 0.623586 -0.419372
C38   C     C_R   0.667379 0.584016 0.376398 -0.419417
C39   C     C_R   0.282457 0.407886 0.626500 0.624520
C40   C     C_R   0.717573 0.591743 0.373498 0.624579
C41   C     C_R   0.253975 0.487781 0.517563 0.031826
C42   C     C_R   0.746023 0.511782 0.482458 0.031710
Cu1   Cu    Cu3+1 0.505380 0.517380 0.684380 0.969773
Cu2   Cu    Cu3+1 0.494620 0.482620 0.315620 0.969721
H1    H     H_    0.354181 0.353515 0.708686 0.199907
H2    H     H_    0.645870 0.646308 0.291294 0.199927
H3    H     H_    0.462014 0.378567 0.948409 0.223441
H4    H     H_    0.537986 0.621433 0.051591 0.223468
H5    H     H_    0.111043 0.250443 0.081728 0.218672
H6    H     H_    0.888957 0.748929 0.918338 0.218686
H7    H     H_    0.869809 0.363722 0.026345 0.228186
H8    H     H_    0.130190 0.635616 0.973677 0.228211
H9    H     H_    0.493666 0.960047 0.285561 0.179597
H10   H     H_    0.506334 0.039953 0.714439 0.179597
N1    N     N_R   0.202199 0.479545 0.518979 -0.422652
N2    N     N_R   0.797800 0.519891 0.481067 -0.422660
N3    N     N_2   0.486510 0.456430 0.038510 -0.217786
N4    N     N_2   0.513490 0.543570 0.961490 -0.217766
O1    O     O_R   0.503500 0.286120 0.619780 -0.582425
O2    O     O_R   0.496500 0.713880 0.380220 -0.582422
O3    O     O_R   0.494410 0.256780 0.308360 -0.588974
O4    O     O_R   0.505590 0.743220 0.691640 -0.588958
O5    O     O_R   0.434810 0.514700 0.655690 -0.604152
O6    O     O_R   0.565190 0.485300 0.344310 -0.604201
O7    O     O_R   0.425720 0.485350 0.344280 -0.561290
O8    O     O_R   0.574280 0.514650 0.655720 -0.561171
O9    O     O_2   0.195990 0.333650 0.209190 -0.469739
O10   O     O_2   0.804012 0.665814 0.790881 -0.469661
O11   O     O_2   0.790492 0.384548 0.166950 -0.468340
O12   O     O_2   0.209503 0.614846 0.833075 -0.468313
F1    F     F_    0.261475 0.321518 0.734223 -0.601923
F2    F     F_    0.738587 0.678049 0.265780 -0.601828
O13   O     O_3   0.651540 0.333149 0.712265 -0.552317
C43   C     C_3   0.659538 0.412110 0.900841 -0.100901
H11   H     H_    0.648881 0.536973 0.925209 0.141170
H12   H     H_    0.697873 0.408404 0.953629 0.245293
H13   H     H_    0.636781 0.350384 0.982845 0.167376
O14   O     O_3   0.348385 0.666667 0.287712 -0.552211
C44   C     C_3   0.340433 0.587632 0.099163 -0.100992
H14   H     H_    0.302019 0.590070 0.046555 0.245212
H15   H     H_    0.351494 0.463206 0.074804 0.141129
H16   H     H_    0.362898 0.650144 0.017000 0.167651
F3    F     F_    0.751278 0.340178 0.692349 -0.592881
F4    F     F_    0.248658 0.659375 0.307689 -0.592828
F5    F     F_    0.959857 0.377455 0.992562 -0.600955
F6    F     F_    0.040141 0.621891 0.007470 -0.600949
F7    F     F_    0.019779 0.209936 0.058488 -0.569735
F8    F     F_    0.980219 0.789404 0.941533 -0.569747

loop_
_geom_bond_atom_site_label_1
_geom_bond_atom_site_label_2
_ccdc_geom_bond_type
C8    C26   A    
O13   C43   S    
C14   C18   A    
C34   C42   A    
Cu1   O5    S    
C39   C41   A    
Cu2   O6    S    
C43   H12   S    
C22   H8    S    
C19   C21   A    
C1    O1    A    
C2    O2    A    
C9    C22   A    
C25   F7    S    
C3    C18   A    
C11   C23   S    
C11   C37   A    
C41   N1    S    
Cu1   N4    S    
C42   N2    S    
C29   O9    S    
C31   O12   S    
C43   H13   S    
C20   F6    S    
C12   C36   A    
Cu1   O1    S    
C23   O5    A    
C24   O6    A    
Cu2   O7    S    
C5    C29   A    
C10   C21   A    
C43   H11   S    
C13   C19   A    
C14   C20   A    
C7    H5    S    
C4    C6    A    
C5    C7    A    
C28   H10   S    
O14   C44   S    
C15   C26   A    
C6    C8    A    
C29   N1    A    
C19   F5    S    
C30   N2    A    
Cu1   Cu2   S    
C3    C9    A    
H3    N3    S    
Cu2   N3    S    
C4    C17   A    
C16   C18   A    
C6    C30   A    
C20   C22   A    
C34   F3    S    
C37   H1    S    
C8    H6    S    
C21   H7    S    
C44   H15   S    
C16   C25   A    
C15   C17   A    
C40   F2    S    
C3    C5    A    
C1    O3    A    
C44   H16   S    
C27   H9    S    
H4    N4    S    
C32   O11   S    
C24   O8    A    
Cu2   O3    S    
C12   C24   S    
C35   O14   S    
C7    C25   A    
C13   C17   A    
C33   C41   A    
C23   O7    A    
C11   C35   A    
C37   C39   A    
C38   C40   A    
N3    N4    D    
Cu2   O2    S    
Cu1   O8    S    
C40   C42   A    
C33   C35   A    
C34   C36   A    
C12   C38   A    
C33   F4    S    
C38   H2    S    
C36   O13   S    
C9    C31   A    
C44   H14   S    
C10   C32   A    
C26   F8    S    
C13   C16   A    
C27   C28   D    
C1    C27   S    
C39   F1    S    
C14   C15   A    
C2    C28   S    
C31   N1    A    
C4    C10   A    
C32   N2    A    
C30   O10   S    
C2    O4    A    
Cu1   O4    S    
