data_mof_unit_61681.cif
_audit_creation_date              2012-12-10T16:57:57-0500
_audit_creation_method            fapswitch 2.2
_symmetry_space_group_name_H-M    P1
_symmetry_Int_Tables_number       1
_space_group_crystal_system       triclinic
_cell_length_a                    13.125067
_cell_length_b                    13.134548
_cell_length_c                    15.114813
_cell_angle_alpha                 86.276658
_cell_angle_beta                  100.670054
_cell_angle_gamma                 90.835028
_cell_volume                      2555.20387392

loop_
_atom_site_label
_atom_site_type_symbol
_atom_type_description
_atom_site_fract_x
_atom_site_fract_y
_atom_site_fract_z
_atom_type_partial_charge
C1    C     C_R   0.463807 0.773160 0.465898 0.869054
C2    C     C_R   0.378308 0.474713 0.106771 -0.161909
C3    C     C_R   0.565396 0.488435 0.122656 -0.170213
C4    C     C_R   0.555803 0.497207 0.028583 0.018446
C5    C     C_R   0.456277 0.491982 0.973886 0.093253
C6    C     C_R   0.445864 0.499392 0.880436 -0.243684
C7    C     C_R   0.633296 0.519275 0.893846 -0.202132
C8    C     C_R   0.643568 0.511816 0.988377 0.588641
C9    C     C_2   0.551327 0.118534 0.548819 0.541457
C10   C     C_2   0.504363 0.057380 0.486516 -0.298272
C11   C     C_2   0.452519 0.883797 0.449144 -0.340805
C12   C     C_R   0.537004 0.227937 0.534252 0.755096
C13   C     C_2   0.512631 0.946462 0.502664 -0.052245
C14   C     C_2   0.110553 0.454863 0.461127 0.355432
C15   C     C_2   0.061181 0.468024 0.529434 0.537345
C16   C     C_2   0.892402 0.542799 0.546484 -0.223871
C17   C     C_2   0.947224 0.474262 0.511528 -0.224265
C18   C     C_R   0.777703 0.535065 0.528019 0.804508
C19   C     C_R   0.223098 0.464041 0.473159 0.822970
C20   C     C_R   0.516207 0.515901 0.741498 0.908210
C21   C     C_R   0.485078 0.482363 0.258706 0.802569
C22   C     C_R   0.532909 0.513300 0.839962 -0.172648
C23   C     C_R   0.476707 0.478727 0.161525 -0.050450
C24   C     C_R   0.368163 0.479968 0.013423 -0.131227
H1    H     H_    0.369414 0.494755 0.838625 0.187001
H2    H     H_    0.906872 0.419626 0.466276 0.202702
H3    H     H_    0.291438 0.476299 0.972201 0.167270
H4    H     H_    0.309236 0.467857 0.136448 0.174633
H5    H     H_    0.640899 0.493271 0.165793 0.209853
H6    H     H_    0.568440 0.915473 0.560060 0.239059
H7    H     H_    0.457292 0.089710 0.424402 0.121849
H8    H     H_    0.395650 0.914131 0.392264 0.175543
O1    O     O_3   0.500000 0.500000 0.500000 -0.512175
O2    O     O_R   0.733070 0.467190 0.476550 -0.627503
O3    O     O_R   0.261010 0.525210 0.419080 -0.609876
O4    O     O_R   0.532760 0.736590 0.530220 -0.638830
O5    O     O_R   0.473150 0.271000 0.574150 -0.621692
O6    O     O_R   0.407210 0.713280 0.414580 -0.629035
O7    O     O_R   0.586880 0.279120 0.481060 -0.647483
O8    O     O_R   0.723250 0.592730 0.566440 -0.596021
O9    O     O_R   0.282660 0.414860 0.537920 -0.627879
O10   O     O_R   0.563230 0.581310 0.697440 -0.621202
O11   O     O_R   0.421030 0.536630 0.288090 -0.635004
O12   O     O_R   0.459330 0.447650 0.700640 -0.614850
O13   O     O_R   0.556410 0.434400 0.313840 -0.633181
Zn1   Zn    Zn3+2 0.592480 0.421540 0.443840 1.014319
Zn2   Zn    Zn3+2 0.578450 0.600910 0.572270 1.049313
Zn3   Zn    Zn3+2 0.430000 0.409940 0.576840 1.053766
Zn4   Zn    Zn3+2 0.399070 0.567610 0.407050 1.024747
F1    F     F_    0.605002 0.080164 0.629587 -0.637129
F2    F     F_    0.115452 0.480504 0.614050 -0.649678
C25   C     C_2   0.943637 0.625494 0.601961 1.023795
O14   O     O_2   0.905552 0.654380 0.663908 -0.579910
O15   O     O_R   0.033805 0.672245 0.581929 -0.758097
H9    H     H_    0.060650 0.727535 0.624133 0.356818
F3    F     F_    0.055836 0.450809 0.375555 -0.651960
C26   C     C_2   0.728508 0.526902 0.853616 1.039711
O16   O     O_2   0.800978 0.580314 0.886607 -0.510337
O17   O     O_R   0.736661 0.471068 0.779526 -0.805837
H10   H     H_    0.805266 0.482514 0.758653 0.359604
F4    F     F_    0.739337 0.515172 0.041183 -0.617565

loop_
_geom_bond_atom_site_label_1
_geom_bond_atom_site_label_2
_ccdc_geom_bond_type
O3    Zn4   S    
O8    Zn2   S    
C20   O10   A    
C15   C17   S    
O2    Zn1   S    
C15   F2    S    
C7    C22   A    
C11   C13   D    
C9    C10   D    
C3    C23   A    
C1    C11   S    
C24   H3    S    
C8    F4    S    
C4    C8    A    
C12   O7    A    
C19   O9    A    
O17   H10   S    
O6    Zn4   S    
C19   O3    A    
O13   Zn1   S    
O5    Zn3   S    
O1    Zn1   S    
C18   O2    A    
C26   O16   D    
C16   C17   D    
C5    C24   A    
C1    O6    A    
O7    Zn1   S    
C17   H2    S    
C14   C19   S    
C20   O12   A    
O9    Zn3   S    
C25   O15   S    
C11   H8    S    
C21   O13   A    
O10   Zn2   S    
C21   C23   S    
C2    C24   A    
C5    C6    A    
O1    Zn2   S    
C9    C12   S    
C26   O17   S    
C6    H1    S    
C14   F3    S    
O1    Zn4   S    
C3    C4    A    
C6    C22   A    
O12   Zn3   S    
C13   H6    S    
C7    C8    A    
C25   O14   D    
O4    Zn2   S    
C16   C18   S    
C12   O5    A    
C2    C23   A    
C3    H5    S    
O1    Zn3   S    
C18   O8    A    
C14   C15   D    
O11   Zn4   S    
C2    H4    S    
O15   H9    S    
C10   H7    S    
C7    C26   S    
C21   O11   A    
C9    F1    S    
C16   C25   S    
C1    O4    A    
C20   C22   S    
C4    C5    A    
C10   C13   S    
