data_mof_unit_40985.cif
_audit_creation_date              2012-12-11T15:55:49-0500
_audit_creation_method            fapswitch 2.2
_symmetry_space_group_name_H-M    P1
_symmetry_Int_Tables_number       1
_space_group_crystal_system       triclinic
_cell_length_a                    6.933296
_cell_length_b                    14.545688
_cell_length_c                    16.096152
_cell_angle_alpha                 89.972406
_cell_angle_beta                  89.874164
_cell_angle_gamma                 89.811578
_cell_volume                      1623.2769784

loop_
_atom_site_label
_atom_site_type_symbol
_atom_type_description
_atom_site_fract_x
_atom_site_fract_y
_atom_site_fract_z
_atom_type_partial_charge
O1    O     O_R   0.505680 0.583900 0.413320 -0.541068
O2    O     O_R   0.176010 0.594950 0.586080 -0.518611
O3    O     O_R   0.005680 0.416100 0.586680 -0.546509
C1    C     C_R   0.344311 0.618542 0.613891 0.749823
O4    O     O_R   0.175960 0.594930 0.413930 -0.513174
O5    O     O_R   0.005640 0.416080 0.413300 -0.544239
C2    C     C_R   0.344569 0.618713 0.386114 0.740856
O6    O     O_R   0.505720 0.583920 0.586700 -0.542349
O7    O     O_3   0.339190 0.441320 0.500000 -0.370459
V1    V     V_3+5 0.064350 0.510890 0.500000 1.578972
O8    O     O_R   0.675920 0.405050 0.413920 -0.521385
C3    C     C_R   0.845167 0.380989 0.386560 0.746054
O9    O     O_R   0.675960 0.405070 0.586070 -0.547031
C4    C     C_R   0.844823 0.382913 0.614810 0.697554
V2    V     V_3+5 0.564340 0.489110 0.500000 1.538885
O10   O     O_3   0.839370 0.558680 0.500000 -0.338292
C5    C     C_R   0.006412 0.317582 0.741782 0.105119
C6    C     C_R   0.852820 0.317332 0.685330 -0.106476
C7    C     C_R   0.701894 0.254837 0.700316 -0.146016
H1    H     H_    0.580182 0.252104 0.658611 0.153442
C8    C     C_R   0.713017 0.190712 0.765837 -0.159562
H2    H     H_    0.598979 0.140755 0.772801 0.132047
C9    C     C_R   0.875725 0.186897 0.818157 -0.106903
C10   C     C_R   0.017889 0.253852 0.806368 0.103262
C11   C     C_3   0.229875 0.242197 0.795107 -0.407962
C12   C     C_3   0.217487 0.312025 0.725096 -0.396154
H3    H     H_    0.267817 0.171890 0.773453 0.175698
H4    H     H_    0.312731 0.267220 0.849591 0.174165
H5    H     H_    0.249107 0.282504 0.662841 0.188911
H6    H     H_    0.292338 0.377630 0.739253 0.165176
C13   C     C_R   0.014271 0.250027 0.195825 -0.158620
H7    H     H_    0.128436 0.256920 0.150213 0.143186
C14   C     C_R   0.003539 0.313896 0.260606 -0.168065
H8    H     H_    0.109784 0.368266 0.263123 0.140237
C15   C     C_R   0.855532 0.309547 0.320213 -0.169720
C16   C     C_R   0.720875 0.236679 0.315567 0.362789
C17   C     C_R   0.732039 0.171811 0.250300 0.237656
C18   C     C_R   0.877547 0.179508 0.188496 -0.164238
C19   C     C_R   0.205359 0.752532 0.697457 0.302519
C20   C     C_R   0.220378 0.813727 0.764264 -0.177478
H9    H     H_    0.106043 0.863611 0.773755 0.180405
C21   C     C_R   0.381423 0.813100 0.817185 -0.178037
C22   C     C_R   0.529797 0.748095 0.801955 0.408390
C23   C     C_R   0.514464 0.686590 0.735409 -0.187357
H10   H     H_    0.628911 0.636742 0.725929 0.173714
C24   C     C_R   0.353402 0.687202 0.682474 -0.173820
C25   C     C_R   0.198609 0.749350 0.300366 0.387938
C26   C     C_R   0.211985 0.811064 0.233787 -0.148509
H11   H     H_    0.091579 0.856744 0.221514 0.165458
C27   C     C_R   0.379242 0.816055 0.184665 -0.107798
C28   C     C_R   0.534984 0.757909 0.203643 -0.102525
H12   H     H_    0.666356 0.760278 0.167179 0.143093
C29   C     C_R   0.521810 0.694674 0.269023 -0.145117
H13   H     H_    0.643473 0.649585 0.280508 0.160150
C30   C     C_R   0.353837 0.688625 0.318192 -0.135558
O11   O     O_R   0.229200 0.915950 0.913350 -0.542281
O12   O     O_R   0.559090 0.905000 0.086080 -0.530242
O13   O     O_R   0.729280 0.083880 0.086680 -0.525570
C31   C     C_R   0.390237 0.882925 0.115021 0.767444
O14   O     O_R   0.558920 0.904980 0.913920 -0.510574
O15   O     O_R   0.729110 0.083860 0.913300 -0.548198
C32   C     C_R   0.390599 0.881577 0.885948 0.748866
O16   O     O_R   0.229360 0.915970 0.086730 -0.544596
O17   O     O_3   0.395680 0.058580 0.000030 -0.378564
V3    V     V_3+5 0.670570 0.989070 0.999990 1.541112
O18   O     O_R   0.058820 0.094950 0.913870 -0.549048
C33   C     C_R   0.889690 0.116814 0.884910 0.682889
O19   O     O_R   0.058990 0.094970 0.086020 -0.539469
C34   C     C_R   0.889771 0.114582 0.116906 0.748611
V4    V     V_3+5 0.170560 0.010930 0.999930 1.481347
O20   O     O_3   0.895590 0.941310 0.999960 -0.352821
Br1   Br    Br    0.554816 0.069418 0.251108 -0.434063
Br2   Br    Br    0.983185 0.767074 0.627263 -0.436810
Cl1   Cl    Cl    0.734755 0.737034 0.865933 -0.656485
Cl2   Cl    Cl    0.986975 0.755459 0.361153 -0.585629
Cl3   Cl    Cl    0.543867 0.222005 0.393958 -0.568390

loop_
_geom_bond_atom_site_label_1
_geom_bond_atom_site_label_2
_ccdc_geom_bond_type
C4    C6    S    
C15   C16   A    
C2    C30   S    
C1    O6    A    
C1    C24   S    
C29   H13   S    
C11   H4    S    
C27   C31   S    
C16   C17   A    
C7    C8    A    
O5    C3    A    
O12   C31   A    
V2    O10   S    
O14   C32   A    
C6    C7    A    
C9    C33   S    
C16   Cl3   S    
O8    V2    S    
C13   H7    S    
O19   C34   A    
C9    C10   A    
C13   C14   A    
V4    O20   S    
O1    V2    S    
O17   V4    S    
O7    V1    S    
C21   C32   S    
C22   Cl1   S    
C20   C21   A    
O18   C33   A    
C18   C34   S    
O9    C4    A    
C23   C24   A    
C14   H8    S    
C29   C30   A    
C5    C10   A    
C28   H12   S    
C10   C11   S    
C19   C20   A    
O4    C2    A    
C27   C28   A    
C11   C12   S    
V3    O20   S    
C28   C29   A    
O2    C1    A    
C22   C23   A    
C17   C18   A    
O15   C33   A    
O13   V3    S    
C25   C26   A    
O16   V4    S    
C5    C6    A    
C3    C15   S    
O3    C4    A    
C19   C24   A    
C26   H11   S    
O14   V3    S    
C12   H6    S    
O6    V2    S    
O11   V4    S    
O9    V2    S    
O11   C32   A    
C21   C22   A    
C5    C12   S    
O2    V1    S    
C23   H10   S    
C25   C30   A    
C20   H9    S    
O1    C2    A    
O12   V3    S    
O5    V1    S    
O8    C3    A    
O13   C34   A    
C11   H3    S    
C31   O16   A    
C13   C18   A    
O17   V3    S    
C7    H1    S    
C8    C9    A    
O7    V2    S    
C25   Cl2   S    
O4    V1    S    
O3    V1    S    
V1    O10   S    
O18   V4    S    
C26   C27   A    
C14   C15   A    
C19   Br2   S    
O15   V3    S    
C12   H5    S    
O19   V4    S    
C17   Br1   S    
C8    H2    S    
