data_mof_unit_10708.cif
_audit_creation_date              2012-12-11T16:12:45-0500
_audit_creation_method            fapswitch 2.2
_symmetry_space_group_name_H-M    P1
_symmetry_Int_Tables_number       1
_space_group_crystal_system       triclinic
_cell_length_a                    6.940218
_cell_length_b                    20.93832
_cell_length_c                    23.94054
_cell_angle_alpha                 90.0
_cell_angle_beta                  89.997281
_cell_angle_gamma                 90.000051
_cell_volume                      3478.95560516

loop_
_atom_site_label
_atom_site_type_symbol
_atom_type_description
_atom_site_fract_x
_atom_site_fract_y
_atom_site_fract_z
_atom_type_partial_charge
O1    O     O_R   0.615270 0.806540 0.192260 -0.535633
O2    O     O_R   0.384730 0.193460 0.807740 -0.535633
O3    O     O_R   0.384730 0.193460 0.692260 -0.535630
O4    O     O_R   0.615270 0.806540 0.307740 -0.535630
O5    O     O_R   0.115270 0.693460 0.307740 -0.535631
O6    O     O_R   0.884730 0.306540 0.692260 -0.535631
O7    O     O_R   0.884730 0.306540 0.807740 -0.535633
O8    O     O_R   0.115270 0.693460 0.192260 -0.535633
O9    O     O_R   0.285500 0.813970 0.307340 -0.536674
O10   O     O_R   0.714500 0.186030 0.692660 -0.536674
O11   O     O_R   0.714500 0.186030 0.807340 -0.536683
O12   O     O_R   0.285500 0.813970 0.192660 -0.536683
O13   O     O_R   0.785500 0.686030 0.192660 -0.536683
O14   O     O_R   0.214500 0.313970 0.807340 -0.536683
O15   O     O_R   0.214500 0.313970 0.692660 -0.536674
O16   O     O_R   0.785500 0.686030 0.307340 -0.536674
C1    C     C_R   0.454409 0.829348 0.326542 0.726529
C2    C     C_R   0.545591 0.170652 0.673458 0.726529
C3    C     C_R   0.545585 0.170653 0.826542 0.726515
C4    C     C_R   0.454415 0.829347 0.173458 0.726516
C5    C     C_R   0.954415 0.670653 0.173458 0.726516
C6    C     C_R   0.045585 0.329347 0.826542 0.726515
C7    C     C_R   0.045591 0.329348 0.673458 0.726529
C8    C     C_R   0.954409 0.670652 0.326542 0.726529
O17   O     O_3   0.448760 0.710460 0.250000 -0.366133
O18   O     O_3   0.551240 0.289540 0.750000 -0.366133
O19   O     O_3   0.948760 0.789540 0.250000 -0.366133
O20   O     O_3   0.051240 0.210460 0.750000 -0.366133
V1    V     V_3+5 0.173900 0.757330 0.250000 1.433083
V2    V     V_3+5 0.826100 0.242670 0.750000 1.433083
V3    V     V_3+5 0.673900 0.742670 0.250000 1.433083
V4    V     V_3+5 0.326100 0.257330 0.750000 1.433083
C9    C     C_3   0.063434 0.528152 0.545400 0.382655
C10   C     C_3   0.936566 0.471848 0.454600 0.382655
C11   C     C_3   0.936857 0.471832 0.045427 0.382678
C12   C     C_3   0.063143 0.528168 0.954573 0.382678
C13   C     C_3   0.563144 0.971832 0.954573 0.382680
C14   C     C_3   0.436856 0.028168 0.045427 0.382680
C15   C     C_3   0.436562 0.028152 0.454601 0.382653
C16   C     C_3   0.563438 0.971848 0.545399 0.382653
C17   C     C_3   0.875899 0.546365 0.514883 -0.068967
C18   C     C_3   0.124101 0.453635 0.485117 -0.068967
C19   C     C_3   0.124337 0.453689 0.014843 -0.069033
C20   C     C_3   0.875663 0.546311 0.985157 -0.069033
C21   C     C_3   0.375665 0.953689 0.985157 -0.069032
C22   C     C_3   0.624335 0.046311 0.014843 -0.069032
C23   C     C_3   0.624097 0.046366 0.485117 -0.068962
C24   C     C_3   0.375902 0.953634 0.514883 -0.068962
H1    H     H_    0.679521 0.452649 0.517293 0.153872
H2    H     H_    0.320479 0.547350 0.482707 0.153872
H3    H     H_    0.320374 0.547486 0.017168 0.153947
H4    H     H_    0.679626 0.452514 0.982832 0.153947
H5    H     H_    0.179625 0.047485 0.982832 0.153946
H6    H     H_    0.820375 0.952515 0.017168 0.153946
H7    H     H_    0.820480 0.952652 0.482705 0.153870
H8    H     H_    0.179519 0.047348 0.517295 0.153870
C25   C     C_1   0.964792 0.625028 0.371957 -0.196733
C26   C     C_1   0.035208 0.374971 0.628043 -0.196733
C27   C     C_1   0.035184 0.374969 0.871958 -0.196757
C28   C     C_1   0.964816 0.625031 0.128042 -0.196757
C29   C     C_1   0.464816 0.874969 0.128042 -0.196756
C30   C     C_1   0.535184 0.125031 0.871958 -0.196756
C31   C     C_1   0.535207 0.125028 0.628044 -0.196733
C32   C     C_1   0.464793 0.874972 0.371956 -0.196733
C33   C     C_3   0.176238 0.525782 0.489629 -0.282468
C34   C     C_3   0.823762 0.474218 0.510371 -0.282468
C35   C     C_3   0.823813 0.474144 0.989698 -0.282299
C36   C     C_3   0.176187 0.525856 0.010302 -0.282299
C37   C     C_3   0.676188 0.974144 0.010302 -0.282302
C38   C     C_3   0.323812 0.025855 0.989698 -0.282302
C39   C     C_3   0.323761 0.025780 0.510372 -0.282476
C40   C     C_3   0.676239 0.974219 0.489628 -0.282476
C41   C     C_3   0.986345 0.543164 0.458619 0.046839
C42   C     C_3   0.013655 0.456836 0.541381 0.046839
C43   C     C_3   0.013644 0.456833 0.958621 0.046804
C44   C     C_3   0.986356 0.543166 0.041379 0.046804
C45   C     C_3   0.486357 0.956833 0.041379 0.046805
C46   C     C_3   0.513643 0.043166 0.958621 0.046805
C47   C     C_3   0.513654 0.043164 0.541381 0.046841
C48   C     C_3   0.486345 0.956836 0.458619 0.046841
C49   C     C_1   0.974767 0.587701 0.410653 0.005534
C50   C     C_1   0.025233 0.412299 0.589347 0.005534
C51   C     C_1   0.025205 0.412296 0.910655 0.005544
C52   C     C_1   0.974795 0.587704 0.089345 0.005544
C53   C     C_1   0.474795 0.912296 0.089345 0.005545
C54   C     C_1   0.525204 0.087704 0.910655 0.005545
C55   C     C_1   0.525233 0.087700 0.589347 0.005533
C56   C     C_1   0.474767 0.912300 0.410653 0.005533
C57   C     C_R   0.739394 0.596008 0.537909 0.095213
C58   C     C_R   0.657308 0.586335 0.590884 -0.073475
C59   C     C_R   0.534507 0.632141 0.614100 -0.099950
C60   C     C_R   0.491117 0.687795 0.584488 -0.128098
C61   C     C_R   0.571316 0.697828 0.531736 -0.133073
C62   C     C_R   0.695243 0.652313 0.508528 -0.149924
H9    H     H_    0.689500 0.543429 0.614375 0.128863
H10   H     H_    0.472365 0.624359 0.655002 0.130069
H11   H     H_    0.395526 0.723137 0.602410 0.125765
H12   H     H_    0.538276 0.741100 0.508904 0.116546
H13   H     H_    0.756234 0.661963 0.468061 0.113679
C63   C     C_R   0.260606 0.403992 0.462091 0.095214
C64   C     C_R   0.342692 0.413665 0.409116 -0.073476
C65   C     C_R   0.465493 0.367859 0.385900 -0.099949
C66   C     C_R   0.508883 0.312205 0.415512 -0.128098
C67   C     C_R   0.428684 0.302172 0.468264 -0.133073
C68   C     C_R   0.304757 0.347687 0.491472 -0.149924
H14   H     H_    0.310500 0.456571 0.385625 0.128863
H15   H     H_    0.527635 0.375641 0.344998 0.130069
H16   H     H_    0.604474 0.276863 0.397590 0.125765
H17   H     H_    0.461724 0.258900 0.491096 0.116546
H18   H     H_    0.243766 0.338037 0.531939 0.113679
C69   C     C_R   0.261096 0.404100 0.037828 0.095080
C70   C     C_R   0.343208 0.413783 0.090795 -0.073707
C71   C     C_R   0.466198 0.368015 0.113981 -0.099642
C72   C     C_R   0.509771 0.312395 0.084343 -0.128055
C73   C     C_R   0.429567 0.302356 0.031595 -0.133123
C74   C     C_R   0.305440 0.347830 0.008419 -0.149921
H19   H     H_    0.310878 0.456664 0.114307 0.128900
H20   H     H_    0.528347 0.375802 0.154879 0.130130
H21   H     H_    0.605517 0.277084 0.102240 0.125634
H22   H     H_    0.462758 0.259111 0.008741 0.116512
H23   H     H_    0.244459 0.338176 0.967953 0.113729
C75   C     C_R   0.738904 0.595899 0.962172 0.095080
C76   C     C_R   0.656792 0.586217 0.909205 -0.073707
C77   C     C_R   0.533802 0.631985 0.886019 -0.099642
C78   C     C_R   0.490229 0.687605 0.915657 -0.128055
C79   C     C_R   0.570433 0.697644 0.968405 -0.133123
C80   C     C_R   0.694560 0.652170 0.991581 -0.149921
H24   H     H_    0.689122 0.543336 0.885693 0.128900
H25   H     H_    0.471653 0.624198 0.845121 0.130130
H26   H     H_    0.394482 0.722916 0.897760 0.125634
H27   H     H_    0.537242 0.740889 0.991259 0.116512
H28   H     H_    0.755541 0.661824 0.032047 0.113729
C81   C     C_R   0.238907 0.904099 0.962172 0.095082
C82   C     C_R   0.156791 0.913783 0.909205 -0.073704
C83   C     C_R   0.033802 0.868014 0.886020 -0.099646
C84   C     C_R   0.990235 0.812393 0.915657 -0.128056
C85   C     C_R   0.070443 0.802353 0.968404 -0.133125
C86   C     C_R   0.194570 0.847828 0.991580 -0.149921
H29   H     H_    0.189116 0.956664 0.885694 0.128899
H30   H     H_    0.971650 0.875802 0.845122 0.130131
H31   H     H_    0.894490 0.777081 0.897760 0.125634
H32   H     H_    0.037258 0.759108 0.991258 0.116512
H33   H     H_    0.255555 0.838173 0.032045 0.113727
C87   C     C_R   0.761092 0.095901 0.037828 0.095082
C88   C     C_R   0.843209 0.086217 0.090795 -0.073704
C89   C     C_R   0.966198 0.131986 0.113980 -0.099646
C90   C     C_R   0.009765 0.187607 0.084343 -0.128056
C91   C     C_R   0.929557 0.197647 0.031595 -0.133125
C92   C     C_R   0.805430 0.152172 0.008420 -0.149921
H34   H     H_    0.810884 0.043336 0.114306 0.128899
H35   H     H_    0.028350 0.124198 0.154878 0.130131
H36   H     H_    0.105510 0.222919 0.102240 0.125634
H37   H     H_    0.962742 0.240892 0.008742 0.116512
H38   H     H_    0.744445 0.161827 0.967955 0.113727
C93   C     C_R   0.760599 0.096009 0.462090 0.095219
C94   C     C_R   0.842680 0.086338 0.409115 -0.073470
C95   C     C_R   0.965479 0.132145 0.385899 -0.099959
C96   C     C_R   0.008871 0.187798 0.415511 -0.128102
C97   C     C_R   0.928677 0.197830 0.468264 -0.133074
C98   C     C_R   0.804753 0.152314 0.491472 -0.149924
H39   H     H_    0.810487 0.043433 0.385623 0.128864
H40   H     H_    0.027616 0.124364 0.344996 0.130067
H41   H     H_    0.104460 0.223141 0.397589 0.125765
H42   H     H_    0.961719 0.241102 0.491097 0.116545
H43   H     H_    0.743766 0.161963 0.531940 0.113679
C99   C     C_R   0.239400 0.903991 0.537910 0.095219
C100  C     C_R   0.157320 0.913661 0.590885 -0.073470
C101  C     C_R   0.034521 0.867855 0.614101 -0.099959
C102  C     C_R   0.991129 0.812202 0.584489 -0.128102
C103  C     C_R   0.071323 0.802170 0.531736 -0.133074
C104  C     C_R   0.195247 0.847686 0.508528 -0.149924
H44   H     H_    0.189513 0.956567 0.614377 0.128864
H45   H     H_    0.972383 0.875636 0.655004 0.130067
H46   H     H_    0.895540 0.776859 0.602411 0.125765
H47   H     H_    0.038281 0.758898 0.508903 0.116545
H48   H     H_    0.256234 0.838037 0.468060 0.113679
O21   O     O_3   0.130964 0.557548 0.594024 -0.641471
H49   H     H_    0.134403 0.603818 0.585360 0.287443
O22   O     O_3   0.869036 0.442452 0.405976 -0.641471
H50   H     H_    0.865597 0.396182 0.414640 0.287443
O23   O     O_3   0.869646 0.442422 0.094085 -0.641503
H51   H     H_    0.866601 0.396141 0.085461 0.287393
O24   O     O_3   0.130354 0.557577 0.905915 -0.641503
H52   H     H_    0.133398 0.603859 0.914539 0.287393
O25   O     O_3   0.630357 0.942423 0.905916 -0.641502
H53   H     H_    0.633404 0.896141 0.914539 0.287393
O26   O     O_3   0.369643 0.057577 0.094084 -0.641502
H54   H     H_    0.366596 0.103859 0.085461 0.287393
O27   O     O_3   0.369028 0.057549 0.405977 -0.641471
H55   H     H_    0.365569 0.103817 0.414643 0.287447
O28   O     O_3   0.630972 0.942451 0.594023 -0.641471
H56   H     H_    0.634430 0.896183 0.585357 0.287447

loop_
_geom_bond_atom_site_label_1
_geom_bond_atom_site_label_2
_ccdc_geom_bond_type
O17   V3    S    
C7    C26   S    
C17   C57   S    
C85   H32   S    
C14   C38   S    
O18   V4    S    
C95   C96   A    
C13   C37   S    
O12   V1    S    
O19   V1    S    
C102  C103  A    
C37   C45   S    
C69   C70   A    
C10   C18   S    
C23   C47   S    
C68   H18   S    
C43   C51   S    
C10   C34   S    
C47   C55   S    
C88   C89   A    
O25   H53   S    
C9    C33   S    
C76   C77   A    
O23   H51   S    
O16   V3    S    
C30   C54   T    
O11   C3    A    
C63   C68   A    
C79   C80   A    
O8    V1    S    
C62   H13   S    
C94   C95   A    
C27   C51   T    
C89   C90   A    
C86   H33   S    
C26   C50   T    
C1    C32   S    
C67   H17   S    
C15   O27   S    
C2    C31   S    
C38   C46   S    
C103  C104  A    
C3    C30   S    
C14   O26   S    
C34   C42   S    
O1    V3    S    
C33   C41   S    
O3    C2    A    
O2    V4    S    
C75   C80   A    
C20   C44   S    
C80   H28   S    
C67   C68   A    
C22   C37   S    
C66   C67   A    
C61   C62   A    
C59   H10   S    
C88   H34   S    
C78   H26   S    
C13   O25   S    
C90   C91   A    
O11   V2    S    
C8    C25   S    
C18   C33   S    
C102  H46   S    
C93   C98   A    
C66   H16   S    
C11   C35   S    
C11   C19   S    
H7    C40   S    
O9    V1    S    
C11   O23   S    
C46   C54   S    
O15   C7    A    
C78   C79   A    
C21   C38   S    
C45   C53   S    
C81   C86   A    
O16   C8    A    
O7    V2    S    
C19   C43   S    
C44   C52   S    
C10   O22   S    
C83   H30   S    
C19   C69   S    
C82   H29   S    
C42   C50   S    
H5    C38   S    
C41   C49   S    
C70   C71   A    
C100  C101  A    
C60   H11   S    
C72   C73   A    
O5    V1    S    
C103  H47   S    
O17   V1    S    
C101  H45   S    
C11   C44   S    
C18   C42   S    
H1    C34   S    
C9    O21   S    
O28   H56   S    
C64   C65   A    
C83   C84   A    
C91   C92   A    
C5    C28   S    
C74   H23   S    
C6    C27   S    
C22   C46   S    
C19   C36   S    
C22   C87   S    
O19   V3    S    
O27   H55   S    
C39   C47   S    
C89   H35   S    
C96   C97   A    
C92   H38   S    
O24   H52   S    
C84   H31   S    
C12   C43   S    
C18   C63   S    
O10   V2    S    
C97   C98   A    
O20   V4    S    
H8    C39   S    
O12   C4    A    
O8    C5    A    
C16   C47   S    
O13   C5    A    
O3    V4    S    
C12   O24   S    
C98   H43   S    
C17   C34   S    
H4    C35   S    
C29   C53   T    
C96   H41   S    
O21   H49   S    
O4    C1    A    
O9    C1    A    
C101  C102  A    
O6    V2    S    
C94   H39   S    
O18   V2    S    
C99   C100  A    
C25   C49   T    
C12   C20   S    
C35   C43   S    
C91   H37   S    
C24   C39   S    
C13   C21   S    
C65   H15   S    
O5    C8    A    
C59   C60   A    
C15   C23   S    
C71   C72   A    
C104  H48   S    
C64   H14   S    
C16   C24   S    
H6    C37   S    
O1    C4    A    
C16   C40   S    
C87   C92   A    
C31   C55   T    
O2    C3    A    
O13   V3    S    
C72   H21   S    
O14   V4    S    
C87   C88   A    
O15   V4    S    
C57   C62   A    
C21   C45   S    
C12   C36   S    
C100  H44   S    
C14   C45   S    
O22   H50   S    
C36   C44   S    
O7    C6    A    
C85   C86   A    
C4    C29   S    
C82   C83   A    
C21   C81   S    
C70   H19   S    
C69   C74   A    
C9    C17   S    
C15   C48   S    
O14   C6    A    
O20   V2    S    
C90   H36   S    
C57   C58   A    
O26   H54   S    
C40   C48   S    
C28   C52   T    
C24   C48   S    
C58   C59   A    
C81   C82   A    
C16   O28   S    
C23   C93   S    
C79   H27   S    
O10   C2    A    
O6    C7    A    
C61   H12   S    
C20   C75   S    
C60   C61   A    
C77   H25   S    
H3    C36   S    
C65   C66   A    
H2    C33   S    
C23   C40   S    
C14   C22   S    
O4    V3    S    
C10   C41   S    
C17   C41   S    
C71   H20   S    
C9    C42   S    
C99   C104  A    
C24   C99   S    
C48   C56   S    
C73   H22   S    
C76   H24   S    
C93   C94   A    
C15   C39   S    
C97   H42   S    
C84   C85   A    
C20   C35   S    
C63   C64   A    
C75   C76   A    
C13   C46   S    
C95   H40   S    
C32   C56   T    
C58   H9    S    
C73   C74   A    
C77   C78   A    
