data_mof_unit_60361.cif
_audit_creation_date              2012-10-26T20:13:04-0400
_audit_creation_method            fapswitch 2.2
_symmetry_space_group_name_H-M    P1
_symmetry_Int_Tables_number       1
_space_group_crystal_system       triclinic
_cell_length_a                    21.439416
_cell_length_b                    21.335927
_cell_length_c                    13.852298
_cell_angle_alpha                 90.000593
_cell_angle_beta                  90.000594
_cell_angle_gamma                 90.000181
_cell_volume                      6336.45410658

loop_
_atom_site_label
_atom_site_type_symbol
_atom_type_description
_atom_site_fract_x
_atom_site_fract_y
_atom_site_fract_z
_atom_type_partial_charge
C1    C     C_R   0.085065 0.414902 0.499983 0.638944
C2    C     C_R   0.229511 0.676639 0.433847 -0.105805
C3    C     C_R   0.177181 0.729791 0.565145 -0.106146
C4    C     C_R   0.770490 0.323358 0.433842 -0.105804
C5    C     C_R   0.177195 0.270224 0.434827 -0.106150
C6    C     C_R   0.770502 0.676653 0.566179 -0.105807
C7    C     C_R   0.822805 0.729777 0.434832 -0.106150
C8    C     C_R   0.229498 0.323346 0.566181 -0.105809
C9    C     C_R   0.322818 0.770212 0.565147 -0.106146
C10   C     C_R   0.729509 0.176641 0.433844 -0.105805
C11   C     C_R   0.677183 0.229789 0.565148 -0.106145
C12   C     C_R   0.914935 0.585098 0.499983 0.638944
C13   C     C_R   0.270490 0.823358 0.433842 -0.105803
C14   C     C_R   0.677195 0.770224 0.434827 -0.106150
C15   C     C_R   0.270503 0.176655 0.566181 -0.105808
C16   C     C_R   0.322805 0.229776 0.434828 -0.106150
C17   C     C_R   0.729496 0.823345 0.566184 -0.105808
C18   C     C_R   0.870122 0.315184 0.565273 0.035022
C19   C     C_R   0.184756 0.629139 0.434696 0.025682
C20   C     C_R   0.129878 0.684818 0.565272 0.035016
C21   C     C_R   0.815245 0.370857 0.434689 0.025685
C22   C     C_R   0.129890 0.315195 0.434704 0.035030
C23   C     C_R   0.914935 0.414901 0.500017 0.638934
C24   C     C_R   0.815255 0.629152 0.565329 0.025687
C25   C     C_R   0.870111 0.684807 0.434707 0.035027
C26   C     C_R   0.184745 0.370847 0.565332 0.025686
C27   C     C_R   0.370122 0.815184 0.565273 0.035024
C28   C     C_R   0.684755 0.129141 0.434693 0.025683
C29   C     C_R   0.629880 0.184816 0.565276 0.035023
C30   C     C_R   0.315245 0.870858 0.434690 0.025684
C31   C     C_R   0.629890 0.815195 0.434702 0.035033
C32   C     C_R   0.315257 0.129154 0.565332 0.025688
C33   C     C_R   0.370110 0.184805 0.434704 0.035032
C34   C     C_R   0.085064 0.585098 0.500018 0.638941
C35   C     C_R   0.684743 0.870846 0.565334 0.025688
C36   C     C_R   0.866337 0.366528 0.500002 -0.014009
C37   C     C_R   0.133664 0.633471 0.500005 -0.014012
C38   C     C_R   0.133664 0.366528 0.499997 -0.014002
C39   C     C_R   0.866336 0.633472 0.499997 -0.014005
C40   C     C_R   0.366337 0.866528 0.500002 -0.014009
C41   C     C_R   0.633664 0.133471 0.500005 -0.014010
C42   C     C_R   0.633664 0.866528 0.499997 -0.014001
C43   C     C_R   0.366336 0.133472 0.499997 -0.014002
C44   C     C_R   0.014321 0.554504 0.107810 -0.117543
C45   C     C_R   0.585065 0.914902 0.499983 0.638938
C46   C     C_R   0.014309 0.445493 0.892190 -0.117545
C47   C     C_R   0.985678 0.445496 0.107808 -0.117541
C48   C     C_R   0.985691 0.554507 0.892191 -0.117548
C49   C     C_R   0.514323 0.054503 0.107810 -0.117541
C50   C     C_R   0.514308 0.945493 0.892190 -0.117545
C51   C     C_R   0.485677 0.945497 0.107808 -0.117541
C52   C     C_R   0.485692 0.054507 0.892191 -0.117545
C53   C     C_R   0.774028 0.273987 0.499217 -0.028667
C54   C     C_R   0.225971 0.726013 0.499217 -0.028669
C55   C     C_R   0.225972 0.273987 0.500782 -0.028663
C56   C     C_R   0.414935 0.085098 0.499983 0.638937
C57   C     C_R   0.774028 0.726013 0.500783 -0.028664
C58   C     C_R   0.274028 0.773987 0.499217 -0.028667
C59   C     C_R   0.725971 0.226013 0.499217 -0.028667
C60   C     C_R   0.725971 0.773987 0.500783 -0.028663
C61   C     C_R   0.274029 0.226013 0.500782 -0.028662
C62   C     C_R   0.013726 0.553564 0.209332 0.075738
C63   C     C_R   0.013714 0.446433 0.790668 0.075737
C64   C     C_R   0.986273 0.446436 0.209330 0.075739
C65   C     C_R   0.986286 0.553567 0.790669 0.075732
C66   C     C_R   0.513728 0.053564 0.209332 0.075742
C67   C     C_R   0.414935 0.914902 0.500017 0.638931
C68   C     C_R   0.513713 0.946432 0.790668 0.075737
C69   C     C_R   0.486272 0.946436 0.209330 0.075741
C70   C     C_R   0.486287 0.053568 0.790669 0.075737
C71   C     C_R   1.000000 0.500000 0.054648 0.020760
C72   C     C_R   1.000000 0.500000 0.945351 0.020755
C73   C     C_R   0.500000 0.000000 0.054648 0.020759
C74   C     C_R   0.500000 1.000000 0.945351 0.020754
C75   C     C_2   0.923759 0.304975 0.631435 0.590338
C76   C     C_2   0.195019 0.574949 0.369117 0.588213
C77   C     C_2   0.076240 0.695029 0.631432 0.590337
C78   C     C_R   0.585065 0.085098 0.500018 0.638931
C79   C     C_2   0.804985 0.425044 0.369104 0.588211
C80   C     C_2   0.076260 0.304992 0.368524 0.590352
C81   C     C_2   0.805003 0.574974 0.630932 0.588217
C82   C     C_2   0.923740 0.695010 0.368529 0.590354
C83   C     C_2   0.194997 0.425025 0.630939 0.588216
C84   C     C_2   0.423759 0.804975 0.631435 0.590337
C85   C     C_2   0.695016 0.074952 0.369111 0.588212
C86   C     C_2   0.576243 0.195025 0.631439 0.590339
C87   C     C_2   0.304984 0.925045 0.369106 0.588211
C88   C     C_2   0.576262 0.804993 0.368520 0.590353
C89   C     C_R   0.822817 0.270212 0.565147 -0.106146
C90   C     C_2   0.305005 0.074977 0.630938 0.588217
C91   C     C_2   0.423738 0.195007 0.368524 0.590352
C92   C     C_2   0.694995 0.925023 0.630942 0.588217
Cu1   Cu    Cu3+1 0.000000 0.500000 0.596430 1.083237
Cu2   Cu    Cu3+1 0.000000 0.500000 0.403570 1.083240
Cu3   Cu    Cu3+1 0.500000 1.000000 0.596430 1.083235
Cu4   Cu    Cu3+1 0.500000 1.000000 0.403570 1.083239
H1    H     H_    0.026837 0.597643 0.071661 0.118208
H2    H     H_    0.268686 0.674259 0.384435 0.172339
H3    H     H_    0.175137 0.769237 0.614455 0.167513
H4    H     H_    0.731315 0.325736 0.384427 0.172335
H5    H     H_    0.175160 0.230789 0.385495 0.167503
H6    H     H_    0.731335 0.674283 0.615609 0.172330
H7    H     H_    0.824841 0.769213 0.385503 0.167506
H8    H     H_    0.268663 0.325715 0.615615 0.172333
H9    H     H_    0.324861 0.730768 0.614461 0.167507
H10   H     H_    0.768684 0.174263 0.384429 0.172337
H11   H     H_    0.675140 0.269233 0.614462 0.167507
H12   H     H_    0.026815 0.402351 0.928340 0.118219
H13   H     H_    0.231315 0.825736 0.384428 0.172335
H14   H     H_    0.675161 0.730790 0.385493 0.167501
H15   H     H_    0.231338 0.174286 0.615614 0.172328
H16   H     H_    0.324839 0.269210 0.385496 0.167501
H17   H     H_    0.768661 0.825713 0.615619 0.172329
H18   H     H_    0.024591 0.595959 0.248506 0.141855
H19   H     H_    0.024569 0.404036 0.751494 0.141869
H20   H     H_    0.975408 0.404041 0.248502 0.141855
H21   H     H_    0.975431 0.595964 0.751496 0.141868
H22   H     H_    0.524594 0.095958 0.248506 0.141854
H23   H     H_    0.973162 0.402357 0.071657 0.118210
H24   H     H_    0.524567 0.904035 0.751493 0.141870
H25   H     H_    0.475405 0.904042 0.248502 0.141854
H26   H     H_    0.475433 0.095965 0.751495 0.141869
H27   H     H_    0.017048 0.306212 0.650955 0.329828
H28   H     H_    0.226716 0.544464 0.240246 0.352231
H29   H     H_    0.982951 0.693787 0.650952 0.329828
H30   H     H_    0.773295 0.455522 0.240225 0.352230
H31   H     H_    0.982973 0.306216 0.348986 0.329823
H32   H     H_    0.773342 0.544513 0.759836 0.352227
H33   H     H_    0.017028 0.693783 0.348993 0.329822
H34   H     H_    0.973184 0.597649 0.928342 0.118218
H35   H     H_    0.226661 0.455485 0.759844 0.352227
H36   H     H_    0.517048 0.806212 0.650953 0.329828
H37   H     H_    0.726708 0.044470 0.240235 0.352231
H38   H     H_    0.482955 0.193788 0.650960 0.329828
H39   H     H_    0.273294 0.955523 0.240228 0.352230
H40   H     H_    0.482975 0.806216 0.348982 0.329823
H41   H     H_    0.273348 0.044520 0.759847 0.352227
H42   H     H_    0.517026 0.193783 0.348989 0.329822
H43   H     H_    0.726652 0.955480 0.759853 0.352227
H44   H     H_    0.526840 0.097642 0.071661 0.118210
H45   H     H_    0.526813 0.902350 0.928340 0.118220
H46   H     H_    0.473159 0.902358 0.071657 0.118210
H47   H     H_    0.473187 0.097650 0.928342 0.118220
H48   H     H_    0.824860 0.230769 0.614462 0.167509
N1    N     N_R   0.000000 0.500000 0.258690 -0.234769
N2    N     N_R   0.000000 0.500000 0.741310 -0.234771
N3    N     N_R   0.500000 1.000000 0.258690 -0.234769
N4    N     N_R   0.500000 1.000000 0.741310 -0.234772
O1    O     O_R   0.064280 0.435730 0.581430 -0.495151
O2    O     O_R   0.435720 0.064270 0.418570 -0.464623
O3    O     O_R   0.435720 0.064270 0.581430 -0.495152
O4    O     O_R   0.564280 0.935730 0.418570 -0.464621
O5    O     O_R   0.435720 0.935730 0.418570 -0.495157
O6    O     O_R   0.564280 0.064270 0.581430 -0.464634
O7    O     O_R   0.564280 0.064270 0.418570 -0.495159
O8    O     O_R   0.435720 0.935730 0.581430 -0.464635
O9    O     O_2   0.914815 0.283847 0.712353 -0.507560
O10   O     O_R   0.984611 0.316835 0.600285 -0.661417
O11   O     O_2   0.182720 0.521675 0.395473 -0.476455
O12   O     O_R   0.935720 0.564270 0.418570 -0.464620
O13   O     O_R   0.221369 0.584812 0.278023 -0.693162
O14   O     O_2   0.085183 0.716168 0.712345 -0.507557
O15   O     O_R   0.015389 0.683161 0.600285 -0.661417
O16   O     O_2   0.817279 0.478320 0.395459 -0.476452
O17   O     O_R   0.778641 0.415176 0.278006 -0.693162
O18   O     O_2   0.085215 0.283882 0.287597 -0.507559
O19   O     O_R   0.015404 0.316835 0.399667 -0.661408
O20   O     O_2   0.817282 0.521694 0.604581 -0.476435
O21   O     O_R   0.778685 0.584855 0.722043 -0.693162
O22   O     O_2   0.914787 0.716125 0.287607 -0.507560
O23   O     O_R   0.935720 0.564270 0.581430 -0.495150
O24   O     O_R   0.984596 0.683162 0.399671 -0.661408
O25   O     O_2   0.182716 0.478305 0.604592 -0.476432
O26   O     O_R   0.221318 0.415144 0.722048 -0.693164
O27   O     O_2   0.414815 0.783848 0.712353 -0.507560
O28   O     O_R   0.484611 0.816834 0.600283 -0.661417
O29   O     O_2   0.682720 0.021677 0.395466 -0.476453
O30   O     O_R   0.721361 0.084817 0.278014 -0.693162
O31   O     O_2   0.585189 0.216153 0.712357 -0.507559
O32   O     O_R   0.515391 0.183166 0.600289 -0.661417
O33   O     O_2   0.317279 0.978320 0.395461 -0.476453
O34   O     O_R   0.064280 0.435730 0.418570 -0.464622
O35   O     O_R   0.278641 0.915177 0.278008 -0.693161
O36   O     O_2   0.585217 0.783888 0.287592 -0.507558
O37   O     O_R   0.515405 0.816833 0.399664 -0.661407
O38   O     O_2   0.317281 0.021697 0.604588 -0.476432
O39   O     O_R   0.278691 0.084861 0.722052 -0.693162
O40   O     O_2   0.414783 0.216113 0.287596 -0.507559
O41   O     O_R   0.484595 0.183166 0.399670 -0.661407
O42   O     O_2   0.682718 0.978303 0.604594 -0.476432
O43   O     O_R   0.721309 0.915140 0.722056 -0.693163
O44   O     O_R   0.935720 0.435730 0.418570 -0.495156
O45   O     O_R   0.064280 0.564270 0.581430 -0.464628
O46   O     O_R   0.064280 0.564270 0.418570 -0.495156
O47   O     O_R   0.935720 0.435730 0.581430 -0.464634
O48   O     O_R   0.564280 0.935730 0.581430 -0.495152

loop_
_geom_bond_atom_site_label_1
_geom_bond_atom_site_label_2
_ccdc_geom_bond_type
C77   O15   S    
C91   O40   D    
C82   O22   D    
C76   O11   D    
C18   C75   S    
C64   H20   S    
C31   C42   A    
C4    C53   A    
C34   C37   S    
C8    C26   A    
C73   C74   S    
H33   O24   S    
Cu1   O1    S    
Cu3   Cu4   S    
H39   O35   S    
C14   C31   A    
H30   O17   S    
C53   C59   S    
C17   H17   S    
C15   C32   A    
C21   C36   A    
H29   O15   S    
C91   O41   S    
C16   H16   S    
C26   C83   S    
C20   C77   S    
C17   C35   A    
C19   C76   S    
C9    C58   A    
H43   O43   S    
C33   C91   S    
C87   O35   S    
H40   O37   S    
C3    C54   A    
H37   O30   S    
C88   O36   D    
Cu4   O7    S    
C90   O39   S    
C9    H9    S    
Cu4   O4    S    
C28   C41   A    
C24   C39   A    
C44   C71   A    
Cu3   O8    S    
H36   O28   S    
C35   C42   A    
C13   H13   S    
C19   C37   A    
C51   C69   A    
C32   C43   A    
C32   C90   S    
C5    C22   A    
C29   C86   S    
C85   O30   S    
C40   C67   S    
C46   H12   S    
C1    O1    A    
C81   O21   S    
C48   C65   A    
C84   O27   D    
C79   O16   D    
C80   O19   S    
C46   C72   A    
C68   N4    A    
C50   H45   S    
C20   C37   A    
C63   H19   S    
C35   C92   S    
C75   O9    D    
Cu2   N1    S    
C47   H23   S    
Cu4   O2    S    
H32   O21   S    
C7    H7    S    
C6    C57   A    
C48   H34   S    
C76   O13   S    
Cu1   O47   S    
C48   C72   A    
C11   C59   A    
C8    C55   A    
C80   O18   D    
C23   O44   A    
C92   O42   D    
C12   O23   A    
C82   O24   S    
Cu3   O48   S    
C5    H5    S    
C52   H47   S    
C49   C66   A    
C33   C43   A    
C15   H15   S    
C13   C30   A    
Cu1   N2    S    
C64   N1    A    
C2    C54   A    
C47   C64   A    
C78   O6    A    
C57   C60   S    
C13   C58   A    
C90   O38   D    
C44   C62   A    
C62   N1    A    
C12   O12   A    
C67   O8    A    
C42   C45   S    
C49   H44   S    
C24   C81   S    
C16   C33   A    
C44   H1    S    
C70   H26   S    
Cu4   O5    S    
C69   H25   S    
C27   C40   A    
C6    C24   A    
C21   C79   S    
C86   O32   S    
C15   C61   A    
C30   C40   A    
C3    C20   A    
Cu1   Cu2   S    
C79   O17   S    
C56   O3    A    
C8    H8    S    
C47   C71   A    
C66   N3    A    
C1    C38   S    
C75   O10   S    
H31   O19   S    
C88   O37   S    
C83   O25   D    
C11   H11   S    
C25   C82   S    
C69   N3    A    
C49   C73   A    
C10   H10   S    
H42   O41   S    
Cu3   O3    S    
C16   C61   A    
C56   O2    A    
C34   O45   A    
C41   C78   S    
C9    C27   A    
H28   O13   S    
C54   C58   S    
C51   H46   S    
C10   C28   A    
C77   O14   D    
C14   H14   S    
Cu4   N3    S    
C27   C84   S    
Cu2   O12   S    
C31   C88   S    
C63   N2    A    
C29   C41   A    
C2    C19   A    
Cu2   O46   S    
C18   C89   A    
C5    C55   A    
Cu1   O45   S    
Cu3   N4    S    
C51   C73   A    
C87   O33   D    
C1    O34   A    
C92   O43   S    
C62   H18   S    
H27   O10   S    
C89   H48   S    
C14   C60   A    
H35   O26   S    
C52   C74   A    
C7    C25   A    
C4    H4    S    
C46   C63   A    
C67   O5    A    
C45   O4    A    
C26   C38   A    
Cu3   O6    S    
C12   C39   S    
C50   C74   A    
C10   C59   A    
C30   C87   S    
C22   C80   S    
C71   C72   S    
C25   C39   A    
C11   C29   A    
C53   C89   A    
C4    C21   A    
C34   O46   A    
C50   C68   A    
C45   O48   A    
C55   C61   S    
C86   O31   D    
C81   O20   D    
C6    H6    S    
C78   O7    A    
Cu2   O44   S    
C52   C70   A    
C17   C60   A    
C3    H3    S    
C43   C56   S    
C70   N4    A    
C2    H2    S    
C85   O29   D    
C23   C36   S    
C66   H22   S    
C83   O26   S    
C23   O47   A    
C28   C85   S    
C65   H21   S    
Cu2   O34   S    
H38   O32   S    
C65   N2    A    
C84   O28   S    
C18   C36   A    
C7    C57   A    
C68   H24   S    
H41   O39   S    
C22   C38   A    
Cu1   O23   S    
