data_mof_unit_52747.cif
_audit_creation_date              2013-03-05T15:46:22-0500
_audit_creation_method            fapswitch 2.2
_symmetry_space_group_name_H-M    P1
_symmetry_Int_Tables_number       1
_space_group_crystal_system       triclinic
_cell_length_a                    11.520814
_cell_length_b                    11.517508
_cell_length_c                    19.294739
_cell_angle_alpha                 91.072794
_cell_angle_beta                  89.948271
_cell_angle_gamma                 57.66742
_cell_volume                      2162.73470031

loop_
_atom_site_label
_atom_site_type_symbol
_atom_site_description
_atom_site_fract_x
_atom_site_fract_y
_atom_site_fract_z
_atom_type_partial_charge
O1    O     O_R   0.748800 0.497470 0.428000 -0.539351
O2    O     O_R   0.476420 0.724060 0.429470 -0.510388
C1    C     C_R   0.361600 0.762056 0.396052 0.550171
O3    O     O_R   0.264580 0.744340 0.416750 -0.573273
O4    O     O_R   0.309380 0.472470 0.418200 -0.560037
C2    C     C_R   0.385296 0.352864 0.389545 0.552856
O5    O     O_R   0.501710 0.260430 0.414300 -0.487697
O6    O     O_R   0.728090 0.305600 0.428960 -0.412662
C3    C     C_R   0.761180 0.388556 0.400133 0.563642
O7    O     O_R   0.738760 0.495930 0.588610 -0.529079
O8    O     O_R   0.467110 0.722640 0.578360 -0.557702
C4    C     C_R   0.362394 0.730357 0.610998 0.567856
O9    O     O_R   0.254530 0.742800 0.577360 -0.469442
O10   O     O_R   0.300070 0.471040 0.567100 -0.476934
C5    C     C_R   0.372999 0.352602 0.596437 0.553204
O11   O     O_R   0.491670 0.258900 0.574910 -0.535018
O12   O     O_R   0.718780 0.304180 0.577850 -0.496483
C6    C     C_R   0.751009 0.383378 0.612135 0.542403
Cr1   Cr    Cr6+3 0.601770 0.606860 0.505860 1.011591
Cr2   Cr    Cr6+3 0.291380 0.601660 0.495070 1.024896
Cr3   Cr    Cr6+3 0.606880 0.291510 0.499120 1.105038
O13   O     O_3   0.500010 0.500010 0.500020 -0.311857
C7    C     C_R   0.776507 0.836351 0.089053 -0.030808
C8    C     C_R   0.817585 0.910135 0.127243 0.009102
C9    C     C_R   0.715353 0.030598 0.166401 0.033407
C10   C     C_R   0.578037 0.071874 0.172134 0.049234
C11   C     C_R   0.331002 0.304627 0.173910 0.007065
C12   C     C_R   0.460694 0.221548 0.279751 -0.091733
C13   C     C_R   0.455271 0.203698 0.208598 -0.003514
C14   C     C_R   0.109639 0.637119 0.368856 0.005976
C15   C     C_R   0.007483 0.738593 0.415409 -0.027979
C16   C     C_R   0.552009 0.983416 0.140357 -0.052102
C17   C     C_R   0.641212 0.876971 0.093354 -0.058391
C18   C     C_R   0.216692 0.417512 0.212914 -0.020678
C19   C     C_R   0.224253 0.427569 0.286399 -0.054481
C20   C     C_R   0.875755 0.782871 0.397237 -0.134403
C21   C     C_R   0.855193 0.715791 0.341392 0.032983
C22   C     C_R   0.965408 0.583830 0.317930 -0.085865
C23   C     C_R   0.099807 0.540651 0.330310 -0.017815
C24   C     C_R   0.352065 0.331907 0.318188 -0.000409
H1    H     H_    0.202476 0.631029 0.354127 0.220597
H2    H     H_    0.797190 0.886697 0.414499 0.155475
C25   C     C_R   0.876547 0.233062 0.297974 0.056013
C26   C     C_R   0.918192 0.217422 0.227880 -0.104898
H3    H     H_    0.969727 0.120735 0.202466 0.083705
C27   C     C_R   0.883975 0.330251 0.186864 0.034961
C28   C     C_R   0.818335 0.459885 0.217252 -0.126156
C29   C     C_R   0.778670 0.476656 0.286015 -0.142958
H4    H     H_    0.737290 0.576164 0.309414 0.160779
C30   C     C_R   0.807961 0.364341 0.327467 0.050589
C31   C     C_R   0.449833 0.827205 0.296048 -0.141674
C32   C     C_R   0.446433 0.849582 0.224382 -0.169266
C33   C     C_R   0.337098 0.873093 0.182364 -0.024294
C34   C     C_R   0.237831 0.870234 0.215817 -0.078051
C35   C     C_R   0.241027 0.839785 0.282647 0.017791
C36   C     C_R   0.346315 0.817812 0.326315 0.011161
C37   C     C_R   0.455418 0.239832 0.707240 -0.156420
C38   C     C_R   0.441951 0.223392 0.776973 -0.006265
C39   C     C_R   0.312261 0.313180 0.811948 -0.009885
C40   C     C_R   0.197903 0.414074 0.771338 -0.026228
C41   C     C_R   0.215169 0.417253 0.699353 -0.069749
H5    H     H_    0.127665 0.484463 0.666656 0.220216
C42   C     C_R   0.343865 0.333753 0.667833 -0.003570
C43   C     C_R   0.798622 0.451588 0.725347 -0.111121
H6    H     H_    0.789565 0.540065 0.701729 0.235652
C44   C     C_R   0.818063 0.439369 0.795792 -0.107156
C45   C     C_R   0.840474 0.323278 0.830681 0.021525
C46   C     C_R   0.833790 0.221614 0.792119 -0.117372
C47   C     C_R   0.805042 0.239052 0.720592 -0.128774
H7    H     H_    0.794690 0.163153 0.692222 0.137744
C48   C     C_R   0.790593 0.353460 0.686140 0.009824
C49   C     C_R   0.242101 0.774459 0.726449 -0.018666
C50   C     C_R   0.224494 0.820248 0.793822 -0.186353
H8    H     H_    0.136022 0.835474 0.822006 0.136228
C51   C     C_R   0.316152 0.845011 0.827039 0.006020
C52   C     C_R   0.435826 0.827484 0.791870 -0.004122
C53   C     C_R   0.450588 0.793770 0.718956 -0.049837
C54   C     C_R   0.349444 0.770000 0.685844 -0.001765
O14   O     O_R   0.186690 0.923650 0.086970 -0.513485
O15   O     O_R   0.957250 0.194250 0.084630 -0.526838
C55   C     C_R   0.927402 0.310301 0.114176 0.550394
O16   O     O_R   0.934970 0.407490 0.085330 -0.464070
O17   O     O_R   0.203780 0.365190 0.067090 -0.424168
C56   C     C_R   0.315761 0.279443 0.099428 0.556337
O18   O     O_R   0.417600 0.174890 0.067840 -0.524747
O19   O     O_R   0.375320 0.946260 0.070860 -0.554208
C57   C     C_R   0.302606 0.911690 0.107725 0.527891
O20   O     O_R   0.160600 0.919630 0.926660 -0.511073
O21   O     O_R   0.933060 0.190520 0.936020 -0.490814
C58   C     C_R   0.892960 0.305305 0.902866 0.549520
O22   O     O_R   0.908880 0.403460 0.925020 -0.536734
O23   O     O_R   0.179600 0.361450 0.918490 -0.543043
C59   C     C_R   0.294332 0.284395 0.884467 0.552503
O24   O     O_R   0.391510 0.170860 0.907530 -0.432573
O25   O     O_R   0.351130 0.942530 0.922260 -0.442014
C60   C     C_R   0.274102 0.901611 0.897490 0.560755
Cr4   Cr    Cr6+3 0.062440 0.063090 0.008210 1.050469
Cr5   Cr    Cr6+3 0.062880 0.375170 0.998920 1.080113
Cr6   Cr    Cr6+3 0.374700 0.061720 0.992470 1.088255
O26   O     O_3   0.166667 0.166667 0.999870 -0.325628
H9    H     H_    0.554685 0.148296 0.305407 0.188382
C61   C     C_2   0.745846 0.804302 0.293662 0.175355
H10   H     H_    0.663608 0.906515 0.310238 0.101447
O27   O     O_2   0.749025 0.766074 0.234221 -0.586041
H11   H     H_    0.952695 0.535775 0.274734 0.134936
C62   C     C_2   0.893912 0.119652 0.340450 0.139087
H12   H     H_    0.874059 0.036732 0.339120 0.341062
O28   O     O_2   0.799760 0.100365 0.348128 -0.662918
H13   H     H_    0.812304 0.544068 0.189853 0.216944
H14   H     H_    0.535425 0.807197 0.327158 0.138279
H15   H     H_    0.533853 0.834827 0.203395 0.191728
H16   H     H_    0.154047 0.883245 0.187685 0.194050
H17   H     H_    0.605963 0.828169 0.059919 0.168397
C63   C     C_2   0.129149 0.827116 0.297698 0.129196
H18   H     H_    0.070241 0.873495 0.343288 0.161094
O29   O     O_2   0.102751 0.761696 0.257379 -0.591211
H19   H     H_    0.557599 0.176677 0.683380 0.142506
C64   C     C_2   0.570347 0.101031 0.804694 0.254543
H20   H     H_    0.627436 0.011430 0.770216 0.114727
O30   O     O_2   0.621207 0.102212 0.859997 -0.460082
C65   C     C_2   0.057779 0.518561 0.799544 0.185613
H21   H     H_    0.031542 0.532863 0.854404 0.168967
O31   O     O_2   0.965178 0.595731 0.760306 -0.522399
H22   H     H_    0.823261 0.520162 0.822068 0.190605
H23   H     H_    0.853033 0.128690 0.816451 0.160782
C66   C     C_2   0.138339 0.735735 0.706959 0.240978
H24   H     H_    0.058245 0.753997 0.744309 0.150940
O32   O     O_2   0.139041 0.678787 0.652629 -0.487169
C67   C     C_2   0.026931 0.822489 0.468431 0.247050
H25   H     H_    0.083407 0.773492 0.514068 0.203472
O33   O     O_2   0.980994 0.945334 0.462380 -0.512983
C68   C     C_2   0.548667 0.838573 0.828744 0.252113
H26   H     H_    0.632473 0.833160 0.803245 0.209183
O34   O     O_2   0.568924 0.844169 0.890674 -0.477138
C69   C     C_2   0.572937 0.783326 0.677652 0.171286
H27   H     H_    0.592686 0.776336 0.622846 0.218378
O35   O     O_2   0.673937 0.775791 0.701854 -0.578824
H28   H     H_    0.846403 0.752344 0.054182 0.176841
C70   C     C_2   0.960373 0.873585 0.117778 0.251263
H29   H     H_    0.978030 0.956978 0.128209 0.104820
O36   O     O_2   0.053310 0.757565 0.095146 -0.455341
C71   C     C_2   0.756390 0.103865 0.206777 0.231837
H30   H     H_    0.855890 0.038911 0.228902 0.086651
O37   O     O_2   0.680140 0.227499 0.217949 -0.473112
H31   H     H_    0.448305 0.018451 0.148873 0.135887
C72   C     C_2   0.091573 0.538118 0.181087 0.292348
H32   H     H_    0.040326 0.635928 0.205960 0.229618
O38   O     O_2   0.024149 0.532377 0.134047 -0.465014

loop_
_geom_bond_atom_site_label_1
_geom_bond_atom_site_label_2
_geom_bond_distance
_ccdc_geom_bond_type
O6    C3    1.332930 A    
C35   C36   1.388090 A    
O20   C60   1.331824 A    
C10   C16   1.344457 A    
O11   Cr3   2.142802 S    
O15   Cr4   1.969758 S    
C11   C13   1.449018 A    
C50   C51   1.386980 A    
C50   H8    1.081493 S    
C7    H28   1.085610 S    
C20   H2    1.089467 S    
O25   C60   1.295283 A    
C51   C52   1.448315 A    
O14   C57   1.330054 A    
C63   H18   1.055124 S    
C58   O22   1.303156 A    
O23   Cr5   2.000321 S    
C69   H27   1.073912 S    
O4    Cr2   2.010865 S    
C53   C54   1.475472 A    
C26   H3    1.051111 S    
O8    Cr1   1.963464 S    
C66   H24   1.095716 S    
O4    C2    1.284584 A    
C20   C21   1.406809 A    
C18   C19   1.426979 A    
C2    C24   1.479121 S    
C47   H7    1.082477 S    
C15   C20   1.365998 A    
C14   C15   1.430147 A    
O25   Cr6   2.030559 S    
C62   H12   1.094444 S    
C12   C24   1.411857 A    
C5    O11   1.268990 A    
C38   C64   1.503346 S    
C47   C48   1.415727 A    
C31   C36   1.383547 A    
C43   C48   1.392151 A    
C41   C42   1.394391 A    
C64   H20   1.089771 S    
C49   C54   1.440364 A    
C61   H10   1.085405 S    
C34   C35   1.338022 A    
C12   H9    1.081104 S    
C28   C29   1.378872 A    
C68   H26   1.054401 S    
C7    C17   1.368808 A    
O17   Cr5   2.046526 S    
C4    C54   1.489391 S    
C7    C8    1.377130 A    
C14   H1    1.071500 S    
C37   C42   1.394801 A    
O20   Cr4   2.094172 S    
C49   C50   1.366944 A    
C29   C30   1.413946 A    
C44   C45   1.404400 A    
C39   C40   1.448596 A    
C8    C70   1.473949 S    
Cr3   O13   2.029458 S    
O16   Cr5   2.115526 S    
C40   C65   1.498782 S    
C9    C10   1.390743 A    
C26   C27   1.400562 A    
C51   C60   1.461254 S    
C55   O16   1.303080 A    
C72   O38   1.218811 D    
C11   C18   1.456413 A    
C56   O18   1.287657 A    
O1    Cr1   2.086920 S    
C31   C32   1.408057 A    
O10   Cr2   2.030338 S    
Cr1   O13   2.107113 S    
O1    C3    1.290826 A    
C8    C9    1.447130 A    
O19   C57   1.316276 A    
C46   C47   1.412342 A    
C16   H31   1.048209 S    
C32   H15   1.010364 S    
C38   C39   1.441019 A    
C28   H13   1.082407 S    
C45   C58   1.492253 S    
O12   Cr3   2.046299 S    
C21   C61   1.462172 S    
C45   C46   1.412271 A    
C16   C17   1.410898 A    
O21   Cr4   2.014006 S    
C40   C41   1.406846 A    
C25   C62   1.476043 S    
C43   C44   1.375301 A    
C19   C23   1.558456 S    
C25   C26   1.410327 A    
C21   C22   1.426920 A    
O18   Cr6   2.162745 S    
C27   C55   1.460753 S    
C1    C36   1.471633 S    
O17   C56   1.300270 A    
O7    Cr1   2.143943 S    
C70   H29   1.098299 S    
O12   C6    1.321987 A    
C34   H16   1.047896 S    
C33   C57   1.505179 S    
C59   O24   1.272037 A    
C52   C53   1.437857 A    
C61   O27   1.214220 D    
O19   Cr6   2.030104 S    
C65   H21   1.085609 S    
C29   H4    1.067897 S    
Cr2   O13   2.037541 S    
C31   H14   1.071911 S    
Cr5   O26   2.031549 S    
C44   H22   1.080985 S    
C1    O3    1.302579 A    
C12   C13   1.390790 A    
Cr4   O26   2.104750 S    
C32   C33   1.400879 A    
C37   H19   1.094255 S    
C72   H32   1.056299 S    
C6    C48   1.489009 S    
C69   O35   1.214107 D    
C27   C28   1.379697 A    
C11   C56   1.489826 S    
C66   O32   1.223813 D    
O9    Cr2   2.123129 S    
O2    Cr1   2.018231 S    
C71   H30   1.073072 S    
O14   Cr4   2.138667 S    
C3    C30   1.468777 S    
O15   C55   1.307385 A    
O6    Cr3   2.013988 S    
C63   O29   1.220244 D    
O8    C4    1.319749 A    
C25   C30   1.386845 A    
C33   C34   1.328666 A    
C2    O5    1.285764 A    
C35   C63   1.403222 S    
C39   C59   1.483420 S    
C17   H17   1.062117 S    
Cr6   O26   2.029722 S    
C18   C72   1.508712 S    
C43   H6    1.077363 S    
C22   H11   1.045032 S    
C19   C24   1.431755 A    
C67   H25   1.069612 S    
C15   C67   1.491805 S    
O5    Cr3   2.172600 S    
C52   C68   1.545455 S    
C70   O36   1.252824 D    
C9    C71   1.394755 S    
C37   C38   1.382329 A    
C22   C23   1.372340 A    
C62   O28   1.227423 D    
O24   Cr6   2.154195 S    
O7    C6    1.316376 A    
O23   C59   1.299062 A    
C14   C23   1.379955 A    
O2    C1    1.322876 A    
C71   O37   1.223088 D    
O22   Cr5   2.165805 S    
C41   H5    1.094635 S    
C64   O30   1.221160 D    
C65   O31   1.230322 D    
O3    Cr2   2.151869 S    
C4    O9    1.341827 A    
C10   C13   1.569008 S    
C68   O34   1.224804 D    
C49   C66   1.527814 S    
C5    C42   1.464857 S    
O10   C5    1.300359 A    
C53   C69   1.565063 S    
O21   C58   1.322617 A    
C46   H23   1.086380 S    
C67   O33   1.225112 D    
