data_mof_unit_56609.cif
_audit_creation_date              2013-03-05T16:02:44-0500
_audit_creation_method            fapswitch 2.2
_symmetry_space_group_name_H-M    P1
_symmetry_Int_Tables_number       1
_space_group_crystal_system       triclinic
_cell_length_a                    23.629689
_cell_length_b                    11.814333
_cell_length_c                    10.433612
_cell_angle_alpha                 90.02113
_cell_angle_beta                  89.711358
_cell_angle_gamma                 89.850439
_cell_volume                      2912.69408318

loop_
_atom_site_label
_atom_site_type_symbol
_atom_site_description
_atom_site_fract_x
_atom_site_fract_y
_atom_site_fract_z
_atom_type_partial_charge
O1    O     O_R   0.500000 0.337200 0.605810 -0.569253
O2    O     O_R   0.500000 0.662800 0.394190 -0.563569
O3    O     O_R   0.500000 0.662800 0.605810 -0.572747
O4    O     O_R   0.500000 0.337200 0.394190 -0.564497
C1    C     C_R   0.499809 0.283137 0.499981 0.821100
C2    C     C_R   0.500256 0.716860 0.500019 0.813748
O5    O     O_R   0.417880 0.500000 0.605840 -0.569967
O6    O     O_R   0.582120 0.500000 0.394160 -0.576215
O7    O     O_R   0.582120 0.500000 0.605840 -0.582732
O8    O     O_R   0.417880 0.500000 0.394160 -0.575917
C3    C     C_R   0.390235 0.500011 0.500318 0.822268
C4    C     C_R   0.609330 0.500745 0.499547 0.826060
Cu1   Cu    Cu3+1 0.500000 0.500000 0.625300 0.968168
Cu2   Cu    Cu3+1 0.500000 0.500000 0.374700 0.972247
C5    C     C_R   0.880285 0.597016 0.463202 0.594310
C6    C     C_R   0.118055 0.398420 0.508155 0.587551
C7    C     C_R   0.879968 0.405123 0.531991 0.598908
C8    C     C_R   0.118326 0.598916 0.485632 0.591206
N1    N     N_R   0.851804 0.501466 0.498145 -0.484073
N2    N     N_R   0.146429 0.498567 0.498975 -0.476731
C9    C     C_R   0.939254 0.398966 0.518997 -0.151267
C10   C     C_R   0.059020 0.600528 0.471731 -0.158023
C11   C     C_R   0.939593 0.601883 0.474931 -0.149420
C12   C     C_R   0.058659 0.397603 0.521068 -0.157619
C13   C     C_R   0.969319 0.500103 0.496914 -0.108392
C14   C     C_R   0.029023 0.499429 0.496677 -0.105964
C15   C     C_R   0.969209 0.296111 0.530536 0.275897
C16   C     C_R   0.028692 0.700099 0.439778 0.312464
C17   C     C_R   0.969918 0.703906 0.461550 0.274496
C18   C     C_R   0.027937 0.298305 0.551738 0.312729
O9    O     O_2   0.851153 0.685493 0.415082 -0.463436
O10   O     O_2   0.147554 0.300763 0.502027 -0.457710
O11   O     O_2   0.850554 0.316975 0.579956 -0.463398
O12   O     O_2   0.147959 0.696175 0.489003 -0.464848
C19   C     C_R   0.237398 0.525327 0.386272 0.133264
C20   C     C_R   0.761572 0.438578 0.403878 0.133823
C21   C     C_R   0.236581 0.472813 0.613840 0.151391
C22   C     C_R   0.760952 0.565263 0.590712 0.151898
C23   C     C_R   0.296438 0.545322 0.393785 0.090486
C24   C     C_R   0.702140 0.425751 0.416500 0.083507
C25   C     C_R   0.296151 0.459155 0.609514 0.052626
C26   C     C_R   0.701674 0.577712 0.578667 0.076502
C27   C     C_R   0.326911 0.501348 0.501153 -0.171001
C28   C     C_R   0.671862 0.501290 0.498492 -0.149408
C29   C     C_R   0.207418 0.498159 0.499515 0.210769
C30   C     C_R   0.790891 0.501860 0.497514 0.202799
C31   C     C_1   0.500002 0.161737 0.499943 -0.183458
C32   C     C_1   0.500332 0.838247 0.500032 -0.180864
C33   C     C_1   0.500191 0.059724 0.499946 0.009495
C34   C     C_1   0.500321 0.940258 0.499990 0.011463
N3    N     N_1   0.500000 0.500000 0.186410 -0.146487
N4    N     N_1   0.500000 0.500000 0.813590 -0.142527
C35   C     C_1   0.499980 0.500008 0.071962 0.074198
C36   C     C_1   0.499987 0.500012 0.928037 0.074299
S1    S     S_3+6 0.938389 0.168107 0.475837 0.152899
O13   O     O_2   0.912228 0.105697 0.586570 -0.096134
O14   O     O_2   0.893388 0.191723 0.377988 -0.295142
O15   O     O_3   0.988549 0.087563 0.406339 -0.376975
H1    H     H_    0.002123 0.132457 0.332199 0.332705
S2    S     S_3+6 0.060294 0.808499 0.344877 0.101806
O16   O     O_2   0.089101 0.892862 0.430001 -0.154558
O17   O     O_2   0.103254 0.757107 0.255196 -0.299764
O18   O     O_3   0.011074 0.874967 0.256581 -0.456826
H2    H     H_    0.032274 0.932100 0.206299 0.376928
S3    S     S_3+6 0.939368 0.833434 0.513925 0.152596
O19   O     O_2   0.913456 0.894396 0.402259 -0.096676
O20   O     O_2   0.894239 0.812519 0.613173 -0.293852
O21   O     O_3   0.989708 0.914090 0.580536 -0.375174
H3    H     H_    0.003309 0.869975 0.655043 0.331978
S4    S     S_3+6 0.058888 0.187711 0.644252 0.101813
O22   O     O_2   0.087353 0.103639 0.557170 -0.151377
O23   O     O_2   0.101984 0.236316 0.734237 -0.301923
O24   O     O_3   0.009177 0.121701 0.732205 -0.457110
H4    H     H_    0.030180 0.065290 0.783771 0.375810
C37   C     C_3   0.205919 0.530905 0.258614 -0.339177
C38   C     C_3   0.228825 0.443573 0.163170 -0.846984
H5    H     H_    0.273651 0.460206 0.137876 0.239935
H6    H     H_    0.225462 0.357190 0.204505 0.281008
H7    H     H_    0.203543 0.446571 0.073850 0.252702
H8    H     H_    0.160295 0.511755 0.269478 0.224664
H9    H     H_    0.207179 0.617347 0.217433 0.229402
C39   C     C_3   0.793991 0.386979 0.290967 -0.322324
C40   C     C_3   0.776342 0.441094 0.164129 -0.845193
H10   H     H_    0.730611 0.429251 0.145179 0.247680
H11   H     H_    0.785593 0.533237 0.165941 0.273668
H12   H     H_    0.800685 0.401967 0.084224 0.262534
H13   H     H_    0.840216 0.400254 0.297812 0.227027
H14   H     H_    0.788792 0.293771 0.288183 0.235588
C41   C     C_3   0.203921 0.467848 0.740480 -0.354265
C42   C     C_3   0.199200 0.585672 0.799765 -0.797632
H15   H     H_    0.241803 0.622637 0.814728 0.257719
H16   H     H_    0.174534 0.642618 0.736444 0.284868
H17   H     H_    0.177112 0.580345 0.893719 0.247369
H18   H     H_    0.160689 0.434363 0.728203 0.240049
H19   H     H_    0.223071 0.409718 0.810930 0.209638
C43   C     C_3   0.791900 0.615295 0.705551 -0.326886
C44   C     C_3   0.779486 0.546984 0.826714 -0.838423
H20   H     H_    0.733476 0.545020 0.848291 0.249103
H21   H     H_    0.794969 0.458710 0.814738 0.278026
H22   H     H_    0.801651 0.585740 0.909355 0.259288
H23   H     H_    0.838401 0.614859 0.693013 0.230956
H24   H     H_    0.780513 0.705356 0.720666 0.230886
C45   C     C_3   0.325236 0.619225 0.291929 -0.372507
C46   C     C_3   0.347298 0.729762 0.349195 -0.754450
H25   H     H_    0.311683 0.778698 0.391883 0.265192
H26   H     H_    0.379354 0.714288 0.424241 0.234856
H27   H     H_    0.367175 0.781621 0.272564 0.236980
H28   H     H_    0.359038 0.572871 0.240113 0.221756
H29   H     H_    0.296273 0.645255 0.214732 0.204627
C47   C     C_3   0.671736 0.327917 0.349723 -0.394890
C48   C     C_3   0.653092 0.238107 0.446368 -0.780496
H30   H     H_    0.690630 0.202415 0.495877 0.273033
H31   H     H_    0.623768 0.273951 0.519104 0.236659
H32   H     H_    0.631019 0.168476 0.395660 0.239587
H33   H     H_    0.635185 0.357972 0.293287 0.225351
H34   H     H_    0.698353 0.283691 0.278331 0.214280
C49   C     C_3   0.325256 0.390229 0.714221 -0.333406
C50   C     C_3   0.342147 0.461941 0.830354 -0.765471
H35   H     H_    0.374607 0.415952 0.886771 0.232749
H36   H     H_    0.359744 0.544919 0.800638 0.266267
H37   H     H_    0.305436 0.477553 0.894369 0.230020
H38   H     H_    0.297930 0.319165 0.745845 0.194347
H39   H     H_    0.362805 0.345009 0.675468 0.203531
C51   C     C_3   0.672267 0.679466 0.640988 -0.419808
C52   C     C_3   0.685352 0.787738 0.566516 -0.777581
H40   H     H_    0.731579 0.803512 0.561358 0.284830
H41   H     H_    0.668603 0.781032 0.467491 0.251427
H42   H     H_    0.664750 0.861074 0.614505 0.243471
H43   H     H_    0.625757 0.672663 0.644150 0.224190
H44   H     H_    0.684901 0.689401 0.742465 0.215062

loop_
_geom_bond_atom_site_label_1
_geom_bond_atom_site_label_2
_geom_bond_distance
_ccdc_geom_bond_type
S1    O13   1.502146 D    
C43   H24   1.107852 S    
O24   H4    0.990532 S    
C48   H30   1.110980 S    
C38   H7    1.110032 S    
C49   H38   1.109759 S    
O3    C2    1.275442 A    
C46   H26   1.107093 S    
C44   H20   1.109442 S    
N1    C30   1.439385 S    
C26   C51   1.530153 S    
C31   C33   1.205212 T    
C35   C36   1.501650 S    
C5    N1    1.364544 A    
C1    C31   1.434253 S    
C19   C37   1.530192 S    
C2    C32   1.434107 S    
S2    O18   1.680660 S    
O1    C1    1.275437 A    
C11   C17   1.410472 A    
C16   C17   1.406728 A    
C38   H6    1.110959 S    
C22   C26   1.414273 A    
C15   S1    1.775492 S    
C39   H13   1.106549 S    
S2    O17   1.503813 D    
C41   H18   1.104488 S    
O7    Cu1   1.950046 S    
C50   H35   1.110249 S    
C18   S4    1.782376 S    
C47   C48   1.528216 S    
Cu2   N3    1.964545 S    
C20   C39   1.527821 S    
O21   H3    0.990549 S    
S3    O20   1.503642 D    
C52   H42   1.110578 S    
C20   C30   1.415045 A    
C45   H28   1.106048 S    
C37   H8    1.107419 S    
N2    C29   1.441186 S    
O3    Cu1   1.934168 S    
C6    N2    1.364616 A    
C49   H39   1.109016 S    
C32   C34   1.205188 T    
C9    C15   1.410173 A    
C6    C12   1.409339 A    
C10   C16   1.416639 A    
Cu1   Cu2   2.614663 S    
C15   C18   1.406653 A    
C21   C25   1.416916 A    
C25   C27   1.431460 A    
O2    C2    1.275439 A    
C26   C28   1.421221 A    
C46   H25   1.111021 S    
C44   H21   1.111108 S    
N4    C36   1.194097 T    
O5    C3    1.283000 A    
C12   C18   1.417051 A    
C16   S2    1.782321 S    
C20   C24   1.418384 A    
C38   H5    1.108387 S    
C48   H31   1.108292 S    
O8    Cu2   1.950048 S    
C37   H9    1.108515 S    
C24   C47   1.531769 S    
C13   C14   1.410781 A    
C39   C40   1.529312 S    
C7    C9    1.408471 A    
S2    O16   1.501506 D    
N3    C35   1.194111 T    
C50   H37   1.107184 S    
C41   H19   1.103986 S    
C19   C23   1.418098 A    
C37   C38   1.529735 S    
Cu1   N4    1.964546 S    
C42   H16   1.109500 S    
C40   H10   1.108722 S    
O5    Cu1   1.952083 S    
O6    C4    1.276586 A    
S3    O21   1.679220 S    
C43   C44   1.527661 S    
S4    O24   1.680643 S    
C51   H44   1.107781 S    
C7    O11   1.348597 S    
C3    C27   1.496364 S    
C8    O12   1.347696 S    
S4    O22   1.501395 D    
C17   S3    1.775150 S    
C40   H11   1.111076 S    
S3    O19   1.502173 D    
S1    O14   1.503484 D    
C52   H40   1.109637 S    
O1    Cu1   1.934019 S    
C21   C29   1.412380 A    
C19   C29   1.412077 A    
C47   H34   1.103044 S    
C44   H22   1.110377 S    
C42   H17   1.110122 S    
C9    C13   1.410140 A    
O6    Cu2   1.952081 S    
C8    C10   1.409663 A    
C12   C14   1.414220 A    
O4    C1    1.275459 A    
C23   C27   1.431766 A    
C5    O9    1.348593 S    
C6    O10   1.347745 S    
C21   C41   1.528047 S    
C45   H29   1.102879 S    
O15   H1    0.990588 S    
C4    C28   1.477633 S    
C49   C50   1.533356 S    
C42   H15   1.110113 S    
C39   H14   1.108720 S    
C5    C11   1.408696 A    
C7    N1    1.364500 A    
C51   H43   1.102492 S    
C48   H32   1.110572 S    
C8    N2    1.364855 A    
C11   C13   1.410435 A    
O4    Cu2   1.934168 S    
O2    Cu2   1.934019 S    
O7    C4    1.279168 A    
C50   H36   1.109564 S    
C22   C30   1.413114 A    
O8    C3    1.283056 A    
O18   H2    0.990537 S    
C24   C28   1.424826 A    
C40   H12   1.110460 S    
C33   C34   1.411414 S    
C10   C14   1.414070 A    
S1    O15   1.679609 S    
C22   C43   1.526561 S    
C45   C46   1.529808 S    
C52   H41   1.111132 S    
C23   C45   1.533382 S    
S4    O23   1.503506 D    
C25   C49   1.528031 S    
C41   C42   1.526635 S    
C43   H23   1.105927 S    
C47   H33   1.105642 S    
C46   H27   1.110548 S    
C51   C52   1.528394 S    
