data_mof_unit_35911.cif
_audit_creation_date              2012-12-11T16:47:47-0500
_audit_creation_method            fapswitch 2.2
_symmetry_space_group_name_H-M    P1
_symmetry_Int_Tables_number       1
_space_group_crystal_system       monoclinic
_cell_length_a                    26.193104
_cell_length_b                    7.167663
_cell_length_c                    23.857402
_cell_angle_alpha                 90.0
_cell_angle_beta                  101.642592
_cell_angle_gamma                 90.0
_cell_volume                      4386.91381556

loop_
_atom_site_label
_atom_site_type_symbol
_atom_type_description
_atom_site_fract_x
_atom_site_fract_y
_atom_site_fract_z
_atom_type_partial_charge
O1    O     O_R   0.797620 0.601060 0.203310 -0.538089
O2    O     O_R   0.202380 0.398940 0.796690 -0.537906
O3    O     O_R   0.702380 0.101060 0.296690 -0.538090
O4    O     O_R   0.297620 0.898940 0.703310 -0.537906
O5    O     O_R   0.692070 0.267810 0.186600 -0.530573
O6    O     O_R   0.307930 0.732190 0.813400 -0.530199
O7    O     O_R   0.807930 0.767810 0.313400 -0.530573
O8    O     O_R   0.192070 0.232190 0.686600 -0.530199
C1    C     C_R   0.673807 0.439767 0.171372 0.705227
C2    C     C_R   0.326159 0.560219 0.828675 0.704827
C3    C     C_R   0.826193 0.939767 0.328628 0.705228
C4    C     C_R   0.173841 0.060219 0.671325 0.704828
O9    O     O_R   0.796590 0.271120 0.196480 -0.539474
O10   O     O_R   0.203410 0.728880 0.803520 -0.539794
O11   O     O_R   0.703410 0.771120 0.303520 -0.539474
O12   O     O_R   0.296590 0.228880 0.696480 -0.539794
O13   O     O_R   0.807640 0.104280 0.306650 -0.532524
O14   O     O_R   0.192360 0.895720 0.693350 -0.532420
O15   O     O_R   0.692360 0.604280 0.193350 -0.532524
O16   O     O_R   0.307640 0.395720 0.806650 -0.532420
C5    C     C_R   0.812352 0.439839 0.184494 0.681033
C6    C     C_R   0.187692 0.560151 0.815580 0.680470
C7    C     C_R   0.687648 0.939839 0.315505 0.681033
C8    C     C_R   0.312308 0.060151 0.684420 0.680471
O17   O     O_3   0.753500 0.435660 0.286130 -0.371545
O18   O     O_3   0.246500 0.564340 0.713870 -0.371579
O19   O     O_3   0.746500 0.935660 0.213870 -0.371546
O20   O     O_3   0.253500 0.064340 0.786130 -0.371579
V1    V     V_3+5 0.749350 0.159470 0.243300 1.417357
V2    V     V_3+5 0.250650 0.840530 0.756700 1.417902
V3    V     V_3+5 0.750650 0.659470 0.256700 1.417357
V4    V     V_3+5 0.249350 0.340530 0.743300 1.417902
C9    C     C_R   0.351386 0.895281 0.610236 -0.166353
C10   C     C_R   0.648700 0.103396 0.389968 -0.162594
C11   C     C_R   0.148614 0.395280 0.889764 -0.166353
C12   C     C_R   0.851300 0.603396 0.110032 -0.162595
H1    H     H_    0.324072 0.781582 0.609819 0.126281
H2    H     H_    0.676536 0.215804 0.391148 0.126973
H3    H     H_    0.175928 0.281581 0.890181 0.126280
H4    H     H_    0.823464 0.715804 0.108852 0.126973
C13   C     C_R   0.387232 0.886148 0.573992 -0.160273
C14   C     C_R   0.612538 0.112727 0.425821 -0.170848
C15   C     C_R   0.112768 0.386148 0.926007 -0.160274
C16   C     C_R   0.887462 0.612727 0.074179 -0.170847
H5    H     H_    0.386241 0.766200 0.546199 0.118307
H6    H     H_    0.613806 0.231421 0.454156 0.121375
H7    H     H_    0.113758 0.266200 0.953801 0.118307
H8    H     H_    0.886194 0.731421 0.045844 0.121375
C17   C     C_R   0.423564 0.030499 0.573229 0.128782
C18   C     C_R   0.575561 0.969949 0.425576 0.130432
C19   C     C_R   0.076436 0.530499 0.926771 0.128783
C20   C     C_R   0.924439 0.469949 0.074424 0.130433
C21   C     C_R   0.422814 0.184615 0.609669 -0.111350
C22   C     C_R   0.575871 0.817428 0.388446 -0.100369
C23   C     C_R   0.077186 0.684615 0.890331 -0.111350
C24   C     C_R   0.924129 0.317428 0.111554 -0.100369
H9    H     H_    0.451180 0.295496 0.611823 0.142476
H10   H     H_    0.546984 0.708010 0.385509 0.144354
H11   H     H_    0.048820 0.795496 0.888177 0.142476
H12   H     H_    0.953016 0.208010 0.114490 0.144354
C25   C     C_R   0.386070 0.195920 0.644839 -0.192332
C26   C     C_R   0.612951 0.805759 0.353705 -0.198281
C27   C     C_R   0.113929 0.695920 0.855161 -0.192332
C28   C     C_R   0.887049 0.305759 0.146295 -0.198281
H13   H     H_    0.386607 0.316322 0.672390 0.121069
H14   H     H_    0.612133 0.686564 0.325628 0.121277
H15   H     H_    0.113394 0.816323 0.827610 0.121069
H16   H     H_    0.887867 0.186563 0.174372 0.121277
C29   C     C_R   0.350168 0.050814 0.645807 -0.040337
C30   C     C_R   0.649559 0.949176 0.353808 -0.039963
C31   C     C_R   0.149832 0.550814 0.854193 -0.040338
C32   C     C_R   0.850441 0.449176 0.146192 -0.039963
C33   C     C_R   0.475525 0.172968 0.504422 0.433061
C34   C     C_R   0.523964 0.827177 0.494499 0.432170
C35   C     C_R   0.024475 0.672968 0.995578 0.433061
C36   C     C_R   0.976035 0.327178 0.005501 0.432171
C37   C     C_R   0.512679 0.154822 0.469864 -0.295328
C38   C     C_R   0.486703 0.845380 0.529168 -0.309397
C39   C     C_R   0.987321 0.654822 0.030136 -0.295328
C40   C     C_R   0.013296 0.345380 0.970832 -0.309398
H17   H     H_    0.521988 0.276226 0.446842 0.171590
H18   H     H_    0.477271 0.723706 0.552015 0.172421
H19   H     H_    0.978012 0.776226 0.053158 0.171590
H20   H     H_    0.022728 0.223706 0.947985 0.172420
C41   C     C_R   0.536675 0.982733 0.463542 -0.075001
C42   C     C_R   0.462516 0.017326 0.535287 -0.083459
C43   C     C_R   0.963325 0.482733 0.036458 -0.075001
C44   C     C_R   0.037484 0.517326 0.964713 -0.083459
C45   C     C_3   0.966751 0.890005 0.517788 0.514439
C46   C     C_3   0.033829 0.109520 0.481591 0.512425
C47   C     C_3   0.533249 0.390005 0.982212 0.514439
C48   C     C_3   0.466171 0.609520 0.018409 0.512424
C49   C     C_3   0.986908 0.076264 0.546546 -0.294183
C50   C     C_3   0.013676 0.923469 0.452654 -0.273349
C51   C     C_3   0.513092 0.576264 0.953454 -0.294183
C52   C     C_3   0.486324 0.423469 0.047345 -0.273349
H21   H     H_    0.975658 0.133903 0.585350 0.132456
H22   H     H_    0.024557 0.862987 0.413874 0.124074
H23   H     H_    0.524342 0.633903 0.914650 0.132456
H24   H     H_    0.475443 0.362987 0.086126 0.124074
H25   H     H_    0.960815 0.309074 0.475210 0.143421
H26   H     H_    0.039898 0.690795 0.524150 0.142016
H27   H     H_    0.539184 0.809074 0.024790 0.143421
H28   H     H_    0.460102 0.190795 0.975850 0.142016
C53   C     C_1   0.128233 0.050019 0.625148 -0.177863
C54   C     C_1   0.871953 0.949879 0.374611 -0.179223
C55   C     C_1   0.371767 0.550019 0.874852 -0.177864
C56   C     C_1   0.628047 0.449879 0.125389 -0.179224
C57   C     C_3   0.022234 0.829995 0.512840 -0.261624
C58   C     C_3   0.978269 0.169489 0.486514 -0.281077
C59   C     C_3   0.477765 0.329995 0.987160 -0.261623
C60   C     C_3   0.521731 0.669489 0.013486 -0.281077
C61   C     C_3   0.042622 0.018087 0.540885 0.063281
C62   C     C_3   0.957905 0.981317 0.458446 0.062001
C63   C     C_3   0.457378 0.518087 0.959115 0.063281
C64   C     C_3   0.542095 0.481317 0.041554 0.062001
C65   C     C_1   0.089833 0.037558 0.586939 0.009499
C66   C     C_1   0.910515 0.962147 0.412617 0.006626
C67   C     C_1   0.410167 0.537558 0.913061 0.009499
C68   C     C_1   0.589485 0.462147 0.087383 0.006626
O21   O     O_3   0.453496 0.346222 0.508969 -0.579030
C69   C     C_3   0.405298 0.360380 0.469728 0.078818
H29   H     H_    0.377579 0.433294 0.491882 0.136158
H30   H     H_    0.387065 0.222995 0.455277 0.106901
C70   C     C_3   0.412015 0.476957 0.417931 -0.292698
H31   H     H_    0.429811 0.613582 0.432701 0.216634
H32   H     H_    0.438395 0.403328 0.394231 0.190525
C71   C     C_3   0.359853 0.511089 0.377446 -0.851969
H33   H     H_    0.341576 0.376356 0.361426 0.234478
H34   H     H_    0.366129 0.595159 0.340325 0.233416
H35   H     H_    0.333135 0.588762 0.399781 0.231647
O22   O     O_3   0.545197 0.653593 0.488000 -0.578994
C72   C     C_3   0.582031 0.604334 0.537765 0.081765
H36   H     H_    0.578876 0.451435 0.543917 0.151892
H37   H     H_    0.575111 0.671399 0.577814 0.105451
C73   C     C_3   0.637157 0.648922 0.529401 -0.317346
H38   H     H_    0.643399 0.584293 0.488953 0.205873
H39   H     H_    0.641732 0.802423 0.526217 0.197483
C74   C     C_3   0.678325 0.575685 0.579068 -0.841213
H40   H     H_    0.673215 0.640110 0.619926 0.231017
H41   H     H_    0.717750 0.611395 0.571868 0.238500
H42   H     H_    0.675373 0.421570 0.582236 0.229932
O23   O     O_3   0.046504 0.846221 0.991031 -0.579030
C75   C     C_3   0.094702 0.860380 0.030272 0.078819
H43   H     H_    0.122422 0.933291 0.008118 0.136158
H44   H     H_    0.112935 0.722994 0.044724 0.106901
C76   C     C_3   0.087985 0.976959 0.082069 -0.292698
H45   H     H_    0.070190 0.113585 0.067298 0.216633
H46   H     H_    0.061605 0.903333 0.105768 0.190526
C77   C     C_3   0.140147 0.011090 0.122554 -0.851970
H47   H     H_    0.158423 0.876357 0.138575 0.234479
H48   H     H_    0.133871 0.095162 0.159675 0.233416
H49   H     H_    0.166866 0.088759 0.100219 0.231648
O24   O     O_3   0.954803 0.153593 0.012000 -0.578994
C78   C     C_3   0.917969 0.104334 0.962235 0.081764
H50   H     H_    0.921124 0.951435 0.956083 0.151892
H51   H     H_    0.924889 0.171399 0.922185 0.105452
C79   C     C_3   0.862843 0.148922 0.970599 -0.317346
H52   H     H_    0.856601 0.084294 0.011047 0.205873
H53   H     H_    0.858268 0.302424 0.973782 0.197483
C80   C     C_3   0.821674 0.075686 0.920932 -0.841212
H54   H     H_    0.826785 0.140111 0.880073 0.231017
H55   H     H_    0.782250 0.111396 0.928131 0.238500
H56   H     H_    0.824627 0.921571 0.917764 0.229931
O25   O     O_3   0.929363 0.772180 0.534661 -0.570795
C81   C     C_3   0.943493 0.729160 0.593729 0.072565
H57   H     H_    0.909305 0.758869 0.613311 0.141087
H58   H     H_    0.976581 0.812706 0.618066 0.102897
C82   C     C_3   0.957076 0.522362 0.601531 -0.304559
H59   H     H_    0.923227 0.437166 0.580214 0.206300
H60   H     H_    0.990740 0.490582 0.581301 0.197772
C83   C     C_3   0.971167 0.470675 0.664901 -0.846555
H61   H     H_    0.005637 0.551838 0.686690 0.233285
H62   H     H_    0.980775 0.320000 0.669637 0.225933
H63   H     H_    0.937831 0.499480 0.685939 0.231298
O26   O     O_3   0.071415 0.227035 0.465062 -0.571419
C84   C     C_3   0.053499 0.295604 0.408884 0.069779
H64   H     H_    0.057386 0.450016 0.410281 0.139204
H65   H     H_    0.011711 0.264733 0.390362 0.105617
C85   C     C_3   0.087518 0.217158 0.369367 -0.293804
H66   H     H_    0.128826 0.256896 0.385968 0.204500
H67   H     H_    0.084865 0.062440 0.368675 0.188317
C86   C     C_3   0.070437 0.290886 0.308435 -0.846026
H68   H     H_    0.029562 0.249028 0.290504 0.230629
H69   H     H_    0.095994 0.232012 0.280955 0.232758
H70   H     H_    0.073456 0.445451 0.307943 0.231661
O27   O     O_3   0.570637 0.272180 0.965339 -0.570795
C87   C     C_3   0.556507 0.229160 0.906271 0.072565
H71   H     H_    0.590695 0.258869 0.886689 0.141087
H72   H     H_    0.523419 0.312706 0.881934 0.102897
C88   C     C_3   0.542924 0.022362 0.898469 -0.304559
H73   H     H_    0.576773 0.937167 0.919786 0.206300
H74   H     H_    0.509260 0.990583 0.918699 0.197773
C89   C     C_3   0.528833 0.970675 0.835099 -0.846554
H75   H     H_    0.494363 0.051838 0.813310 0.233285
H76   H     H_    0.519225 0.820000 0.830363 0.225933
H77   H     H_    0.562169 0.999480 0.814061 0.231298
O28   O     O_3   0.428585 0.727035 0.034938 -0.571419
C90   C     C_3   0.446501 0.795603 0.091116 0.069781
H78   H     H_    0.442613 0.950016 0.089719 0.139203
H79   H     H_    0.488289 0.764733 0.109638 0.105616
C91   C     C_3   0.412482 0.717155 0.130633 -0.293804
H80   H     H_    0.371174 0.756893 0.114032 0.204499
H81   H     H_    0.415135 0.562437 0.131325 0.188317
C92   C     C_3   0.429563 0.790883 0.191565 -0.846025
H82   H     H_    0.470438 0.749025 0.209496 0.230629
H83   H     H_    0.404006 0.732007 0.219045 0.232757
H84   H     H_    0.426543 0.945447 0.192057 0.231661

loop_
_geom_bond_atom_site_label_1
_geom_bond_atom_site_label_2
_ccdc_geom_bond_type
O17   V3    S    
C89   H76   S    
O1    C5    A    
O25   C81   S    
C34   O22   S    
O19   V1    S    
O13   V1    S    
C82   H59   S    
C56   C68   T    
O3    C7    A    
C76   H45   S    
C10   C14   A    
C48   C52   S    
C40   H20   S    
O15   V3    S    
C71   H33   S    
C39   C43   A    
C80   H54   S    
C50   C62   S    
C92   H82   S    
C85   H66   S    
C1    C56   S    
O7    C3    A    
C18   C22   A    
C91   H81   S    
C87   C88   S    
C28   H16   S    
O9    V1    S    
C76   H46   S    
C23   H11   S    
C51   C60   S    
C86   H69   S    
O16   V4    S    
C4    C53   S    
O4    C8    A    
C74   H42   S    
C51   H23   S    
C89   H77   S    
C78   H51   S    
C50   H22   S    
C12   C32   A    
O23   C75   S    
C45   C57   S    
O1    V3    S    
C58   C62   S    
C47   C64   S    
C26   C30   A    
O2    V4    S    
C14   H6    S    
C46   C61   S    
C47   C59   S    
O3    V1    S    
C79   C80   S    
C21   C25   A    
C1    O15   A    
C87   H72   S    
C2    O16   A    
O22   C72   S    
C84   H65   S    
C77   H49   S    
C23   C27   A    
O2    C6    A    
C72   C73   S    
C24   C28   A    
O28   C90   S    
O14   V2    S    
C11   C15   A    
C10   C30   A    
C18   C41   S    
C83   H63   S    
C57   C61   S    
C49   C58   S    
C38   C42   A    
O11   C7    A    
C89   H75   S    
C11   C31   A    
C90   H78   S    
O12   C8    A    
C54   C66   T    
C78   C79   S    
C81   H58   S    
C82   H60   S    
C7    C30   S    
C53   C65   T    
C2    C55   S    
C37   C41   A    
O10   V2    S    
C73   C74   S    
C48   O28   S    
C46   O26   S    
C55   C67   T    
C80   H55   S    
C85   H67   S    
C8    C29   S    
C46   C50   S    
O5    V1    S    
C92   H83   S    
C52   C59   S    
C27   H15   S    
O7    V3    S    
C91   H80   S    
C26   H14   S    
C5    C32   S    
C88   H73   S    
O8    V4    S    
C75   C76   S    
C12   H4    S    
C76   C77   S    
C75   H44   S    
C86   H70   S    
C51   C63   S    
C21   H9    S    
O18   V4    S    
C48   C60   S    
C22   C26   A    
H25   C58   S    
C91   C92   S    
C9    H1    S    
C64   C68   S    
C87   H71   S    
C79   H52   S    
C11   H3    S    
C86   H68   S    
C88   H74   S    
O5    C1    A    
C25   H13   S    
C90   C91   S    
C38   H18   S    
C37   H17   S    
O8    C4    A    
C84   C85   S    
C3    C54   S    
O21   C69   S    
O9    C5    A    
C49   C61   S    
C74   H41   S    
C70   H32   S    
C36   C43   A    
C45   O25   S    
O24   C78   S    
C62   C66   S    
C35   O23   S    
C14   C18   A    
C61   C65   S    
C73   H39   S    
O26   C84   S    
O6    V2    S    
C27   C31   A    
C33   O21   S    
C70   H31   S    
C82   C83   S    
C77   H48   S    
C12   C16   A    
C46   C58   S    
C69   H30   S    
C71   H35   S    
C49   H21   S    
C6    C31   S    
C60   C64   S    
C80   H56   S    
C83   H61   S    
C90   H79   S    
C22   H10   S    
C92   H84   S    
C25   C29   A    
C47   O27   S    
C45   C62   S    
C3    O13   A    
C33   C37   A    
C10   H2    S    
C17   C42   S    
C20   C43   S    
C52   C64   S    
C36   C40   A    
C75   H43   S    
C71   H34   S    
C19   C44   S    
O6    C2    A    
H28   C59   S    
C74   H40   S    
C85   C86   S    
O11   V3    S    
C9    C29   A    
O12   V4    S    
C13   C17   A    
C50   C57   S    
C63   C67   S    
C9    C13   A    
O10   C6    A    
C69   C70   S    
O20   V2    S    
C88   C89   S    
O27   C87   S    
C40   C44   A    
C16   H8    S    
C39   H19   S    
C79   H53   S    
C16   C20   A    
C72   H36   S    
C81   H57   S    
C15   H7    S    
C15   C19   A    
C70   C71   S    
C17   C21   A    
C52   H24   S    
C36   O24   S    
C83   H62   S    
C19   C23   A    
C28   C32   A    
C34   C41   A    
C45   C49   S    
C48   C63   S    
C33   C42   A    
H27   C60   S    
C47   C51   S    
C24   H12   S    
C35   C44   A    
C81   C82   S    
C84   H64   S    
C34   C38   A    
C4    O14   A    
C78   H50   S    
C72   H37   S    
C13   H5    S    
C77   H47   S    
C73   H38   S    
H26   C57   S    
C59   C63   S    
C69   H29   S    
C35   C39   A    
O4    V2    S    
C20   C24   A    
