data_mof_unit_10535.cif
_audit_creation_date              2013-03-05T16:01:05-0500
_audit_creation_method            fapswitch 2.2
_symmetry_space_group_name_H-M    P1
_symmetry_Int_Tables_number       1
_space_group_crystal_system       triclinic
_cell_length_a                    14.820122
_cell_length_b                    14.747547
_cell_length_c                    15.829058
_cell_angle_alpha                 75.286173
_cell_angle_beta                  102.477556
_cell_angle_gamma                 115.65418
_cell_volume                      2993.88570768

loop_
_atom_site_label
_atom_site_type_symbol
_atom_site_description
_atom_site_fract_x
_atom_site_fract_y
_atom_site_fract_z
_atom_type_partial_charge
O1    O     O_R   0.977900 0.338120 0.529810 -0.559190
O2    O     O_R   0.022100 0.661880 0.470190 -0.551600
O3    O     O_R   0.839850 0.379180 0.491620 -0.514565
O4    O     O_R   0.160150 0.620820 0.508380 -0.550587
C1    C     C_R   0.880411 0.312182 0.515118 0.869407
C2    C     C_R   0.119617 0.687727 0.488648 0.812210
O5    O     O_R   0.069010 0.479460 0.640020 -0.591471
O6    O     O_R   0.930990 0.520540 0.359980 -0.538781
O7    O     O_R   0.930960 0.520530 0.601820 -0.509250
O8    O     O_R   0.069040 0.479470 0.398180 -0.538798
C3    C     C_R   0.999323 0.499117 0.659930 0.805247
C4    C     C_R   0.000082 0.499928 0.340154 0.833509
Cu1   Cu    Cu3+1 0.081740 0.475690 0.522610 1.022936
Cu2   Cu    Cu3+1 0.918260 0.524310 0.477390 1.077074
C5    C     C_3   0.945840 0.401822 0.040001 -0.299125
C6    C     C_3   0.052619 0.595425 0.960217 -0.288011
C7    C     C_3   0.905932 0.466147 0.960926 0.601452
C8    C     C_3   0.092533 0.531106 0.039263 0.591323
H1    H     H_    0.901495 0.323448 0.073636 0.163026
H2    H     H_    0.096972 0.673797 0.926583 0.173301
H3    H     H_    0.920226 0.612076 0.009386 0.173166
H4    H     H_    0.078194 0.385167 0.990734 0.165860
C9    C     C_1   0.999266 0.499119 0.749651 -0.120496
C10   C     C_1   0.999691 0.499143 0.250489 -0.122042
C11   C     C_3   0.042232 0.435488 0.995790 -0.298284
C12   C     C_3   0.956228 0.561763 0.004402 -0.280898
C13   C     C_3   0.000499 0.499184 0.917223 0.035620
C14   C     C_3   0.997979 0.498087 0.082998 0.036396
C15   C     C_1   0.999771 0.499148 0.825364 0.035036
C16   C     C_1   0.998906 0.498531 0.174834 0.029207
C17   C     C_R   0.812347 0.203658 0.531507 -0.188544
C18   C     C_R   0.187029 0.796851 0.476577 -0.161659
C19   C     C_R   0.773841 0.033381 0.617899 0.373449
C20   C     C_R   0.228961 0.960792 0.376407 0.348386
C21   C     C_R   0.841746 0.134347 0.595820 -0.327160
C22   C     C_R   0.161316 0.860903 0.403006 -0.301019
C23   C     C_R   0.714777 0.171311 0.486535 0.465857
C24   C     C_R   0.282865 0.834883 0.526934 0.474757
C25   C     C_R   0.638984 0.076427 0.519758 -0.094099
C26   C     C_R   0.357964 0.926287 0.488775 -0.036888
C27   C     C_R   0.670440 0.003366 0.582100 -0.130995
C28   C     C_R   0.328191 0.995385 0.420846 -0.142271
C29   C     C_R   0.533917 0.052131 0.492141 0.010930
C30   C     C_R   0.462286 0.952527 0.519890 0.039835
C31   C     C_R   0.496425 0.879552 0.574753 -0.188048
C32   C     C_R   0.497081 0.125889 0.442389 -0.208557
C33   C     C_R   0.598169 0.903107 0.606241 0.469251
C34   C     C_R   0.396979 0.098380 0.404570 0.489091
H5    H     H_    0.088744 0.831974 0.363977 0.208155
H6    H     H_    0.918333 0.158253 0.628629 0.234907
H7    H     H_    0.444216 0.802277 0.594258 0.195109
H8    H     H_    0.543402 0.206694 0.433500 0.219244
N1    N     N_R   0.795440 0.560790 0.443380 -0.262119
N2    N     N_R   0.204560 0.439210 0.556620 -0.272665
C35   C     C_R   0.701044 0.639748 0.332594 -0.373278
C36   C     C_R   0.275495 0.321983 0.642935 -0.350558
C37   C     C_R   0.791390 0.626096 0.365699 0.640831
C38   C     C_R   0.198559 0.357735 0.622683 0.615557
C39   C     C_R   0.716765 0.514888 0.493989 0.421943
C40   C     C_R   0.288130 0.491400 0.511931 0.405494
C41   C     C_R   0.622038 0.522589 0.460520 -0.145273
C42   C     C_R   0.365164 0.453243 0.526438 -0.151607
C43   C     C_R   0.617003 0.588671 0.378995 -0.040105
C44   C     C_R   0.359241 0.369750 0.596149 -0.058270
C45   C     C_R   0.532752 0.468720 0.504878 0.023250
C46   C     C_R   0.448186 0.495534 0.475214 0.014882
C47   C     C_R   0.444354 0.554350 0.390534 -0.201175
C48   C     C_R   0.520292 0.381888 0.571507 -0.235652
C49   C     C_R   0.527571 0.602956 0.343798 0.511393
C50   C     C_R   0.436585 0.334008 0.617977 0.489185
H9    H     H_    0.694809 0.688470 0.269859 0.199922
H10   H     H_    0.268421 0.255601 0.694170 0.212166
H11   H     H_    0.374813 0.558123 0.356129 0.209982
H12   H     H_    0.569750 0.343116 0.583657 0.206792
O9    O     O_3   0.809050 0.432434 0.912807 -0.543680
C51   C     C_3   0.736041 0.406819 0.968588 -0.275436
H13   H     H_    0.745817 0.474360 0.994422 0.160292
H14   H     H_    0.737409 0.343052 0.023640 0.146465
H15   H     H_    0.660388 0.380425 0.929850 0.188279
O10   O     O_3   0.189488 0.564885 0.087244 -0.554077
C52   C     C_3   0.262331 0.590008 0.031428 -0.262561
H16   H     H_    0.260824 0.653419 0.976041 0.148891
H17   H     H_    0.252489 0.522146 0.006053 0.149054
H18   H     H_    0.338067 0.616684 0.069995 0.218153
N3    N     N_R   0.305564 0.592312 0.462384 0.117064
O11   O     O_R   0.384217 0.669935 0.486604 -0.460690
O12   O     O_R   0.252571 0.605982 0.387035 -0.358805
N4    N     N_R   0.735920 0.473773 0.584986 0.122099
O13   O     O_R   0.735039 0.519294 0.645081 -0.358071
O14   O     O_R   0.744081 0.386190 0.608625 -0.375241
O15   O     O_3   0.113036 0.307306 0.665339 -0.547888
C53   C     C_3   0.138974 0.311884 0.755854 -0.284002
H19   H     H_    0.069135 0.291204 0.784598 0.199286
H20   H     H_    0.191292 0.390286 0.767576 0.139514
H21   H     H_    0.171702 0.255511 0.790963 0.165267
O16   O     O_3   0.876331 0.672178 0.320978 -0.550223
C54   C     C_3   0.882741 0.763569 0.261655 -0.312223
H22   H     H_    0.959954 0.803765 0.242132 0.215829
H23   H     H_    0.869565 0.816155 0.292366 0.173081
H24   H     H_    0.830617 0.746641 0.200310 0.170068
O17   O     O_3   0.625867 0.830038 0.666248 -0.544512
C55   C     C_3   0.601631 0.744234 0.627941 -0.157544
H25   H     H_    0.616642 0.765815 0.557958 0.155891
H26   H     H_    0.522025 0.690091 0.633862 0.156234
H27   H     H_    0.649559 0.703023 0.664994 0.220635
O18   O     O_3   0.367530 0.174328 0.353282 -0.530026
C56   C     C_3   0.335472 0.213682 0.408120 -0.213220
H28   H     H_    0.397815 0.248408 0.458630 0.140539
H29   H     H_    0.269223 0.153616 0.440236 0.170238
H30   H     H_    0.312186 0.274945 0.367187 0.200694
O19   O     O_3   0.294218 0.816071 0.618907 -0.582050
C57   C     C_3   0.262420 0.712056 0.657892 -0.272384
H31   H     H_    0.290618 0.670164 0.628201 0.185905
H32   H     H_    0.179575 0.676520 0.657917 0.152421
H33   H     H_    0.295388 0.707005 0.727968 0.179156
O20   O     O_3   0.696558 0.232220 0.408270 -0.584764
C58   C     C_3   0.708922 0.196988 0.338435 -0.318477
H34   H     H_    0.653555 0.117102 0.335177 0.172518
H35   H     H_    0.787294 0.202663 0.343812 0.150180
H36   H     H_    0.695067 0.246219 0.275688 0.198302
N5    N     N_R   0.811625 0.964108 0.678780 0.179282
O21   O     O_R   0.849545 0.981509 0.758103 -0.324094
O22   O     O_R   0.830275 0.900061 0.649290 -0.328354
N6    N     N_R   0.198600 0.020947 0.298485 0.159954
O23   O     O_R   0.251614 0.058352 0.232662 -0.299884
O24   O     O_R   0.108847 0.020781 0.286304 -0.372676
O25   O     O_3   0.519006 0.659346 0.260202 -0.586539
C59   C     C_3   0.518946 0.752660 0.267604 -0.284173
H37   H     H_    0.587161 0.795652 0.309950 0.152980
H38   H     H_    0.449353 0.740250 0.292996 0.212906
H39   H     H_    0.520360 0.800932 0.201137 0.193156
O26   O     O_3   0.427026 0.246966 0.681074 -0.582779
C60   C     C_3   0.494896 0.275719 0.756636 -0.258065
H40   H     H_    0.482631 0.333121 0.781659 0.149400
H41   H     H_    0.574544 0.305426 0.743782 0.212496
H42   H     H_    0.481433 0.206989 0.809331 0.194105

loop_
_geom_bond_atom_site_label_1
_geom_bond_atom_site_label_2
_geom_bond_distance
_ccdc_geom_bond_type
C2    C18   1.469227 S    
H3    C12   1.110041 S    
O17   C55   1.414216 S    
C33   O17   1.387977 S    
C13   C15   1.451880 S    
O19   C57   1.405289 S    
C20   C28   1.415418 A    
C51   H15   1.109438 S    
O7    Cu2   1.926400 S    
C59   H37   1.114170 S    
C52   H18   1.109434 S    
C57   H32   1.106806 S    
C54   H22   1.108487 S    
N1    C39   1.379924 A    
C25   C27   1.431126 A    
C23   O20   1.383726 S    
N2    C40   1.379605 A    
N3    O11   1.300238 A    
O5    C3    1.302405 A    
O1    C1    1.307409 A    
C7    C12   1.542316 S    
C9    C15   1.196987 T    
C51   H14   1.112088 S    
C58   H35   1.113563 S    
C5    C11   1.555089 S    
O18   C56   1.410290 S    
C31   H7    1.074118 S    
C48   H12   1.071135 S    
C32   H8    1.076738 S    
O20   C58   1.409683 S    
C55   H27   1.109319 S    
C40   C42   1.431822 A    
C31   C33   1.397279 A    
O4    Cu1   1.922674 S    
C41   C43   1.415313 A    
C39   N4    1.432375 S    
C42   C44   1.414053 A    
C52   H17   1.112063 S    
C34   O18   1.382868 S    
C43   C49   1.405170 A    
O26   C60   1.410883 S    
C36   H10   1.082429 S    
H4    C11   1.110075 S    
C35   C43   1.400013 A    
C60   H42   1.109176 S    
O6    Cu2   1.925031 S    
C56   H28   1.110966 S    
C36   C44   1.400083 A    
C47   H11   1.074029 S    
C44   C50   1.403779 A    
C38   O15   1.383467 S    
O6    C4    1.302383 A    
C6    C13   1.545484 S    
C26   C28   1.420202 A    
C46   C47   1.404075 A    
Cu1   Cu2   2.718551 S    
C19   N5    1.431071 S    
C56   H29   1.113979 S    
O2    C2    1.310124 A    
C8    C11   1.542330 S    
C50   O26   1.384845 S    
C57   H31   1.110470 S    
C54   H23   1.113332 S    
C52   H16   1.112118 S    
N3    O12   1.300062 A    
C6    C12   1.554855 S    
C32   C34   1.393657 A    
C39   C41   1.431961 A    
C42   C46   1.438772 A    
C7    C13   1.528597 S    
C8    C14   1.528767 S    
C51   H13   1.112064 S    
O4    C2    1.306750 A    
C58   H36   1.109252 S    
O15   C53   1.412020 S    
N1    C37   1.363711 A    
C25   C29   1.430524 A    
C37   O16   1.395540 S    
C53   H21   1.110512 S    
C17   C23   1.398457 A    
C47   C49   1.393379 A    
C5    H1    1.110030 S    
O9    C51   1.408023 S    
O5    Cu1   1.925032 S    
C6    H2    1.110035 S    
C45   C48   1.406991 A    
O16   C54   1.411425 S    
C21   H6    1.083552 S    
C53   H20   1.114915 S    
C27   C33   1.413503 A    
C28   C34   1.409508 A    
C55   H26   1.110091 S    
O7    C3    1.303482 A    
N5    O21   1.300806 A    
O3    Cu2   1.922673 S    
O8    C4    1.303708 A    
C8    O10   1.410831 S    
N4    O14   1.301218 A    
C18   C24   1.419628 A    
C35   C37   1.408735 A    
C29   C30   1.414605 A    
C60   H40   1.114116 S    
C56   H30   1.109569 S    
C17   C21   1.391535 A    
O1    Cu1   1.937079 S    
O25   C59   1.410876 S    
C59   H39   1.109189 S    
C18   C22   1.398141 A    
C54   H24   1.110844 S    
C30   C31   1.405417 A    
N6    O24   1.301177 A    
Cu1   N2    2.042000 S    
N2    C38   1.361820 A    
C5    C7    1.542453 S    
C20   N6    1.435552 S    
O10   C52   1.408131 S    
O3    C1    1.306490 A    
O8    Cu1   1.926399 S    
C59   H38   1.112245 S    
C40   N3    1.434680 S    
C11   C13   1.545584 S    
C4    C10   1.421036 S    
C12   C14   1.545805 S    
C19   C27   1.424846 A    
C14   C16   1.452415 S    
C23   C25   1.420135 A    
C58   H34   1.113316 S    
C24   C26   1.413666 A    
C5    C14   1.545802 S    
C3    C9    1.420385 S    
C53   H19   1.109509 S    
C19   C21   1.393616 A    
C36   C38   1.399130 A    
C20   C22   1.393184 A    
C55   H25   1.115354 S    
O2    Cu2   1.937078 S    
C29   C32   1.412333 A    
C10   C16   1.197392 T    
N5    O22   1.300858 A    
C41   C45   1.443246 A    
C26   C30   1.425615 A    
Cu2   N1    2.042001 S    
N4    O13   1.301180 A    
C49   O25   1.385097 S    
C6    C8    1.542183 S    
C45   C46   1.424098 A    
C60   H41   1.112367 S    
C48   C50   1.396636 A    
C24   O19   1.397912 S    
C57   H33   1.109063 S    
C35   H9    1.079963 S    
C22   H5    1.081626 S    
C7    O9    1.410875 S    
N6    O23   1.301397 A    
C1    C17   1.466478 S    
