data_mof_unit_27802.cif
_audit_creation_date              2012-12-10T18:16:19-0500
_audit_creation_method            fapswitch 2.2
_symmetry_space_group_name_H-M    P1
_symmetry_Int_Tables_number       1
_space_group_crystal_system       triclinic
_cell_length_a                    12.618015
_cell_length_b                    12.997874
_cell_length_c                    27.494607
_cell_angle_alpha                 92.371353
_cell_angle_beta                  103.043755
_cell_angle_gamma                 79.754943
_cell_volume                      4322.92382175

loop_
_atom_site_label
_atom_site_type_symbol
_atom_type_description
_atom_site_fract_x
_atom_site_fract_y
_atom_site_fract_z
_atom_type_partial_charge
C1    C     C_R   0.436590 0.693311 0.494174 0.936980
C2    C     C_R   0.541876 0.613399 0.724126 0.476290
C3    C     C_R   0.517840 0.530700 0.749381 0.110666
C4    C     C_R   0.544672 0.546852 0.903934 -0.126134
C5    C     C_R   0.459584 0.614187 0.872143 -0.173721
C6    C     C_R   0.391025 0.693267 0.893381 0.474087
C7    C     C_R   0.631269 0.485259 0.885139 -0.056432
C8    C     C_R   0.498802 0.518654 0.646357 -0.190023
C9    C     C_R   0.498443 0.490411 0.352688 -0.072914
C10   C     C_R   0.441738 0.581471 0.020921 0.099954
C11   C     C_R   0.601108 0.437373 0.031805 -0.046612
C12   C     C_R   0.499926 0.504198 0.593627 0.863895
C13   C     C_R   0.517141 0.502064 0.050922 0.058797
C14   C     C_R   0.345636 0.627073 0.037071 -0.250100
C15   C     C_R   0.336345 0.613285 0.085527 -0.133645
C16   C     C_R   0.418882 0.546734 0.117929 0.015071
C17   C     C_R   0.506150 0.485875 0.099915 -0.115398
C18   C     C_R   0.582556 0.410008 0.130984 -0.163641
C19   C     C_R   0.573342 0.402879 0.180944 0.617567
C20   C     C_R   0.415963 0.539284 0.168037 0.519874
C21   C     C_R   0.412777 0.443934 0.268705 -0.175989
C22   C     C_R   0.412441 0.452531 0.319202 -0.211919
C23   C     C_R   0.563463 0.307441 0.505375 0.875828
C24   C     C_R   0.585251 0.518805 0.335055 -0.331062
C25   C     C_R   0.585370 0.511479 0.284097 0.509899
C26   C     C_R   0.498409 0.473841 0.251043 0.272076
C27   C     C_R   0.458452 0.605238 0.973710 -0.078414
C28   C     C_R   0.540380 0.538576 0.954337 0.045880
C29   C     C_R   0.618219 0.463430 0.984939 0.043645
C30   C     C_R   0.400420 0.695307 0.945330 0.090458
C31   C     C_R   0.724480 0.431021 0.919673 0.154040
C32   C     C_R   0.658050 0.344713 0.058916 0.086388
C33   C     C_R   0.660347 0.340273 0.110216 0.406327
C34   C     C_R   0.499180 0.497912 0.406032 0.936903
C35   C     C_R   0.716210 0.424043 0.969546 -0.195163
C36   C     C_R   0.695212 0.053452 0.459078 -0.156819
C37   C     C_R   0.606370 0.194686 0.504245 -0.199406
C38   C     C_R   0.298140 0.856369 0.507789 0.062019
C39   C     C_R   0.270479 0.966831 0.507593 0.527572
C40   C     C_R   0.348284 0.025563 0.500668 -0.393594
C41   C     C_R   0.449092 0.977120 0.490348 -0.014942
C42   C     C_R   0.459766 0.872437 0.474469 0.041153
C43   C     C_R   0.535282 0.033085 0.491042 0.060154
C44   C     C_R   0.615102 0.994501 0.462974 -0.013141
C45   C     C_R   0.448398 0.601258 0.820517 0.521649
C46   C     C_R   0.613339 0.898117 0.438770 -0.306426
C47   C     C_R   0.536264 0.836179 0.444149 0.491303
C48   C     C_R   0.544508 0.126768 0.518465 0.092220
C49   C     C_R   0.691508 0.153611 0.479394 0.385848
C50   C     C_R   0.393617 0.808046 0.489768 -0.237857
C51   C     C_R   0.096863 0.341131 0.426457 0.077676
C52   C     C_R   0.803457 0.621909 0.563671 0.592665
C53   C     C_R   0.914334 0.617825 0.587726 -0.395277
C54   C     C_R   0.996148 0.547338 0.571078 0.231808
C55   C     C_R   0.967981 0.500490 0.523064 0.004045
C56   C     C_R   0.620661 0.483315 0.832817 0.482970
C57   C     C_R   0.855997 0.495280 0.504447 0.031777
C58   C     C_R   0.044727 0.457294 0.493534 -0.125849
C59   C     C_R   0.014973 0.387428 0.453147 0.001040
C60   C     C_R   0.904245 0.370618 0.440333 0.452127
C61   C     C_R   0.827552 0.425293 0.465958 -0.288538
C62   C     C_R   0.145907 0.491806 0.499468 0.497452
C63   C     C_R   0.201132 0.369934 0.439702 -0.134723
C64   C     C_R   0.479257 0.444250 0.722940 0.179940
C65   C     C_R   0.473553 0.438003 0.671430 -0.255095
C66   C     C_R   0.524635 0.610808 0.671949 0.085111
H1    H     H_    0.652278 0.547612 0.360673 0.159738
H2    H     H_    0.787366 0.391911 0.997495 0.162461
H3    H     H_    0.672207 0.870838 0.415804 0.146813
H4    H     H_    0.759099 0.023035 0.439115 0.178858
H5    H     H_    0.329022 0.109967 0.502662 0.156368
H6    H     H_    0.266239 0.334764 0.421370 0.161179
H7    H     H_    0.935637 0.661824 0.621802 0.160185
H8    H     H_    0.746407 0.407857 0.456425 0.226654
H9    H     H_    0.345140 0.429079 0.331979 0.169628
H10   H     H_    0.345884 0.415006 0.243078 0.166427
H11   H     H_    0.264265 0.655026 0.097462 0.189130
H12   H     H_    0.276776 0.674318 0.012456 0.152226
H13   H     H_    0.450638 0.370270 0.650235 0.182243
N1    N     N_R   0.528385 0.537119 0.802315 -0.348975
N2    N     N_R   0.494811 0.470763 0.198657 -0.341189
N3    N     N_R   0.222180 0.444690 0.474320 -0.159894
N4    N     N_R   0.776980 0.554780 0.525420 -0.122609
O1    O     O_R   0.366730 0.627160 0.487740 -0.642404
O2    O     O_2   0.336695 0.601857 0.186441 -0.555844
O3    O     O_2   0.698848 0.426333 0.811855 -0.593649
O4    O     O_2   0.640790 0.328871 0.211767 -0.513511
O5    O     O_R   0.544830 0.662520 0.504140 -0.520084
O6    O     O_R   0.410970 0.482310 0.563040 -0.644572
O7    O     O_R   0.589070 0.517670 0.579450 -0.576090
O8    O     O_R   0.455170 0.337480 0.495860 -0.613538
O9    O     O_R   0.633270 0.372840 0.512260 -0.632819
O10   O     O_R   0.410930 0.482330 0.420550 -0.617366
O11   O     O_R   0.589030 0.517690 0.436960 -0.622214
O12   O     O_2   0.357602 0.649823 0.788447 -0.532077
Zn1   Zn    Zn3+2 0.381080 0.476390 0.489050 0.924999
Zn2   Zn    Zn3+2 0.618920 0.523610 0.510950 0.989498
C67   C     C_3   0.530251 0.708660 0.644661 -0.309142
C68   C     C_3   0.436711 0.797911 0.650123 -0.842529
H14   H     H_    0.449914 0.829557 0.688691 0.307766
H15   H     H_    0.356221 0.770175 0.640971 0.253773
H16   H     H_    0.433369 0.862398 0.624227 0.240002
H17   H     H_    0.611043 0.733835 0.659569 0.245752
H18   H     H_    0.522766 0.695536 0.604152 0.216560
C69   C     C_3   0.445450 0.361519 0.751195 -0.355096
C70   C     C_3   0.399308 0.273072 0.719702 -0.893218
H19   H     H_    0.327470 0.304483 0.689612 0.259853
H20   H     H_    0.464286 0.224803 0.703383 0.259819
H21   H     H_    0.371499 0.221805 0.743853 0.262634
H22   H     H_    0.517968 0.325573 0.779962 0.230322
H23   H     H_    0.381198 0.400815 0.770794 0.216413
C71   C     C_3   0.830892 0.381991 0.903753 -0.310371
C72   C     C_3   0.931057 0.342656 0.945597 -0.929581
H24   H     H_    0.951091 0.406909 0.972105 0.267897
H25   H     H_    0.915707 0.276191 0.965612 0.259872
H26   H     H_    0.003785 0.314298 0.929213 0.268694
H27   H     H_    0.814556 0.314311 0.878918 0.248338
H28   H     H_    0.855939 0.441444 0.882782 0.243283
C73   C     C_3   0.698708 0.242722 0.033481 -0.339537
C74   C     C_3   0.607770 0.210281 0.991916 -0.855486
H29   H     H_    0.532958 0.207401 0.006395 0.264548
H30   H     H_    0.585562 0.265212 0.959985 0.267717
H31   H     H_    0.637111 0.131318 0.977987 0.249556
H32   H     H_    0.773594 0.244366 0.019416 0.186151
H33   H     H_    0.724127 0.176942 0.060487 0.260393
O13   O     O_3   0.736213 0.264080 0.138578 -0.734234
H34   H     H_    0.781289 0.301154 0.165551 0.369012
O14   O     O_3   0.667802 0.542091 0.265462 -0.757302
H35   H     H_    0.722312 0.566412 0.293453 0.333005
O15   O     O_3   0.772829 0.207602 0.474917 -0.770097
H36   H     H_    0.791908 0.246390 0.506541 0.346893
O16   O     O_3   0.581360 0.698297 0.749162 -0.773062
H37   H     H_    0.602850 0.685162 0.785516 0.337373
C75   C     C_3   0.505449 0.148354 0.567239 -0.417427
C76   C     C_3   0.599804 0.168400 0.610450 -0.851783
H38   H     H_    0.672122 0.104533 0.612763 0.271371
H39   H     H_    0.624937 0.244345 0.605723 0.253263
H40   H     H_    0.572570 0.171016 0.646125 0.246275
H41   H     H_    0.437133 0.216474 0.563119 0.220932
H42   H     H_    0.475317 0.080091 0.578753 0.225783
C77   C     C_3   0.231029 0.788593 0.527687 -0.348888
C78   C     C_3   0.147353 0.839840 0.557848 -0.711948
H43   H     H_    0.184956 0.892131 0.587172 0.263817
H44   H     H_    0.072034 0.882830 0.532983 0.292866
H45   H     H_    0.120867 0.778028 0.576713 0.236567
H46   H     H_    0.186647 0.747440 0.495400 0.256314
H47   H     H_    0.291098 0.732337 0.553892 0.188265
O17   O     O_3   0.169321 0.016490 0.515277 -0.781228
H48   H     H_    0.165779 0.093350 0.515524 0.328077
O18   O     O_3   0.528202 0.745130 0.416823 -0.764498
H49   H     H_    0.586642 0.732098 0.397402 0.328976
O19   O     O_3   0.869671 0.304405 0.401702 -0.753729
H50   H     H_    0.788341 0.309248 0.394923 0.362337
C79   C     C_3   0.079729 0.263383 0.383780 -0.334128
C80   C     C_3   0.082254 0.153882 0.402644 -0.709957
H51   H     H_    0.025266 0.154542 0.428076 0.305410
H52   H     H_    0.058211 0.101984 0.370458 0.248780
H53   H     H_    0.167257 0.121305 0.422984 0.231589
H54   H     H_    0.003567 0.290840 0.355253 0.262710
H55   H     H_    0.146552 0.257053 0.362884 0.169765
O20   O     O_3   0.163222 0.579076 0.527485 -0.831072
H56   H     H_    0.241863 0.581913 0.533116 0.372855
O21   O     O_3   0.719949 0.684323 0.581238 -0.762105
H57   H     H_    0.752853 0.729149 0.608511 0.305934
O22   O     O_3   0.320817 0.773825 0.865340 -0.728595
H58   H     H_    0.360383 0.797036 0.841627 0.358287
C81   C     C_3   0.104678 0.512432 0.608483 -0.325828
C82   C     C_3   0.086647 0.464181 0.655140 -0.881698
H59   H     H_    0.036890 0.522130 0.675528 0.272667
H60   H     H_    0.044193 0.395944 0.644731 0.264248
H61   H     H_    0.167626 0.437592 0.680796 0.262147
H62   H     H_    0.160656 0.451461 0.592567 0.217181
H63   H     H_    0.147039 0.580523 0.619760 0.235096
C83   C     C_3   0.366661 0.800060 0.969805 -0.371343
C84   C     C_3   0.432579 0.882282 0.960038 -0.817181
H64   H     H_    0.522604 0.851737 0.971279 0.253127
H65   H     H_    0.411365 0.905472 0.920213 0.278585
H66   H     H_    0.413424 0.953546 0.982375 0.246205
H67   H     H_    0.276835 0.828754 0.956053 0.233666
H68   H     H_    0.384176 0.794473 0.010967 0.212448

loop_
_geom_bond_atom_site_label_1
_geom_bond_atom_site_label_2
_ccdc_geom_bond_type
C10   C27   A    
C58   C62   A    
C76   H40   S    
C71   H28   S    
C21   C26   A    
C51   C79   S    
C8    C66   A    
O13   H34   S    
C65   H13   S    
C40   H5    S    
C80   H52   S    
C41   C42   A    
O21   H57   S    
C34   O10   A    
C54   C81   S    
C69   H22   S    
O14   H35   S    
O20   H56   S    
C76   H38   S    
C84   H65   S    
C15   H11   S    
C73   H32   S    
C52   C53   A    
C1    O1    A    
C21   H10   S    
O22   H58   S    
C22   H9    S    
C48   C75   S    
C28   C29   A    
C25   O14   S    
C49   O15   S    
C19   O4    S    
C60   O19   S    
C5    C6    A    
C9    C22   A    
C62   O20   S    
C70   H19   S    
C15   C16   A    
C3    C64   A    
C18   C19   A    
O1    Zn1   S    
C83   C84   S    
C46   H3    S    
C24   H1    S    
O8    Zn1   S    
C54   C55   A    
C82   H61   S    
C68   H14   S    
C36   H4    S    
C16   C17   A    
C39   O17   S    
C2    O16   S    
C31   C71   S    
C57   N4    A    
C23   O8    A    
C43   C48   A    
O7    Zn2   S    
O5    Zn2   S    
C74   H31   S    
C8    C12   S    
C81   H63   S    
C72   H26   S    
C1    O5    A    
C82   H60   S    
C62   N3    A    
C6    O22   S    
C59   C60   A    
C20   N2    A    
C80   H53   S    
C41   C43   A    
C78   H45   S    
C7    C56   A    
C4    C7    A    
C3    N1    S    
C71   C72   S    
C4    C28   A    
C74   H30   S    
O9    Zn2   S    
C84   H66   S    
C80   H51   S    
N3    Zn1   S    
C63   N3    A    
C12   O6    A    
C64   C69   S    
C51   C63   A    
O17   H48   S    
C10   C14   A    
C81   C82   S    
O16   H37   S    
C44   C46   A    
O11   Zn2   S    
C58   C59   A    
C53   C54   A    
C5    C45   A    
C7    C31   A    
C60   C61   A    
C52   N4    A    
C43   C44   A    
C79   H55   S    
C37   C49   A    
C56   O3    S    
C84   H64   S    
C47   O18   S    
C16   C20   A    
C20   O2    S    
C17   C18   A    
C24   C25   A    
C37   C48   A    
C79   C80   S    
C81   H62   S    
C77   H46   S    
C42   C50   A    
C73   H33   S    
C40   C41   A    
C68   H15   S    
C11   C32   A    
C26   N2    S    
C55   C57   A    
C9    C34   S    
C38   C77   S    
C31   C35   A    
C36   C44   A    
C51   C59   A    
C32   C73   S    
C45   O12   S    
C83   H68   S    
C75   H41   S    
C74   H29   S    
C72   H24   S    
C1    C50   S    
C12   O7    A    
C76   H39   S    
C46   C47   A    
C82   H59   S    
C6    C30   A    
C14   C15   A    
C53   H7    S    
C34   O11   A    
C4    C5    A    
C2    C66   A    
C10   C13   A    
C73   C74   S    
C9    C24   A    
C57   C61   A    
C75   C76   S    
C38   C50   A    
C61   H8    S    
O10   Zn1   S    
C69   C70   S    
C29   C35   A    
C21   C22   A    
C56   N1    A    
C13   C17   A    
C71   H27   S    
C64   C65   A    
C66   C67   S    
O6    Zn1   S    
C2    C3    A    
C25   C26   A    
C79   H54   S    
C23   C37   S    
C77   C78   S    
C32   C33   A    
C75   H42   S    
C11   C13   A    
C38   C39   A    
C70   H20   S    
C35   H2    S    
C67   H18   S    
C33   O13   S    
O15   H36   S    
C45   N1    A    
C78   H44   S    
C42   C47   A    
C14   H12   S    
C69   H23   S    
C18   C33   A    
C77   H47   S    
C52   O21   S    
C39   C40   A    
C8    C65   A    
C68   H16   S    
C63   H6    S    
C11   C29   A    
C67   C68   S    
N4    Zn2   S    
C55   C58   A    
C27   C28   A    
C78   H43   S    
C23   O9    A    
O19   H50   S    
C72   H25   S    
C19   N2    A    
C83   H67   S    
C30   C83   S    
C36   C49   A    
C67   H17   S    
O18   H49   S    
C27   C30   A    
C70   H21   S    
