data_mof_unit_58389.cif
_audit_creation_date              2012-12-10T17:18:59-0500
_audit_creation_method            fapswitch 2.2
_symmetry_space_group_name_H-M    P1
_symmetry_Int_Tables_number       1
_space_group_crystal_system       triclinic
_cell_length_a                    10.328766
_cell_length_b                    10.757979
_cell_length_c                    13.356748
_cell_angle_alpha                 93.829138
_cell_angle_beta                  99.57216
_cell_angle_gamma                 96.242661
_cell_volume                      1449.35259643

loop_
_atom_site_label
_atom_site_type_symbol
_atom_type_description
_atom_site_fract_x
_atom_site_fract_y
_atom_site_fract_z
_atom_type_partial_charge
C1    C     C_R   0.051512 0.731913 0.490247 0.947491
C2    C     C_R   0.945582 0.267237 0.502834 0.966187
C3    C     C_R   0.468423 0.562475 0.124212 -0.187054
C4    C     C_R   0.501410 0.366666 0.891769 -0.186005
C5    C     C_R   0.341051 0.596553 0.100026 -0.027215
C6    C     C_R   0.629690 0.334910 0.914340 -0.033421
C7    C     C_2   0.075766 0.862722 0.473258 -0.332319
C8    C     C_2   0.910092 0.133056 0.493183 -0.351413
C9    C     C_2   0.972690 0.928455 0.461792 -0.173360
C10   C     C_2   0.994060 0.061519 0.459150 -0.087263
C11   C     C_2   0.432773 0.498013 0.520858 0.004374
C12   C     C_2   0.571636 0.471783 0.508250 0.014882
C13   C     C_R   0.091501 0.512782 0.687176 0.868908
C14   C     C_R   0.906939 0.482748 0.313298 0.897649
C15   C     C_R   0.136246 0.517623 0.798263 -0.146499
C16   C     C_R   0.855220 0.457761 0.203849 -0.145354
C17   C     C_R   0.138782 0.594154 0.973363 -0.155952
C18   C     C_R   0.832756 0.339416 0.040062 -0.199543
C19   C     C_R   0.072434 0.573975 0.872415 -0.019323
C20   C     C_R   0.902774 0.371399 0.138813 -0.039169
C21   C     C_R   0.255053 0.470158 0.829522 -0.204078
C22   C     C_R   0.741859 0.511240 0.167759 -0.187206
C23   C     C_R   0.323393 0.490781 0.929780 0.112680
C24   C     C_R   0.659165 0.464078 0.076248 0.111278
C25   C     C_R   0.267498 0.561367 0.001726 0.071003
C26   C     C_R   0.708973 0.381354 0.008388 0.055939
C27   C     C_R   0.450069 0.450197 0.957290 0.060964
C28   C     C_R   0.527282 0.494235 0.052937 0.040279
H1    H     H_    0.717357 0.586344 0.215888 0.154593
H2    H     H_    0.297376 0.424219 0.771335 0.183373
H3    H     H_    0.088445 0.636330 0.029282 0.188426
H4    H     H_    0.869634 0.270820 0.992758 0.196125
H5    H     H_    0.518776 0.590502 0.200898 0.200343
H6    H     H_    0.442539 0.321027 0.822315 0.176637
H7    H     H_    0.085662 0.101215 0.437204 0.202287
H8    H     H_    0.872428 0.886131 0.463063 0.202803
H9    H     H_    0.818821 0.092866 0.515200 0.174485
H10   H     H_    0.175764 0.905606 0.472090 0.186641
N1    N     N_2   0.322180 0.446120 0.460900 -0.193530
N2    N     N_2   0.677820 0.553880 0.539100 -0.192568
O1    O     O_R   0.935190 0.693030 0.507870 -0.658696
O2    O     O_R   0.064810 0.306970 0.492130 -0.623890
O3    O     O_R   0.142080 0.658430 0.482770 -0.528701
O4    O     O_R   0.857920 0.341570 0.517230 -0.590567
O5    O     O_R   0.969700 0.527180 0.651960 -0.578709
O6    O     O_R   0.030300 0.472820 0.348040 -0.603533
O7    O     O_R   0.176600 0.492580 0.626860 -0.620980
O8    O     O_R   0.823400 0.507420 0.373140 -0.572650
Zn1   Zn    Zn3+2 0.861850 0.523100 0.516760 1.018900
Zn2   Zn    Zn3+2 0.138150 0.476900 0.483240 1.022829
C29   C     C_2   0.293200 0.677375 0.177556 0.899586
O9    O     O_2   0.308567 0.652556 0.266450 -0.557177
O10   O     O_R   0.236646 0.785271 0.150122 -0.796728
H11   H     H_    0.209501 0.832819 0.209873 0.352148
C30   C     C_2   0.675983 0.252346 0.836955 0.953991
O11   O     O_2   0.601397 0.162841 0.791244 -0.598252
O12   O     O_R   0.802148 0.279768 0.812918 -0.767934
H12   H     H_    0.820433 0.218248 0.757585 0.349293
C31   C     C_2   0.016637 0.303297 0.172449 0.916473
O13   O     O_2   0.018300 0.242761 0.246809 -0.649131
O14   O     O_R   0.118093 0.302101 0.115074 -0.790378
H13   H     H_    0.189317 0.250101 0.144028 0.354805
C32   C     C_2   0.940455 0.617794 0.849387 0.920491
O15   O     O_2   0.845284 0.546736 0.804141 -0.559185
O16   O     O_R   0.923556 0.738890 0.885496 -0.793094
H14   H     H_    0.828804 0.757572 0.867033 0.350429
C33   C     C_2   0.587902 0.340532 0.478864 0.961843
O17   O     O_2   0.558586 0.258234 0.532828 -0.630311
O18   O     O_R   0.629554 0.309771 0.386945 -0.736738
H15   H     H_    0.633553 0.216429 0.374105 0.336104
C34   C     C_2   0.427217 0.576586 0.615050 0.963417
O19   O     O_2   0.486012 0.550583 0.696763 -0.664931
O20   O     O_R   0.365402 0.685613 0.610044 -0.727062
H16   H     H_    0.371134 0.732142 0.679505 0.335207
C35   C     C_2   0.665272 0.684857 0.547342 0.570366
H17   H     H_    0.735102 0.746905 0.603426 0.057124
O21   O     O_2   0.583695 0.729776 0.487693 -0.557286
C36   C     C_2   0.325198 0.377881 0.366487 0.577184
H18   H     H_    0.254940 0.295102 0.341838 0.071076
O22   O     O_2   0.400099 0.414926 0.310148 -0.561406

loop_
_geom_bond_atom_site_label_1
_geom_bond_atom_site_label_2
_ccdc_geom_bond_type
O4    Zn1   S    
C30   O11   D    
C32   O16   S    
C22   H1    S    
O20   H16   S    
C18   C26   A    
C6    C30   S    
C14   O6    A    
O10   H11   S    
C15   C19   A    
C11   C34   S    
C3    C28   A    
C24   C26   A    
C36   O22   D    
C3    H5    S    
N2    Zn1   S    
C1    O3    A    
C19   C32   S    
C9    H8    S    
C10   H7    S    
C14   C16   S    
C23   C27   A    
C9    C10   S    
C31   O13   D    
O14   H13   S    
O1    Zn1   S    
O7    Zn2   S    
C21   C23   A    
C12   C33   S    
C4    H6    S    
C31   O14   S    
C29   O9    D    
N1    C36   S    
C4    C6    A    
C2    O4    A    
C34   O20   S    
C36   H18   S    
C14   O8    A    
C33   O17   D    
C33   O18   S    
C12   N2    D    
C35   H17   S    
O5    Zn1   S    
C16   C20   A    
C20   C31   S    
C11   N1    D    
C35   O21   D    
O2    Zn2   S    
C5    C25   A    
C1    O1    A    
O8    Zn1   S    
C13   C15   S    
C17   H3    S    
C22   C24   A    
C18   H4    S    
C8    H9    S    
C4    C27   A    
C13   O7    A    
C7    C9    D    
C16   C22   A    
C1    C7    S    
C2    C8    S    
C24   C28   A    
C3    C5    A    
C11   C12   S    
O3    Zn2   S    
C21   H2    S    
O6    Zn2   S    
N2    C35   S    
C17   C25   A    
C30   O12   S    
C34   O19   D    
C13   O5    A    
O12   H12   S    
C6    C26   A    
C2    O2    A    
C17   C19   A    
C7    H10   S    
C18   C20   A    
C23   C25   A    
O18   H15   S    
C32   O15   D    
C15   C21   A    
N1    Zn2   S    
C8    C10   D    
O16   H14   S    
C27   C28   A    
C5    C29   S    
C29   O10   S    
