data_mof_unit_48710.cif
_audit_creation_date              2012-12-11T15:10:46-0500
_audit_creation_method            fapswitch 2.2
_symmetry_space_group_name_H-M    P1
_symmetry_Int_Tables_number       1
_space_group_crystal_system       triclinic
_cell_length_a                    21.116488
_cell_length_b                    7.231241
_cell_length_c                    18.426952
_cell_angle_alpha                 89.732898
_cell_angle_beta                  92.997561
_cell_angle_gamma                 89.691571
_cell_volume                      2809.84129969

loop_
_atom_site_label
_atom_site_type_symbol
_atom_type_description
_atom_site_fract_x
_atom_site_fract_y
_atom_site_fract_z
_atom_type_partial_charge
O1    O     O_R   0.448880 0.506250 0.415280 -0.536011
O2    O     O_R   0.551120 0.006250 0.584720 -0.532223
O3    O     O_R   0.434830 0.174000 0.557310 -0.498840
O4    O     O_R   0.565170 0.674000 0.442690 -0.506636
C1    C     C_R   0.418583 0.344279 0.581663 0.704944
C2    C     C_R   0.582389 0.844413 0.419503 0.678740
O5    O     O_R   0.441680 0.176440 0.414130 -0.526848
O6    O     O_R   0.558320 0.676440 0.585870 -0.513750
O7    O     O_R   0.558020 0.007570 0.440520 -0.528402
O8    O     O_R   0.441980 0.507570 0.559480 -0.538525
C3    C     C_R   0.426803 0.345854 0.389453 0.636906
C4    C     C_R   0.573641 0.844505 0.610208 0.666457
O9    O     O_3   0.538160 0.339670 0.508820 -0.353407
O10   O     O_3   0.461840 0.839670 0.491180 -0.364916
V1    V     V_3+5 0.492920 0.064260 0.498360 1.520936
V2    V     V_3+5 0.507080 0.564260 0.501640 1.519171
C5    C     C_R   0.877929 0.991879 0.690417 -0.079342
C6    C     C_R   0.114376 0.351712 0.307407 -0.085250
H1    H     H_    0.901367 0.026327 0.641393 0.232158
H2    H     H_    0.088080 0.317708 0.354386 0.230946
C7    C     C_R   0.887374 0.945950 0.820591 -0.186716
C8    C     C_R   0.110202 0.431818 0.180155 -0.182454
C9    C     C_R   0.580705 0.872298 0.744464 -0.101084
C10   C     C_R   0.416648 0.354827 0.254826 -0.093019
C11   C     C_R   0.614901 0.910429 0.810589 -0.027112
C12   C     C_R   0.380723 0.340971 0.188353 -0.023319
C13   C     C_R   0.680788 0.929398 0.811286 -0.063055
C14   C     C_R   0.314599 0.349145 0.188001 -0.048724
C15   C     C_R   0.715700 0.892511 0.750078 0.069267
C16   C     C_R   0.281774 0.377601 0.251421 0.078161
C17   C     C_R   0.681809 0.858017 0.682206 -0.001770
C18   C     C_R   0.316735 0.362922 0.319995 -0.052788
C19   C     C_R   0.783621 0.906454 0.753802 -0.027193
C20   C     C_R   0.213912 0.398521 0.247748 -0.029187
C21   C     C_R   0.814013 0.937063 0.688036 -0.060332
C22   C     C_R   0.180978 0.363353 0.311521 -0.086329
C23   C     C_R   0.781067 0.903812 0.620993 0.359934
C24   C     C_R   0.214546 0.341552 0.378791 0.398859
C25   C     C_R   0.717778 0.843240 0.619198 -0.123143
C26   C     C_R   0.281200 0.348474 0.383564 -0.120058
C27   C     C_R   0.822952 0.891731 0.819692 0.274215
C28   C     C_R   0.176864 0.452507 0.183307 0.270625
C29   C     C_R   0.913479 0.002975 0.755866 0.304984
C30   C     C_R   0.079663 0.378173 0.242326 0.304441
C31   C     C_R   0.613433 0.850942 0.679643 -0.108070
C32   C     C_R   0.385395 0.355476 0.321204 -0.120154
H3    H     H_    0.704475 0.981316 0.860208 0.209469
H4    H     H_    0.288565 0.318836 0.137586 0.201974
C33   C     C_1   0.864330 0.939192 0.131869 -0.098441
C34   C     C_1   0.135830 0.438733 0.868377 -0.104787
C35   C     C_1   0.821315 0.925098 0.175409 0.075682
C36   C     C_1   0.179002 0.424636 0.825027 0.074154
C37   C     C_1   0.770533 0.905820 0.227222 0.065406
C38   C     C_1   0.229989 0.405525 0.773455 0.066862
C39   C     C_1   0.727779 0.889025 0.270959 0.066991
C40   C     C_1   0.272915 0.388926 0.729914 0.066494
C41   C     C_1   0.677062 0.869739 0.322844 0.064227
C42   C     C_1   0.323810 0.369854 0.678233 0.074548
C43   C     C_1   0.634230 0.855638 0.366607 -0.169010
C44   C     C_1   0.366739 0.355802 0.634585 -0.114630
O11   O     O_R   0.058070 0.289240 0.940580 -0.519327
O12   O     O_R   0.941930 0.789240 0.059420 -0.519405
O13   O     O_R   0.058330 0.616740 0.085880 -0.518072
O14   O     O_R   0.941670 0.116740 0.914120 -0.528969
C45   C     C_R   0.071932 0.447576 0.111137 0.823637
C46   C     C_R   0.927801 0.949379 0.888760 0.828214
O15   O     O_R   0.065180 0.619040 0.942700 -0.522686
O16   O     O_R   0.934820 0.119040 0.057300 -0.519116
O17   O     O_R   0.948870 0.787780 0.915270 -0.517940
O18   O     O_R   0.051130 0.287780 0.084730 -0.532780
C47   C     C_R   0.083280 0.450259 0.920314 0.727887
C48   C     C_R   0.916740 0.950415 0.079748 0.732283
O19   O     O_3   0.961870 0.453310 0.991210 -0.364777
O20   O     O_3   0.038130 0.953310 0.008790 -0.373748
V3    V     V_3+5 0.007070 0.728770 0.001630 1.611612
V4    V     V_3+5 0.992930 0.228770 0.998370 1.598731
Cl1   Cl    Cl    0.993050 0.075117 0.753821 -0.590796
Cl2   Cl    Cl    0.996588 0.351363 0.241552 -0.597851
Cl3   Cl    Cl    0.820971 0.917123 0.538523 -0.578099
Cl4   Cl    Cl    0.172761 0.317489 0.459917 -0.529586
Cl5   Cl    Cl    0.797676 0.773766 0.897573 -0.646422
Cl6   Cl    Cl    0.209370 0.577201 0.111087 -0.641551
C49   C     C_2   0.510053 0.864144 0.740875 0.342698
H5    H     H_    0.485692 0.762660 0.706527 0.056430
O21   O     O_2   0.478514 0.976433 0.772892 -0.524310
C50   C     C_2   0.487268 0.365414 0.255876 0.347805
H6    H     H_    0.516198 0.297465 0.298600 0.053222
O22   O     O_2   0.513738 0.456964 0.210710 -0.515238
C51   C     C_2   0.582999 0.927087 0.880509 0.493877
H7    H     H_    0.535158 0.877172 0.885650 0.102410
O23   O     O_2   0.610352 0.993991 0.934143 -0.502070
C52   C     C_2   0.411135 0.305195 0.118637 0.492809
H8    H     H_    0.459713 0.256178 0.118305 0.096107
O24   O     O_2   0.381876 0.328027 0.060303 -0.495433
C53   C     C_2   0.693827 0.749377 0.552525 0.458099
H9    H     H_    0.695950 0.818291 0.500499 0.060144
O25   O     O_2   0.676806 0.588528 0.554888 -0.500194
C54   C     C_2   0.311380 0.335193 0.456701 0.491715
H10   H     H_    0.334697 0.455516 0.480021 0.005463
O26   O     O_2   0.308575 0.191440 0.491393 -0.495797

loop_
_geom_bond_atom_site_label_1
_geom_bond_atom_site_label_2
_ccdc_geom_bond_type
C24   C26   A    
O13   C45   A    
C9    C31   A    
C7    C46   S    
C13   C15   A    
C53   H9    S    
O1    C3    A    
O2    C4    A    
C2    O7    A    
O5    C3    A    
C28   Cl6   S    
C23   Cl3   S    
C9    C49   S    
C21   C23   A    
C10   C12   A    
C26   C54   S    
C50   O22   D    
C41   C43   T    
C46   O17   A    
C42   C44   T    
C45   O18   A    
C15   C19   A    
C10   C50   S    
C19   C21   A    
C7    C29   A    
C8    C30   A    
C40   C42   S    
C14   C16   A    
C33   C35   T    
C33   C48   S    
C20   C28   A    
C34   C36   T    
C51   O23   D    
C6    H2    S    
O6    C4    A    
O11   C47   A    
O5    V1    S    
O6    V2    S    
C12   C14   A    
C36   C38   S    
C37   C39   T    
O11   V4    S    
C38   C40   T    
O20   V3    S    
C16   C20   A    
O4    C2    A    
C50   H6    S    
C35   C37   S    
O14   C46   A    
O4    V2    S    
C34   C47   S    
C5    C29   A    
C8    C45   S    
C6    C30   A    
C49   H5    S    
O16   C48   A    
C27   Cl5   S    
C52   O24   D    
O14   V4    S    
O12   C48   A    
O1    V2    S    
O2    V1    S    
C25   C53   S    
C7    C27   A    
C49   O21   D    
C54   O26   D    
C39   C41   S    
O18   V4    S    
C11   C13   A    
O19   V4    S    
O12   V3    S    
C29   Cl1   S    
O3    V1    S    
C13   H3    S    
C14   H4    S    
C1    C44   S    
C18   C32   A    
C2    C43   S    
C4    C31   S    
O3    C1    A    
C53   O25   D    
O16   V4    S    
C11   C51   S    
C19   C27   A    
C22   C24   A    
O7    V1    S    
C10   C32   A    
C1    O8    A    
C15   C17   A    
O8    V2    S    
C16   C18   A    
C6    C22   A    
C8    C28   A    
O13   V3    S    
C30   Cl2   S    
C52   H8    S    
C5    H1    S    
C20   C22   A    
C17   C25   A    
O17   V3    S    
O15   C47   A    
C18   C26   A    
C9    C11   A    
O15   V3    S    
C24   Cl4   S    
C23   C25   A    
C54   H10   S    
C17   C31   A    
O9    V2    S    
O10   V1    S    
C3    C32   S    
C5    C21   A    
C51   H7    S    
C12   C52   S    
