data_mof_unit_23289.cif
_audit_creation_date              2012-12-10T20:42:43-0500
_audit_creation_method            fapswitch 2.2
_symmetry_space_group_name_H-M    P1
_symmetry_Int_Tables_number       1
_space_group_crystal_system       triclinic
_cell_length_a                    8.905293
_cell_length_b                    10.671667
_cell_length_c                    9.884963
_cell_angle_alpha                 89.9545
_cell_angle_beta                  90.160665
_cell_angle_gamma                 90.041439
_cell_volume                      939.406517334

loop_
_atom_site_label
_atom_site_type_symbol
_atom_type_description
_atom_site_fract_x
_atom_site_fract_y
_atom_site_fract_z
_atom_type_partial_charge
C1    C     C_R   0.505662 0.259961 0.500117 0.882497
C2    C     C_R   0.368206 0.497848 0.928181 0.185057
C3    C     C_3   0.250666 0.398926 0.920323 -0.516039
C4    C     C_R   0.218775 0.499970 0.499909 0.929224
C5    C     C_3   0.249680 0.398416 0.074055 0.191991
C6    C     C_R   0.505250 0.740052 0.499970 0.882440
C7    C     C_R   0.781243 0.500022 0.500157 0.932657
C8    C     C_1   0.065425 0.499987 0.500029 -0.129835
C9    C     C_1   0.934592 0.500001 0.500317 -0.138194
C10   C     C_R   0.544646 0.063850 0.622275 0.065112
C11   C     C_R   0.532727 0.128736 0.500269 -0.157877
C12   C     C_R   0.551759 0.935406 0.377416 -0.160270
C13   C     C_R   0.552148 0.064899 0.377518 -0.164528
C14   C     C_R   0.531749 0.871337 0.500034 -0.161407
C15   C     C_R   0.543639 0.935849 0.622112 0.051126
C16   C     C_3   0.450827 0.928432 0.747801 0.204777
C17   C     C_3   0.452993 0.071666 0.748596 0.178077
C18   C     C_R   0.367793 0.498144 0.070611 0.204598
C19   C     C_R   0.630023 0.512420 0.072117 -0.064513
C20   C     C_R   0.630039 0.512398 0.928504 0.015012
Cl1   Cl    Cl    0.076214 0.454913 0.140432 -0.611818
Cl2   Cl    Cl    0.550563 0.852169 0.882103 -0.523881
Cl3   Cl    Cl    0.557246 0.144116 0.882686 -0.543884
H1    H     H_    0.293127 0.310341 0.875791 0.215107
H2    H     H_    0.289476 0.309198 0.119998 0.150919
H3    H     H_    0.340618 0.114146 0.731119 0.068292
H4    H     H_    0.735345 0.520831 0.125873 0.203408
H5    H     H_    0.555772 0.113720 0.281425 0.208737
H6    H     H_    0.555342 0.886795 0.281289 0.212094
H7    H     H_    0.337359 0.888417 0.728950 0.081383
H8    H     H_    0.735446 0.520703 0.875284 0.165439
H9    H     H_    0.145547 0.434566 0.873108 0.237579
N1    N     N_R   0.499010 0.499140 0.142800 -0.145274
N2    N     N_R   0.499010 0.499180 0.857150 -0.099153
O1    O     O_R   0.500020 0.316790 0.614690 -0.592288
O2    O     O_R   0.500000 0.316760 0.385350 -0.625337
O3    O     O_R   0.285350 0.500020 0.614650 -0.634009
O4    O     O_R   0.285340 0.499980 0.385310 -0.571897
O5    O     O_R   0.500000 0.683240 0.614650 -0.587569
O6    O     O_R   0.499980 0.683210 0.385310 -0.614302
O7    O     O_R   0.714660 0.500020 0.614690 -0.625054
O8    O     O_R   0.714650 0.499980 0.385350 -0.605051
Zn1   Zn    Zn3+2 0.500010 0.500020 0.653130 1.003762
Zn2   Zn    Zn3+2 0.499990 0.499980 0.346870 1.002890

loop_
_geom_bond_atom_site_label_1
_geom_bond_atom_site_label_2
_ccdc_geom_bond_type
O3    Zn1   S    
C16   Cl2   S    
C13   H5    S    
O4    Zn2   S    
C12   H6    S    
C2    C18   A    
O1    Zn1   S    
O7    Zn1   S    
C19   C20   A    
C1    C11   S    
C4    C8    S    
C20   N2    A    
C2    N2    A    
C2    C3    S    
C5    Cl1   S    
C4    O3    A    
C11   C13   A    
C3    H1    S    
C17   Cl3   S    
O8    Zn2   S    
C5    H2    S    
C17   H3    S    
C12   C14   A    
C10   C15   A    
C7    O7    A    
C3    H9    S    
C18   N1    A    
C6    O6    A    
O2    Zn2   S    
C6    C14   S    
C10   C11   A    
C10   C17   S    
C16   H7    S    
C15   C16   S    
O6    Zn2   S    
C19   H4    S    
C12   C13   A    
C1    O1    A    
C19   N1    A    
C7    O8    A    
C7    C9    S    
C6    O5    A    
C8    C9    T    
O5    Zn1   S    
C5    C18   S    
C14   C15   A    
N1    Zn2   S    
N2    Zn1   S    
C1    O2    A    
C4    O4    A    
C16   C17   S    
C3    C5    S    
C20   H8    S    
