data_mof_unit_57398.cif
_audit_creation_date              2012-12-11T14:49:49-0500
_audit_creation_method            fapswitch 2.2
_symmetry_space_group_name_H-M    P1
_symmetry_Int_Tables_number       1
_space_group_crystal_system       triclinic
_cell_length_a                    11.286148
_cell_length_b                    11.248094
_cell_length_c                    19.084923
_cell_angle_alpha                 90.0
_cell_angle_beta                  89.99995
_cell_angle_gamma                 120.518642
_cell_volume                      2087.14303735

loop_
_atom_site_label
_atom_site_type_symbol
_atom_type_description
_atom_site_fract_x
_atom_site_fract_y
_atom_site_fract_z
_atom_type_partial_charge
C1    C     C_R   0.546937 0.430059 0.639265 0.567174
C2    C     C_R   0.456471 0.529157 0.356094 0.607939
C3    C     C_R   0.470193 0.927020 0.143875 0.610092
C4    C     C_R   0.063259 0.536825 0.353541 0.613699
C5    C     C_R   0.396455 0.974907 0.539599 -0.085973
C6    C     C_R   0.589237 0.569074 0.967980 -0.038158
C7    C     C_R   0.996312 0.405193 0.533966 -0.095908
C8    C     C_R   0.396456 0.974909 0.960401 -0.085973
C9    C     C_R   0.589239 0.569073 0.532019 -0.038155
C10   C     C_R   0.996310 0.405191 0.966034 -0.095908
C11   C     C_R   0.979281 0.396035 0.038691 -0.088497
C12   C     C_R   0.928894 0.470852 0.855764 0.605272
C13   C     C_R   0.599930 0.556673 0.459539 -0.035286
C14   C     C_R   0.404263 0.991404 0.032987 -0.098126
C15   C     C_R   0.979282 0.396035 0.461309 -0.088497
C16   C     C_R   0.599929 0.556675 0.040460 -0.035288
C17   C     C_R   0.404261 0.991401 0.467014 -0.098127
C18   C     C_R   0.498037 0.970009 0.430093 0.023988
C19   C     C_R   0.473471 0.490234 0.072852 -0.012484
C20   C     C_R   0.003075 0.512166 0.424355 0.043745
C21   C     C_R   0.498038 0.970011 0.069907 0.023991
C22   C     C_R   0.473472 0.490234 0.427147 -0.012486
C23   C     C_R   0.537309 0.063383 0.646527 0.602038
C24   C     C_R   0.003076 0.512167 0.075645 0.043746
C25   C     C_R   0.973325 0.498927 0.929492 0.021100
C26   C     C_R   0.515744 0.443432 0.565922 -0.033518
C27   C     C_R   0.513072 0.001634 0.923905 0.040945
C28   C     C_R   0.973325 0.498927 0.570508 0.021098
C29   C     C_R   0.515743 0.443431 0.934078 -0.033513
C30   C     C_R   0.513072 0.001634 0.576095 0.040943
C31   C     C_R   0.603988 0.962328 0.468014 0.023803
C32   C     C_R   0.365461 0.370196 0.037191 0.076382
C33   C     C_R   0.990834 0.617523 0.460025 0.045304
C34   C     C_R   0.546937 0.430059 0.860735 0.567176
C35   C     C_R   0.603989 0.962329 0.031985 0.023799
C36   C     C_R   0.365462 0.370195 0.462809 0.076381
C37   C     C_R   0.990837 0.617524 0.039975 0.045306
C38   C     C_R   0.965169 0.604813 0.967627 0.018223
C39   C     C_R   0.391381 0.341534 0.531611 0.060541
C40   C     C_R   0.617861 0.989205 0.959742 0.053368
C41   C     C_R   0.965167 0.604812 0.532372 0.018218
C42   C     C_R   0.391381 0.341534 0.968389 0.060543
C43   C     C_R   0.617862 0.989206 0.540258 0.053373
C44   C     C_2   0.261503 0.890747 0.572365 0.275394
C45   C     C_R   0.928894 0.470852 0.644235 0.605272
C46   C     C_2   0.544646 0.665866 0.944520 0.315900
C47   C     C_2   0.049671 0.326063 0.569760 0.279622
C48   C     C_2   0.261503 0.890750 0.927636 0.275394
C49   C     C_2   0.544648 0.665867 0.555478 0.315899
C50   C     C_2   0.049666 0.326059 0.930240 0.279624
C51   C     C_2   0.902427 0.259608 0.071863 0.270929
C52   C     C_2   0.683331 0.496977 0.435727 0.295877
C53   C     C_2   0.321126 0.039501 0.068642 0.271835
C54   C     C_2   0.902429 0.259607 0.428138 0.270930
C55   C     C_2   0.683333 0.496981 0.064272 0.295878
C56   C     C_R   0.537309 0.063382 0.853473 0.602038
C57   C     C_2   0.321122 0.039496 0.431358 0.271836
C58   C     C_R   0.456470 0.529157 0.143906 0.607939
C59   C     C_R   0.470193 0.927020 0.356125 0.610091
C60   C     C_R   0.063259 0.536825 0.146459 0.613700
Cr1   Cr    Cr6+3 0.776430 0.541680 0.750000 1.172667
Cr2   Cr    Cr6+3 0.765250 0.223570 0.750000 1.146444
Cr3   Cr    Cr6+3 0.458320 0.234750 0.750000 1.166703
Cr4   Cr    Cr6+3 0.541680 0.776430 0.250000 1.164910
Cr5   Cr    Cr6+3 0.223570 0.765250 0.250000 1.156114
Cr6   Cr    Cr6+3 0.234750 0.458320 0.250000 1.168766
H1    H     H_    0.173608 0.860590 0.540145 0.126070
H2    H     H_    0.880948 0.171392 0.458876 0.132582
H3    H     H_    0.720959 0.452324 0.026380 0.082419
H4    H     H_    0.226573 0.020330 0.454593 0.148322
H5    H     H_    0.511763 0.713719 0.982816 0.093334
H6    H     H_    0.036771 0.233849 0.546058 0.145418
H7    H     H_    0.173608 0.860599 0.959856 0.126073
H8    H     H_    0.511753 0.713709 0.517183 0.093328
H9    H     H_    0.036763 0.233844 0.953942 0.145418
H10   H     H_    0.880944 0.171392 0.041125 0.132582
H11   H     H_    0.720957 0.452320 0.473619 0.082420
H12   H     H_    0.226577 0.020337 0.045408 0.148322
I1    I     I_    0.742327 0.899829 0.422836 -0.192630
I2    I     I_    0.908991 0.748797 0.577976 -0.175588
I3    I     I_    0.230992 0.156781 0.917095 -0.204424
I4    I     I_    0.792952 0.993686 0.592786 -0.158314
I5    I     I_    0.166267 0.226230 0.082894 -0.208147
I6    I     I_    0.984817 0.786586 0.405952 -0.160282
I7    I     I_    0.742327 0.899830 0.077163 -0.192634
I8    I     I_    0.166268 0.226229 0.417105 -0.208145
I9    I     I_    0.984822 0.786590 0.094047 -0.160284
I10   I     I_    0.908991 0.748796 0.922024 -0.175593
I11   I     I_    0.230993 0.156780 0.582905 -0.204424
I12   I     I_    0.792949 0.993681 0.907212 -0.158318
O1    O     O_R   0.916700 0.566820 0.669930 -0.470312
O2    O     O_R   0.566820 0.916700 0.330070 -0.463992
O3    O     O_R   0.083300 0.650120 0.169930 -0.482371
O4    O     O_R   0.349880 0.433180 0.330070 -0.463900
O5    O     O_R   0.649840 0.534790 0.674920 -0.429482
O6    O     O_R   0.884950 0.350160 0.825080 -0.465371
O7    O     O_R   0.465210 0.115050 0.674920 -0.476285
O8    O     O_R   0.649840 0.534790 0.825080 -0.429486
O9    O     O_R   0.884950 0.350160 0.674920 -0.465371
O10   O     O_R   0.465210 0.115050 0.825080 -0.476287
O11   O     O_R   0.534790 0.649840 0.174920 -0.466872
O12   O     O_R   0.650120 0.083300 0.830070 -0.482050
O13   O     O_R   0.350160 0.884950 0.325080 -0.463273
O14   O     O_R   0.115050 0.465210 0.174920 -0.465348
O15   O     O_R   0.534790 0.649840 0.325080 -0.466873
O16   O     O_R   0.350160 0.884950 0.174920 -0.463273
O17   O     O_R   0.115050 0.465210 0.325080 -0.465348
O18   O     O_3   0.666667 0.333333 0.750000 -0.404446
O19   O     O_3   0.333333 0.666667 0.250000 -0.376640
O20   O     O_2   0.247611 0.850191 0.632866 -0.403371
O21   O     O_2   0.534393 0.685180 0.882369 -0.389248
O22   O     O_2   0.115712 0.367689 0.624024 -0.396444
O23   O     O_R   0.433180 0.349880 0.669930 -0.430478
O24   O     O_2   0.247611 0.850190 0.867136 -0.403371
O25   O     O_2   0.534409 0.685191 0.617630 -0.389247
O26   O     O_2   0.115709 0.367685 0.875976 -0.396440
O27   O     O_2   0.857757 0.244002 0.131557 -0.402620
O28   O     O_2   0.703342 0.489100 0.373397 -0.402790
O29   O     O_2   0.361905 0.108189 0.122226 -0.407030
O30   O     O_2   0.857757 0.244000 0.368444 -0.402621
O31   O     O_2   0.703346 0.489107 0.126603 -0.402790
O32   O     O_2   0.361900 0.108184 0.377774 -0.407029
O33   O     O_R   0.916700 0.566820 0.830070 -0.470312
O34   O     O_R   0.650120 0.083300 0.669930 -0.482049
O35   O     O_R   0.433180 0.349880 0.830070 -0.430477
O36   O     O_R   0.566820 0.916700 0.169930 -0.463993
O37   O     O_R   0.083300 0.650120 0.330070 -0.482372
O38   O     O_R   0.349880 0.433180 0.169930 -0.463899

loop_
_geom_bond_atom_site_label_1
_geom_bond_atom_site_label_2
_ccdc_geom_bond_type
C55   O31   D    
C58   O38   A    
C54   O30   D    
C29   C42   A    
C28   C41   A    
Cr1   O8    S    
Cr6   O17   S    
C41   I2    S    
Cr2   O34   S    
C3    O36   A    
Cr4   O15   S    
Cr3   O10   S    
C31   C43   A    
Cr5   O37   S    
C14   C21   A    
Cr2   O6    S    
C16   C19   A    
C26   C39   A    
C54   H2    S    
C47   O22   D    
C11   C24   A    
Cr1   O18   S    
C9    C13   A    
C34   O8    A    
C57   O32   D    
C2    C22   S    
C57   H4    S    
C24   C60   S    
Cr6   O4    S    
C60   O3    A    
Cr5   O3    S    
C3    O16   A    
C46   O21   D    
Cr4   O11   S    
C42   I3    S    
C1    O23   A    
C19   C32   A    
C9    C26   A    
C24   C37   A    
C19   C58   S    
C32   C42   A    
C15   C20   A    
C4    O17   A    
C28   C45   S    
C23   C30   S    
Cr6   O14   S    
C2    O4    A    
C9    C49   S    
C51   H10   S    
C15   C54   S    
C45   O9    A    
C27   C56   S    
C36   I8    S    
C6    C16   A    
C29   C34   S    
C7    C28   A    
C38   I10   S    
C7    C47   S    
C8    C48   S    
C37   C38   A    
C25   C38   A    
C13   C52   S    
C52   O28   D    
C27   C40   A    
C1    O5    A    
C6    C29   A    
C53   O29   D    
C17   C18   A    
C58   O11   A    
Cr3   O35   S    
Cr5   O19   S    
C46   H5    S    
C55   H3    S    
Cr3   O23   S    
C20   C33   A    
C10   C25   A    
C49   O25   D    
C5    C44   S    
Cr4   O36   S    
C1    C26   S    
C30   C43   A    
C3    C21   S    
C56   O10   A    
C52   H11   S    
C10   C50   S    
Cr2   O18   S    
Cr5   O16   S    
C48   O24   D    
C5    C30   A    
C8    C27   A    
C32   I5    S    
C8    C14   A    
C6    C46   S    
C4    O37   A    
C23   O7    A    
C48   H7    S    
C37   I9    S    
C36   C39   A    
Cr1   O5    S    
C31   I1    S    
C23   O34   A    
C21   C35   A    
C22   C36   A    
C2    O15   A    
C12   C25   S    
Cr1   O33   S    
C33   C41   A    
C35   C40   A    
C16   C55   S    
C59   O13   A    
Cr3   O7    S    
C50   H9    S    
C35   I7    S    
Cr4   O19   S    
C12   O33   A    
C34   O35   A    
C7    C15   A    
C51   O27   D    
Cr6   O38   S    
C13   C22   A    
C53   H12   S    
C50   O26   D    
C59   O2    A    
Cr6   O19   S    
C45   O1    A    
C33   I6    S    
C47   H6    S    
C11   C51   S    
C10   C11   A    
C56   O12   A    
Cr2   O9    S    
C4    C20   S    
C18   C59   S    
C14   C53   S    
C5    C17   A    
C43   I4    S    
Cr5   O13   S    
C49   H8    S    
C12   O6    A    
C44   H1    S    
C18   C31   A    
Cr4   O2    S    
C40   I12   S    
Cr3   O18   S    
C60   O14   A    
C39   I11   S    
Cr1   O1    S    
C17   C57   S    
Cr2   O12   S    
C44   O20   D    
