data_mof_unit_20371.cif
_audit_creation_date              2013-03-05T16:48:55-0500
_audit_creation_method            fapswitch 2.2
_symmetry_space_group_name_H-M    P1
_symmetry_Int_Tables_number       1
_space_group_crystal_system       triclinic
_cell_length_a                    10.892964
_cell_length_b                    10.810691
_cell_length_c                    12.699139
_cell_angle_alpha                 93.039933
_cell_angle_beta                  91.721852
_cell_angle_gamma                 89.570574
_cell_volume                      1492.65178996

loop_
_atom_site_label
_atom_site_type_symbol
_atom_site_description
_atom_site_fract_x
_atom_site_fract_y
_atom_site_fract_z
_atom_type_partial_charge
O1    O     O_R   0.313000 0.493330 0.412070 -0.573600
O2    O     O_R   0.687000 0.506670 0.587930 -0.567072
O3    O     O_R   0.326280 0.506660 0.587930 -0.585310
O4    O     O_R   0.673720 0.493340 0.412070 -0.583227
C1    C     C_R   0.261803 0.498045 0.501847 0.817579
C2    C     C_R   0.738161 0.502666 0.498149 0.801648
O5    O     O_R   0.493370 0.312980 0.412070 -0.562421
O6    O     O_R   0.506630 0.687020 0.587930 -0.534796
O7    O     O_R   0.506650 0.326310 0.587930 -0.597662
O8    O     O_R   0.493350 0.673690 0.412070 -0.601634
C3    C     C_R   0.500067 0.261987 0.500444 0.887358
C4    C     C_R   0.497947 0.737870 0.499300 0.868701
Cu1   Cu    Cu3+1 0.492140 0.492110 0.395880 0.969839
Cu2   Cu    Cu3+1 0.507860 0.507890 0.604120 0.994056
H1    H     H_    0.929102 0.304504 0.807916 0.139068
H2    H     H_    0.056303 0.687686 0.211711 0.139620
C5    C     C_R   0.879022 0.234608 0.650530 -0.129204
C6    C     C_R   0.105712 0.785189 0.359273 -0.147920
H3    H     H_    0.963453 0.263231 0.616720 0.142455
H4    H     H_    0.017012 0.773080 0.393364 0.124097
C7    C     C_R   0.789026 0.175143 0.586005 -0.171190
C8    C     C_R   0.198498 0.848733 0.417725 -0.129586
H5    H     H_    0.804259 0.159412 0.502450 0.109621
H6    H     H_    0.180808 0.885514 0.496855 0.120371
C9    C     C_R   0.680969 0.133947 0.629794 0.206179
C10   C     C_R   0.313540 0.864833 0.373750 0.190214
C11   C     C_R   0.662815 0.154987 0.738230 -0.061006
C12   C     C_R   0.334836 0.816364 0.271106 -0.114398
H7    H     H_    0.580057 0.123058 0.772987 0.103659
H8    H     H_    0.422641 0.829370 0.235915 0.100587
C13   C     C_R   0.751589 0.217706 0.802032 -0.149449
C14   C     C_R   0.242288 0.752155 0.213213 -0.139332
H9    H     H_    0.736844 0.234868 0.885462 0.118295
H10   H     H_    0.259209 0.714800 0.134165 0.119199
C15   C     C_R   0.859918 0.257081 0.758277 -0.104453
C16   C     C_R   0.127712 0.736919 0.257109 -0.107482
C17   C     C_R   0.589959 0.936852 0.557892 0.456753
C18   C     C_R   0.413848 0.062552 0.435127 0.439159
C19   C     C_R   0.499574 0.871283 0.496971 -0.261940
C20   C     C_R   0.500391 0.128195 0.500448 -0.259984
C21   C     C_R   0.411693 0.933285 0.434861 -0.175587
C22   C     C_R   0.587946 0.065994 0.562525 -0.185629
H11   H     H_    0.226734 0.510858 0.000141 0.151248
H12   H     H_    0.772163 0.482807 0.999832 0.155506
C23   C     C_R   0.210506 0.404384 0.852005 0.548506
C24   C     C_R   0.787689 0.592410 0.146496 0.556566
C25   C     C_R   0.168660 0.407100 0.745578 -0.230676
C26   C     C_R   0.829274 0.591855 0.253196 -0.236405
H13   H     H_    0.168932 0.323957 0.694311 0.121335
H14   H     H_    0.828249 0.675606 0.303677 0.107090
C27   C     C_R   0.121064 0.516790 0.705633 0.081021
C28   C     C_R   0.878537 0.483725 0.294462 0.083630
C29   C     C_R   0.114189 0.624176 0.772130 -0.145397
C30   C     C_R   0.886598 0.375296 0.229408 -0.152710
H15   H     H_    0.075559 0.708802 0.742815 0.139036
H16   H     H_    0.926371 0.291774 0.259842 0.143784
C31   C     C_R   0.153457 0.621680 0.877631 -0.226713
C32   C     C_R   0.846980 0.375335 0.123893 -0.237731
H17   H     H_    0.146298 0.704290 0.929145 0.157680
H18   H     H_    0.854990 0.291905 0.073504 0.156368
C33   C     C_R   0.199259 0.512053 0.917561 -0.171001
C34   C     C_R   0.799849 0.483593 0.082466 -0.164621
C35   C     C_R   0.936207 0.521392 0.592530 -0.257372
C36   C     C_R   0.063723 0.483272 0.407309 -0.219045
H19   H     H_    0.887379 0.533974 0.665558 0.184582
H20   H     H_    0.112484 0.470814 0.334237 0.174617
C37   C     C_R   0.871713 0.506199 0.495621 -0.100166
C38   C     C_R   0.128200 0.496899 0.504314 -0.081985
C39   C     C_R   0.936631 0.489033 0.401353 0.005875
C40   C     C_R   0.063289 0.514355 0.598612 0.000416
N1    N     N_1   0.480320 0.480250 0.239400 -0.171196
N2    N     N_1   0.519680 0.519750 0.760600 -0.162225
C41   C     C_2   0.489880 0.452915 0.031797 -0.269818
C42   C     C_2   0.509346 0.546864 0.968183 -0.253151
C43   C     C_1   0.516247 0.529581 0.852662 0.218593
C44   C     C_1   0.483401 0.470290 0.147333 0.192818
H21   H     H_    0.518365 0.640416 0.002772 0.190950
H22   H     H_    0.480725 0.359355 0.997249 0.183705
O9    O     O_3   0.677373 0.874803 0.617081 -0.550747
C45   C     C_3   0.776359 0.840882 0.552083 -0.301821
H23   H     H_    0.821129 0.923435 0.521912 0.147836
H24   H     H_    0.746985 0.776729 0.484863 0.125514
H25   H     H_    0.846354 0.791727 0.599738 0.189918
O10   O     O_3   0.322516 0.126487 0.381746 -0.580397
C46   C     C_3   0.351610 0.131844 0.274304 -0.245995
H26   H     H_    0.303771 0.056898 0.226756 0.164359
H27   H     H_    0.452107 0.127645 0.259496 0.136402
H28   H     H_    0.316686 0.221067 0.245582 0.193777
O11   O     O_3   0.252685 0.297563 0.898130 -0.596013
C47   C     C_3   0.323789 0.222292 0.828769 -0.367193
H29   H     H_    0.263640 0.163967 0.774580 0.175930
H30   H     H_    0.380162 0.158635 0.876281 0.182244
H31   H     H_    0.388348 0.277336 0.783820 0.179243
O12   O     O_3   0.744051 0.697609 0.098487 -0.586057
C48   C     C_3   0.680974 0.779292 0.168772 -0.375520
H32   H     H_    0.622309 0.841619 0.121871 0.184718
H33   H     H_    0.746973 0.838472 0.216570 0.169035
H34   H     H_    0.619452 0.729277 0.220357 0.176082

loop_
_geom_bond_atom_site_label_1
_geom_bond_atom_site_label_2
_geom_bond_distance
_ccdc_geom_bond_type
C32   C34   1.396472 A    
C35   H19   1.084742 S    
C11   H7    1.082301 S    
C41   C42   1.352651 D    
C48   H32   1.109212 S    
C48   H34   1.113536 S    
C25   H13   1.081566 S    
C46   H26   1.108217 S    
O5    C3    1.276243 A    
C17   O9    1.386537 S    
C24   C34   1.401892 A    
O1    C1    1.282587 A    
C36   C38   1.401001 A    
C8    H6    1.083121 S    
C45   H25   1.109170 S    
N1    C44   1.169889 T    
C31   H17   1.082438 S    
C32   H18   1.082368 S    
C17   C22   1.394277 A    
C23   C25   1.415009 A    
C23   C33   1.401474 A    
O4    Cu1   1.982517 S    
C28   C39   1.478844 S    
C28   C30   1.401557 A    
C42   H21   1.084999 S    
C41   H22   1.085024 S    
C13   H9    1.082429 S    
C27   C40   1.479499 S    
C23   O11   1.391189 S    
C26   H14   1.081457 S    
Cu1   Cu2   2.641404 S    
O2    C2    1.282564 A    
N2    C43   1.169994 T    
H1    C15   1.082177 S    
C1    C38   1.456774 S    
C30   H16   1.083255 S    
C29   H15   1.083316 S    
C35   C37   1.401207 A    
C42   C43   1.473109 S    
C46   H27   1.116486 S    
C11   C13   1.398497 A    
C12   C14   1.396600 A    
O10   C46   1.414232 S    
C18   C21   1.397651 A    
O4    C2    1.281049 A    
C29   C31   1.395668 A    
C25   C27   1.403956 A    
Cu1   N1    1.984862 S    
H12   C34   1.082725 S    
C5    C7    1.396803 A    
C27   C29   1.401776 A    
C36   H20   1.084736 S    
O7    Cu2   1.962970 S    
C47   H30   1.109121 S    
C24   O12   1.392503 S    
C35   C40   1.385870 A    
O5    Cu1   1.958119 S    
O6    C4    1.279215 A    
O12   C48   1.411640 S    
C36   C39   1.385320 A    
O7    C3    1.279464 A    
O3    Cu2   1.982519 S    
O8    C4    1.275417 A    
C45   H24   1.111846 S    
C2    C37   1.456922 S    
C7    H5    1.083220 S    
C41   C44   1.473007 S    
C13   C15   1.398005 A    
O1    Cu1   1.968175 S    
C14   C16   1.396491 A    
H11   C33   1.082590 S    
C47   H31   1.113962 S    
C30   C32   1.395352 A    
C46   H28   1.109783 S    
C7    C9    1.402316 A    
O6    Cu2   1.958119 S    
C18   O10   1.387774 S    
C6    C8    1.398455 A    
Cu2   N2    1.984861 S    
C45   H23   1.111363 S    
O3    C1    1.281036 A    
O8    Cu1   1.962970 S    
C9    C22   1.479445 S    
C48   H33   1.110902 S    
C31   C33   1.396524 A    
C9    C11   1.403407 A    
C10   C12   1.404045 A    
C4    C19   1.444409 S    
C12   H8    1.081052 S    
C17   C19   1.406018 A    
H2    C16   1.080467 S    
C18   C20   1.407481 A    
C47   H29   1.110625 S    
C20   C22   1.408779 A    
C5    H3    1.080757 S    
C6    H4    1.082198 S    
C3    C20   1.446373 S    
O2    Cu2   1.968174 S    
O9    C45   1.412048 S    
C24   C26   1.416052 A    
C26   C28   1.402753 A    
C19   C21   1.410267 A    
C38   C40   1.412263 A    
C8    C10   1.402920 A    
C5    C15   1.398449 A    
C37   C39   1.411726 A    
O11   C47   1.411896 S    
C6    C16   1.399271 A    
C10   C21   1.481257 S    
C14   H10   1.082477 S    
