data_mof_unit_29307.cif
_audit_creation_date              2013-03-05T16:46:09-0500
_audit_creation_method            fapswitch 2.2
_symmetry_space_group_name_H-M    P1
_symmetry_Int_Tables_number       1
_space_group_crystal_system       triclinic
_cell_length_a                    10.720161
_cell_length_b                    10.750802
_cell_length_c                    9.933983
_cell_angle_alpha                 90.061897
_cell_angle_beta                  92.597353
_cell_angle_gamma                 89.401817
_cell_volume                      1143.65606827

loop_
_atom_site_label
_atom_site_type_symbol
_atom_site_description
_atom_site_fract_x
_atom_site_fract_y
_atom_site_fract_z
_atom_type_partial_charge
O1    O     O_R   0.500020 0.316790 0.614690 -0.641737
O2    O     O_R   0.500000 0.316760 0.385350 -0.635017
C1    C     C_R   0.502524 0.260304 0.499864 0.879411
O3    O     O_R   0.316770 0.500030 0.614670 -0.582144
O4    O     O_R   0.316750 0.499990 0.385330 -0.643649
C2    C     C_R   0.260263 0.498770 0.497384 0.912433
Zn1   Zn    Zn3+2 0.500010 0.500020 0.653130 1.057228
Zn2   Zn    Zn3+2 0.499990 0.499980 0.346870 1.001306
O5    O     O_R   0.500000 0.683240 0.614650 -0.557213
O6    O     O_R   0.499980 0.683210 0.385310 -0.590257
O7    O     O_R   0.683250 0.500010 0.614670 -0.563864
O8    O     O_R   0.683230 0.499970 0.385330 -0.627232
C3    C     C_R   0.506740 0.740011 0.498990 0.984980
C4    C     C_R   0.739721 0.495680 0.503200 0.937503
C5    C     C_R   0.234822 0.794358 0.190175 -0.243114
C6    C     C_R   0.181235 0.756602 0.310011 0.319446
C7    C     C_R   0.106210 0.648761 0.305633 0.039556
C8    C     C_R   0.077352 0.589693 0.182363 -0.197337
H1    H     H_    0.018235 0.508422 0.178015 0.197941
C9    C     C_R   0.127846 0.630978 0.064950 -0.133992
H2    H     H_    0.108966 0.580767 0.972265 0.242377
C10   C     C_R   0.210681 0.729904 0.068962 0.313730
C11   C     C_R   0.930462 0.599506 0.448144 0.299504
C12   C     C_R   0.872688 0.499501 0.510757 -0.182550
C13   C     C_R   0.942702 0.399526 0.567747 0.052961
C14   C     C_R   0.071330 0.404178 0.566253 -0.147718
H3    H     H_    0.127717 0.330132 0.612943 0.150901
C15   C     C_R   0.127387 0.496854 0.493652 -0.125233
C16   C     C_R   0.056980 0.589111 0.425011 -0.021942
C17   C     C_R   0.880367 0.244914 0.746688 0.350435
C18   C     C_R   0.847447 0.121933 0.776506 -0.220803
H4    H     H_    0.841614 0.091868 0.879981 0.204903
C19   C     C_R   0.827363 0.034870 0.673919 -0.102844
C20   C     C_R   0.833427 0.070528 0.539598 -0.056756
H5    H     H_    0.816679 0.003302 0.459970 0.220343
C21   C     C_R   0.861704 0.192853 0.507482 -0.241649
H6    H     H_    0.868938 0.217989 0.402523 0.177238
C22   C     C_R   0.887702 0.280623 0.609513 -0.030275
C23   C     C_R   0.534634 0.063304 0.617832 0.100616
C24   C     C_R   0.521430 0.129147 0.498563 -0.103717
C25   C     C_R   0.540115 0.067793 0.376886 -0.274393
H7    H     H_    0.545420 0.119805 0.284036 0.208210
C26   C     C_R   0.547485 0.938494 0.372838 0.305449
C27   C     C_R   0.531864 0.871499 0.495123 -0.133112
C28   C     C_R   0.540360 0.936690 0.616092 0.045877
C29   C     C_3   0.470414 0.927090 0.741326 -0.240750
C30   C     C_3   0.462909 0.067645 0.742311 -0.480479
H8    H     H_    0.531811 0.889732 0.824951 0.275985
C31   C     C_R   0.395196 0.469451 0.065860 0.175729
N1    N     N_R   0.499160 0.499140 0.142800 -0.143151
C32   C     C_R   0.599702 0.540570 0.077829 -0.057271
C33   C     C_R   0.599494 0.544420 0.934591 0.335776
N2    N     N_R   0.499160 0.499180 0.857150 -0.170377
C34   C     C_R   0.395095 0.469498 0.924134 0.241707
C35   C     C_3   0.325954 0.350317 0.915452 -0.499263
C36   C     C_3   0.326454 0.349913 0.068486 -0.467351
N3    N     N_R   0.278494 0.757765 0.952805 0.187013
O9    O     O_R   0.397462 0.777274 0.968448 -0.403103
O10   O     O_R   0.231186 0.732402 0.833100 -0.355082
H9    H     H_    0.805708 0.939796 0.698850 0.225835
N4    N     N_R   0.566231 0.880612 0.244488 0.225941
O11   O     O_R   0.650123 0.793544 0.234693 -0.310418
O12   O     O_R   0.526470 0.936789 0.134529 -0.389890
H10   H     H_    0.378210 0.882670 0.723528 0.276322
H11   H     H_    0.366227 0.104222 0.723795 0.221491
H12   H     H_    0.517826 0.109468 0.828187 0.219122
H13   H     H_    0.680380 0.572279 0.136787 0.219668
H14   H     H_    0.296339 0.873422 0.190848 0.223287
N5    N     N_R   0.703842 0.600652 0.874141 0.239290
O13   O     O_R   0.684495 0.692288 0.790636 -0.343691
O14   O     O_R   0.814414 0.588986 0.932441 -0.328959
H15   H     H_    0.231299 0.362204 0.866817 0.247208
H16   H     H_    0.382825 0.274468 0.873930 0.206830
H17   H     H_    0.231810 0.361651 0.108243 0.223814
H18   H     H_    0.383492 0.273047 0.115219 0.226990
N6    N     N_R   0.202043 0.829200 0.431268 0.190221
O15   O     O_R   0.167950 0.789667 0.547522 -0.347392
O16   O     O_R   0.248639 0.940212 0.424654 -0.432108
N7    N     N_R   0.862484 0.713001 0.416944 0.228899
O17   O     O_R   0.786977 0.757051 0.504324 -0.421048
O18   O     O_R   0.893319 0.784877 0.318819 -0.349859
N8    N     N_R   0.908351 0.329407 0.856163 0.213861
O19   O     O_R   0.864555 0.309554 0.974266 -0.414633
O20   O     O_R   0.987067 0.419168 0.843148 -0.395964

loop_
_geom_bond_atom_site_label_1
_geom_bond_atom_site_label_2
_geom_bond_distance
_ccdc_geom_bond_type
C35   C36   1.520014 S    
C7    C16   1.470228 S    
C25   H7    1.083149 S    
C10   N3    1.425128 S    
N2    C34   1.365405 A    
C27   C28   1.390391 A    
Zn1   O7    2.018095 S    
C14   H3    1.086071 S    
C11   C16   1.389185 A    
C21   H6    1.083773 S    
N6    O16   1.301453 A    
C8    H1    1.084388 S    
O4    C2    1.291217 A    
O7    C4    1.286434 A    
N3    O10   1.301212 A    
C5    C6    1.407056 A    
C17   C22   1.421957 A    
N4    O12   1.301334 A    
C20   H5    1.081161 S    
C4    C12   1.425025 S    
N5    O14   1.300400 A    
O5    C3    1.306834 A    
C33   N5    1.432899 S    
C34   C35   1.487391 S    
C5    C10   1.403836 A    
C2    C15   1.423610 S    
C6    C7    1.417432 A    
C11   C12   1.405936 A    
C18   C19   1.394009 A    
C30   H12   1.111620 S    
C8    C9    1.383397 A    
C35   H15   1.110127 S    
C23   C28   1.362071 A    
C36   H18   1.112143 S    
O1    Zn1   2.006135 S    
C25   C26   1.392125 A    
N5    O13   1.297535 A    
O3    Zn1   1.984103 S    
N1    C32   1.360280 A    
C29   H8    1.109176 S    
C36   H17   1.111230 S    
C32   C33   1.423468 A    
C12   C13   1.408906 A    
O3    C2    1.288723 A    
C23   C24   1.381817 A    
N7    O18   1.301035 A    
C13   C14   1.381096 A    
C28   C29   1.485616 S    
C29   H10   1.109128 S    
O1    C1    1.292895 A    
C17   N8    1.439384 S    
C26   C27   1.430147 A    
C13   C22   1.480845 S    
C18   H4    1.082576 S    
Zn2   O8    1.984104 S    
C7    C8    1.402354 A    
C32   H13   1.080308 S    
N6    O15   1.300182 A    
C24   C25   1.397748 A    
O8    C4    1.294287 A    
C1    C24   1.422571 S    
C31   N1    1.363045 A    
C19   H9    1.081979 S    
N8    O20   1.298913 A    
Zn1   N2    2.027195 S    
Zn2   N1    2.026855 S    
C33   N2    1.385784 A    
C26   N4    1.439522 S    
C23   C30   1.485865 S    
Zn1   O5    2.006915 S    
C29   C30   1.512429 S    
C15   C16   1.399136 A    
C6    N6    1.444699 S    
O2    Zn2   2.006913 S    
C9    C10   1.392007 A    
O6    C3    1.282762 A    
O4    Zn2   2.018095 S    
C31   C36   1.488916 S    
C14   C15   1.388281 A    
C21   C22   1.404715 A    
O2    C1    1.289015 A    
N3    O9    1.297013 A    
C17   C18   1.407267 A    
C5    H14   1.081083 S    
C19   C20   1.393247 A    
C20   C21   1.393240 A    
N4    O11   1.297931 A    
N7    O17   1.299134 A    
C35   H16   1.103842 S    
C9    H2    1.079087 S    
Zn2   O6    2.006135 S    
N8    O19   1.301934 A    
C11   N7    1.441429 S    
C30   H11   1.112232 S    
C3    C27   1.442664 S    
C31   C34   1.407851 A    
