data_mof_unit_42053.cif
_audit_creation_date              2012-12-11T15:18:37-0500
_audit_creation_method            fapswitch 2.2
_symmetry_space_group_name_H-M    P1
_symmetry_Int_Tables_number       1
_space_group_crystal_system       triclinic
_cell_length_a                    6.94383
_cell_length_b                    19.912868
_cell_length_c                    23.841133
_cell_angle_alpha                 93.777565
_cell_angle_beta                  91.234846
_cell_angle_gamma                 88.62965
_cell_volume                      3287.78851012

loop_
_atom_site_label
_atom_site_type_symbol
_atom_type_description
_atom_site_fract_x
_atom_site_fract_y
_atom_site_fract_z
_atom_type_partial_charge
O1    O     O_R   0.620100 0.812200 0.810870 -0.535506
O2    O     O_R   0.379900 0.187800 0.189130 -0.535506
O3    O     O_R   0.296960 0.671650 0.794750 -0.541015
O4    O     O_R   0.703040 0.328350 0.205250 -0.541014
O5    O     O_R   0.120160 0.687800 0.689130 -0.538856
O6    O     O_R   0.879840 0.312200 0.310870 -0.538856
C1    C     C_R   0.468734 0.647281 0.804931 0.684552
C2    C     C_R   0.531266 0.352719 0.195069 0.684552
O7    O     O_R   0.290810 0.810670 0.817290 -0.546985
O8    O     O_R   0.709190 0.189330 0.182710 -0.546984
O9    O     O_R   0.113980 0.827820 0.711840 -0.533157
O10   O     O_R   0.886020 0.172180 0.288160 -0.533157
C3    C     C_R   0.459486 0.831879 0.834239 0.713299
C4    C     C_R   0.540514 0.168121 0.165761 0.713299
O11   O     O_R   0.626290 0.672180 0.788160 -0.540095
O12   O     O_R   0.373710 0.327820 0.211840 -0.540095
O13   O     O_3   0.451520 0.755460 0.715370 -0.363514
O14   O     O_3   0.548480 0.244540 0.284630 -0.363514
V1    V     V_3+5 0.179200 0.748980 0.756420 1.437891
V2    V     V_3+5 0.820800 0.251020 0.243580 1.437892
O15   O     O_R   0.783880 0.828350 0.705250 -0.536122
O16   O     O_R   0.216120 0.171650 0.294750 -0.536121
C5    C     C_R   0.950035 0.852763 0.695311 0.725320
C6    C     C_R   0.049965 0.147236 0.304689 0.725320
O17   O     O_R   0.790030 0.689320 0.682700 -0.544497
O18   O     O_R   0.209970 0.310680 0.317300 -0.544496
C7    C     C_R   0.958987 0.668258 0.665633 0.719284
C8    C     C_R   0.041012 0.331742 0.334367 0.719284
V3    V     V_3+5 0.678400 0.751010 0.743570 1.447690
V4    V     V_3+5 0.321600 0.248990 0.256430 1.447690
O19   O     O_3   0.955950 0.744540 0.784620 -0.373677
O20   O     O_3   0.044050 0.255460 0.215380 -0.373677
C9    C     C_R   0.181496 0.425754 0.396498 -0.223134
C10   C     C_R   0.818504 0.574246 0.603502 -0.223135
C11   C     C_R   0.030880 0.380736 0.383993 -0.082050
C12   C     C_R   0.969120 0.619263 0.616007 -0.082049
C13   C     C_R   0.868325 0.383642 0.418477 -0.195236
C14   C     C_R   0.131675 0.616358 0.581523 -0.195236
C15   C     C_R   0.856189 0.430367 0.465131 0.082115
C16   C     C_R   0.143811 0.569633 0.534869 0.082115
C17   C     C_R   0.006365 0.476033 0.476825 0.053636
C18   C     C_R   0.993635 0.523967 0.523175 0.053636
C19   C     C_R   0.169086 0.473925 0.442193 0.091922
C20   C     C_R   0.830913 0.526075 0.557807 0.091922
C21   C     C_R   0.696357 0.432318 0.500312 -0.180961
C22   C     C_R   0.303643 0.567682 0.499688 -0.180961
C23   C     C_R   0.684008 0.479652 0.546272 -0.185090
C24   C     C_R   0.315992 0.520348 0.453728 -0.185090
H1    H     H_    0.751921 0.349013 0.409327 0.147166
H2    H     H_    0.248079 0.650987 0.590673 0.147166
H3    H     H_    0.580023 0.397483 0.492070 0.140741
H4    H     H_    0.419977 0.602517 0.507930 0.140741
H5    H     H_    0.558626 0.480235 0.572599 0.134421
H6    H     H_    0.441374 0.519765 0.427400 0.134421
C25   C     C_R   0.950598 0.913994 0.663291 -0.134403
C26   C     C_R   0.049402 0.086006 0.336709 -0.134403
C27   C     C_R   0.907211 0.034734 0.661502 -0.190839
C28   C     C_R   0.092788 0.965266 0.338498 -0.190839
C29   C     C_R   0.898604 0.976404 0.690352 -0.050919
C30   C     C_R   0.101396 0.023596 0.309648 -0.050919
C31   C     C_R   0.001266 0.910263 0.605816 -0.107426
C32   C     C_R   0.998734 0.089736 0.394183 -0.107426
C33   C     C_R   0.980961 0.968749 0.573714 0.043257
C34   C     C_R   0.019039 0.031251 0.426286 0.043257
C35   C     C_R   0.950875 0.031576 0.604303 0.120425
C36   C     C_R   0.049125 0.968424 0.395697 0.120425
C37   C     C_R   0.994206 0.968777 0.513328 0.056820
C38   C     C_R   0.005794 0.031223 0.486672 0.056819
C39   C     C_R   0.013131 0.090951 0.521619 -0.167644
C40   C     C_R   0.986869 0.909049 0.478381 -0.167644
C41   C     C_R   0.973382 0.091493 0.578348 -0.180764
C42   C     C_R   0.026619 0.908507 0.421652 -0.180764
H7    H     H_    0.967478 0.139424 0.602691 0.128214
H8    H     H_    0.032522 0.860576 0.397309 0.128214
H9    H     H_    0.879068 0.083122 0.683838 0.121738
H10   H     H_    0.120932 0.916878 0.316162 0.121738
H11   H     H_    0.053252 0.138261 0.506495 0.145659
H12   H     H_    0.946748 0.861739 0.493505 0.145659
C43   C     C_R   0.489598 0.585913 0.836236 -0.042146
C44   C     C_R   0.510403 0.414087 0.163764 -0.042145
C45   C     C_R   0.601938 0.470218 0.838160 -0.161011
C46   C     C_R   0.398074 0.529783 0.161840 -0.161011
C47   C     C_R   0.563300 0.527152 0.808663 -0.165451
C48   C     C_R   0.436711 0.472849 0.191338 -0.165451
C49   C     C_R   0.455467 0.587444 0.894295 -0.216500
C50   C     C_R   0.544527 0.412555 0.105704 -0.216499
C51   C     C_R   0.498559 0.530302 0.925882 0.085898
C52   C     C_R   0.501441 0.469698 0.074117 0.085898
C53   C     C_R   0.572154 0.471380 0.896247 0.138091
C54   C     C_R   0.427852 0.528620 0.103753 0.138091
C55   C     C_R   0.474874 0.529733 0.985642 0.057490
C56   C     C_R   0.525125 0.470267 0.014358 0.057490
C57   C     C_R   0.596500 0.413328 0.982322 -0.186994
C58   C     C_R   0.403503 0.586672 0.017678 -0.186994
C59   C     C_R   0.618816 0.414033 0.924664 -0.198914
C60   C     C_R   0.381192 0.585968 0.075336 -0.198914
H13   H     H_    0.675085 0.369030 0.902028 0.125978
H14   H     H_    0.324928 0.630971 0.097973 0.125978
H15   H     H_    0.598103 0.365530 0.086467 0.095551
H16   H     H_    0.401881 0.634469 0.913532 0.095553
H17   H     H_    0.407302 0.474402 0.235868 0.105218
H18   H     H_    0.592714 0.525600 0.764132 0.105219
H19   H     H_    0.659075 0.425338 0.815581 0.115705
H20   H     H_    0.340944 0.574664 0.184419 0.115705
H21   H     H_    0.637636 0.366970 0.000568 0.123805
H22   H     H_    0.362371 0.633030 0.999432 0.123805
C61   C     C_R   0.685184 0.074050 0.103820 -0.209732
C62   C     C_R   0.314816 0.925950 0.896180 -0.209732
C63   C     C_R   0.529951 0.118969 0.116244 -0.074991
C64   C     C_R   0.470049 0.881030 0.883756 -0.074991
C65   C     C_R   0.362847 0.115939 0.081697 -0.192862
C66   C     C_R   0.637153 0.884061 0.918303 -0.192862
C67   C     C_R   0.350886 0.069319 0.034956 0.092537
C68   C     C_R   0.649113 0.930681 0.965044 0.092537
C69   C     C_R   0.506082 0.023864 0.023256 0.056141
C70   C     C_R   0.493918 0.976136 0.976743 0.056141
C71   C     C_R   0.673310 0.025997 0.058030 0.089482
C72   C     C_R   0.326690 0.974002 0.941970 0.089482
C73   C     C_R   0.186457 0.067349 0.999632 -0.193051
C74   C     C_R   0.813543 0.932651 0.000368 -0.193051
C75   C     C_R   0.174633 0.020216 0.953511 -0.175041
C76   C     C_R   0.825367 0.979784 0.046489 -0.175041
H23   H     H_    0.813793 0.075616 0.130456 0.138982
H24   H     H_    0.186207 0.924384 0.869544 0.138982
H25   H     H_    0.242805 0.150480 0.090802 0.123183
H26   H     H_    0.757195 0.849520 0.909197 0.123183
H27   H     H_    0.066207 0.102028 0.007872 0.133406
H28   H     H_    0.933793 0.897971 0.992128 0.133406
H29   H     H_    0.306545 0.424249 0.369936 0.120493
H30   H     H_    0.693455 0.575751 0.630064 0.120493
H31   H     H_    0.045687 0.019610 0.927069 0.153176
H32   H     H_    0.954313 0.980390 0.072931 0.153176
C77   C     C_1   0.901503 0.150970 0.415812 0.276998
N1    N     N_1   0.823141 0.199958 0.432586 -0.371987
C78   C     C_1   0.098497 0.849030 0.584188 0.276998
N2    N     N_1   0.176859 0.800042 0.567414 -0.371987
C79   C     C_1   0.152363 0.017812 0.250994 0.285083
N3    N     N_1   0.193071 0.013305 0.204051 -0.370798
C80   C     C_1   0.847637 0.982188 0.749006 0.285083
N4    N     N_1   0.806928 0.986695 0.795949 -0.370798

loop_
_geom_bond_atom_site_label_1
_geom_bond_atom_site_label_2
_ccdc_geom_bond_type
C4    C63   S    
C14   C16   A    
C33   C35   A    
C47   H18   S    
C25   C29   A    
C40   H12   S    
O13   V3    S    
C17   C18   A    
C39   H11   S    
C61   H23   S    
C6    C26   S    
C44   C48   A    
V1    O19   S    
C66   C68   A    
C28   H10   S    
C78   N2    T    
C15   C17   A    
C24   H6    S    
O9    V1    S    
C34   C38   A    
C32   C77   S    
C11   C13   A    
C75   H31   S    
O3    C1    A    
C63   C65   A    
V2    O20   S    
C74   H28   S    
C50   C52   A    
C27   C29   A    
C21   H3    S    
C28   C30   A    
C69   C70   A    
C22   H4    S    
C31   C33   A    
O7    V1    S    
C21   C23   A    
C39   C41   A    
O7    C3    A    
C32   C34   A    
C57   H21   S    
C67   C73   A    
C28   C36   A    
C36   C42   A    
C52   C56   A    
C8    C11   S    
O8    V2    S    
C38   C39   A    
C69   C71   A    
C60   H14   S    
C65   H25   S    
C44   C50   A    
O3    V1    S    
O14   V4    S    
C19   C24   A    
C66   H26   S    
C20   C23   A    
O4    C2    A    
C30   C79   S    
C23   H5    S    
C45   C53   A    
O16   C6    A    
C49   C51   A    
C5    C25   S    
C2    O12   A    
O5    C7    A    
C48   H17   S    
C17   C19   A    
C18   C20   A    
C62   H24   S    
C76   H32   S    
C45   C47   A    
C74   C76   A    
O11   V3    S    
C22   C24   A    
C73   C75   A    
O17   V3    S    
C13   C15   A    
C33   C37   A    
C51   C55   A    
C37   C38   A    
C9    C19   A    
C62   C72   A    
C10   C20   A    
C42   H8    S    
O8    C4    A    
C55   C56   A    
C41   H7    S    
O13   V1    S    
C1    O11   A    
C35   C41   A    
O15   V3    S    
C26   C30   A    
C72   C75   A    
C34   C36   A    
C53   C59   A    
C16   C22   A    
C71   C76   A    
C3    C64   S    
C13   H1    S    
C29   C80   S    
O10   V2    S    
O1    V3    S    
C65   C67   A    
C58   C60   A    
C50   H15   S    
C70   C72   A    
C14   H2    S    
C52   C54   A    
O18   V4    S    
C46   C48   A    
O15   C5    A    
C77   N1    T    
C26   C32   A    
O1    C3    A    
C43   C49   A    
C31   C78   S    
C1    C43   S    
C45   H19   S    
C9    H29   S    
C58   H22   S    
O16   V4    S    
C27   C35   A    
C16   C18   A    
C68   C70   A    
C80   N4    T    
C59   H13   S    
C54   C60   A    
O5    V1    S    
O4    V2    S    
C7    C12   S    
O17   C7    A    
O6    V2    S    
C79   N3    T    
O10   C6    A    
O18   C8    A    
C46   C54   A    
C15   C21   A    
O2    V4    S    
C37   C40   A    
C27   H9    S    
C12   C14   A    
V3    O19   S    
C49   H16   S    
C55   C58   A    
V4    O20   S    
C61   C63   A    
C25   C31   A    
O9    C5    A    
C56   C57   A    
C9    C11   A    
C10   C12   A    
C62   C64   A    
O14   V2    S    
O2    C4    A    
C64   C66   A    
C43   C47   A    
O6    C8    A    
C10   H30   S    
C57   C59   A    
C2    C44   S    
C51   C53   A    
C46   H20   S    
C40   C42   A    
O12   V4    S    
C61   C71   A    
C68   C74   A    
C67   C69   A    
C73   H27   S    
