data_mof_unit_49482.cif
_audit_creation_date              2012-10-26T18:51:50-0400
_audit_creation_method            fapswitch 2.2
_symmetry_space_group_name_H-M    P1
_symmetry_Int_Tables_number       1
_space_group_crystal_system       triclinic
_cell_length_a                    11.698126
_cell_length_b                    14.748786
_cell_length_c                    14.722397
_cell_angle_alpha                 65.141552
_cell_angle_beta                  103.113954
_cell_angle_gamma                 102.956399
_cell_volume                      2220.67045936

loop_
_atom_site_label
_atom_site_type_symbol
_atom_type_description
_atom_site_fract_x
_atom_site_fract_y
_atom_site_fract_z
_atom_type_partial_charge
C1    C     C_R   0.481153 0.119615 0.312358 0.536858
C2    C     C_R   0.589502 0.613268 0.099084 -0.136230
C3    C     C_R   0.694469 0.284674 0.667597 -0.154400
C4    C     C_R   0.303318 0.716152 0.332372 -0.155087
C5    C     C_R   0.661125 0.201636 0.641152 0.047725
C6    C     C_R   0.337393 0.798625 0.359683 0.047774
C7    C     C_R   0.518645 0.286315 0.506586 0.078892
C8    C     C_R   0.481781 0.713718 0.491972 0.084392
C9    C     C_R   0.541673 0.370963 0.534154 0.002919
C10   C     C_R   0.459016 0.630496 0.462173 0.006068
C11   C     C_R   0.636784 0.370037 0.613158 -0.011239
C12   C     C_R   0.520441 0.880359 0.687625 0.538233
C13   C     C_R   0.362502 0.631505 0.384404 -0.014726
C14   C     C_R   0.478658 0.457036 0.484723 -0.012996
C15   C     C_R   0.523109 0.545186 0.509448 -0.008637
C16   C     C_R   0.284145 0.000231 0.499843 0.545792
C17   C     C_R   0.715813 0.000085 0.499698 0.547623
C18   C     C_R   0.630375 0.545590 0.579375 0.247831
C19   C     C_R   0.372762 0.458374 0.412586 0.248897
C20   C     C_R   0.680313 0.456021 0.633585 -0.114771
C21   C     C_R   0.319793 0.546354 0.362552 -0.107079
C22   C     C_1   0.162453 0.000756 0.499410 -0.019922
C23   C     C_R   0.476611 0.321136 0.002452 0.050780
C24   C     C_1   0.837443 0.000409 0.499078 -0.024290
C25   C     C_1   0.059893 0.000906 0.499064 -0.039111
C26   C     C_1   0.939992 0.000742 0.498892 -0.043217
C27   C     C_R   0.475594 0.187338 0.204938 -0.004341
C28   C     C_R   0.537509 0.812494 0.795009 -0.006447
C29   C     C_R   0.452545 0.216430 0.027905 -0.134101
C30   C     C_R   0.593243 0.783267 0.972430 -0.133876
C31   C     C_R   0.452821 0.149835 0.128670 -0.136851
C32   C     C_R   0.576255 0.849919 0.871515 -0.136966
C33   C     C_R   0.497779 0.291707 0.179387 -0.138886
C34   C     C_R   0.573354 0.678585 0.997840 0.050824
C35   C     C_R   0.516895 0.708106 0.820403 -0.142420
C36   C     C_R   0.502105 0.360496 0.078854 0.031230
C37   C     C_R   0.537019 0.639276 0.921232 0.030580
C38   C     C_3   0.749528 0.629806 0.679620 -0.032401
C39   C     C_3   0.778893 0.734492 0.682449 -0.365947
C40   C     C_3   0.289054 0.379329 0.301530 -0.031047
C41   C     C_3   0.237903 0.276685 0.296832 -0.368208
C42   C     C_R   0.529139 0.466925 0.052184 0.030396
C43   C     C_R   0.519710 0.532832 0.948011 0.031445
C44   C     C_R   0.495359 0.490140 0.874308 -0.145158
C45   C     C_R   0.567378 0.509576 0.126094 -0.147123
C46   C     C_R   0.475360 0.386429 0.901406 -0.136039
Cu1   Cu    Cu3+1 0.469550 0.918260 0.475690 0.937432
Cu2   Cu    Cu3+1 0.530450 0.081740 0.524310 0.937462
H1    H     H_    0.457610 0.357147 0.842449 0.113454
H2    H     H_    0.584548 0.465159 0.206047 0.101911
H3    H     H_    0.760295 0.454520 0.687821 0.098108
H4    H     H_    0.237860 0.546401 0.310633 0.109183
H5    H     H_    0.540819 0.713973 0.559029 0.176110
H6    H     H_    0.459788 0.284376 0.440385 0.178200
H7    H     H_    0.292866 0.864508 0.319121 0.126058
H8    H     H_    0.705019 0.135523 0.683093 0.124440
H9    H     H_    0.766226 0.282754 0.729371 0.093363
H10   H     H_    0.230413 0.718184 0.271417 0.093707
H11   H     H_    0.834909 0.599860 0.699532 0.143167
H12   H     H_    0.618690 0.642530 0.158227 0.114055
H13   H     H_    0.690696 0.581512 0.737431 0.118890
H14   H     H_    0.696744 0.767460 0.666519 0.162395
H15   H     H_    0.825534 0.729429 0.758693 0.100376
H16   H     H_    0.837373 0.784588 0.625406 0.173264
H17   H     H_    0.373069 0.407254 0.268393 0.114890
H18   H     H_    0.222976 0.430613 0.254036 0.134543
H19   H     H_    0.152944 0.247808 0.328073 0.168406
H20   H     H_    0.221267 0.283702 0.216983 0.100946
H21   H     H_    0.300645 0.221775 0.341004 0.170210
H22   H     H_    0.482660 0.682295 0.759880 0.121373
H23   H     H_    0.509705 0.317457 0.239613 0.113824
H24   H     H_    0.592983 0.930420 0.853500 0.126681
H25   H     H_    0.435503 0.069311 0.146794 0.128755
H26   H     H_    0.433917 0.186062 0.969759 0.108882
H27   H     H_    0.622026 0.813573 0.030768 0.108722
H28   H     H_    0.493875 0.534521 0.794521 0.096900
N1    N     N_R   0.576230 0.204580 0.560790 -0.243818
N2    N     N_R   0.423770 0.795420 0.439210 -0.243722
O1    O     O_R   0.459870 0.022090 0.338120 -0.504887
O2    O     O_3   0.309174 0.370054 0.403634 -0.570404
O3    O     O_R   0.540130 0.977910 0.661880 -0.504004
O4    O     O_R   0.511290 0.160150 0.379180 -0.525198
O5    O     O_R   0.488710 0.839850 0.620820 -0.524450
O6    O     O_R   0.311490 0.930960 0.479480 -0.494379
O7    O     O_R   0.688510 0.069040 0.520520 -0.492554
O8    O     O_R   0.362910 0.069020 0.520540 -0.489074
O9    O     O_R   0.637090 0.930980 0.479460 -0.487356
O10   O     O_3   0.695158 0.636945 0.580863 -0.572604

loop_
_geom_bond_atom_site_label_1
_geom_bond_atom_site_label_2
_ccdc_geom_bond_type
C15   C18   A    
C16   O8    A    
C34   C37   A    
C5    H8    S    
C36   C42   A    
Cu1   O1    S    
C6    H7    S    
C43   C44   A    
C32   H24   S    
C27   C33   A    
C39   H16   S    
C46   H1    S    
C12   C28   S    
C17   O7    A    
C23   C29   A    
C19   C21   A    
C24   C26   T    
C20   H3    S    
C10   C15   A    
C38   C39   S    
C2    H12   S    
C31   H25   S    
C16   O6    A    
C33   C36   A    
Cu2   O3    S    
C6    N2    A    
C4    C13   A    
C44   H28   S    
C35   H22   S    
C22   C25   T    
C40   O2    S    
Cu1   O5    S    
C7    N1    A    
C38   H13   S    
C2    C34   A    
C23   C46   A    
C40   H18   S    
C8    N2    A    
C44   C46   A    
C41   H20   S    
C2    C45   A    
C11   C20   A    
C17   C24   S    
C30   C34   A    
C27   C31   A    
C28   C32   A    
C41   H19   S    
C4    C6    A    
C29   H26   S    
C25   C26   S    
C18   O10   S    
C12   O5    A    
C38   O10   S    
C42   C45   A    
Cu1   O9    S    
Cu2   N1    S    
C37   C43   A    
C9    C14   A    
Cu1   Cu2   S    
C13   C21   A    
Cu1   O6    S    
C9    C11   A    
C3    H9    S    
C40   C41   S    
C40   H17   S    
C1    O1    A    
Cu2   O8    S    
C42   C43   A    
C5    N1    A    
C41   H21   S    
C7    C9    A    
C39   H14   S    
C16   C22   S    
C35   C37   A    
C17   O9    A    
C14   C19   A    
Cu2   O7    S    
C3    C5    A    
C10   C13   A    
C8    H5    S    
C39   H15   S    
C7    H6    S    
C1    O4    A    
C29   C31   A    
C30   C32   A    
C30   H27   S    
C45   H2    S    
Cu2   O4    S    
C12   O3    A    
C18   C20   A    
C19   O2    S    
C3    C11   A    
C33   H23   S    
C38   H11   S    
C8    C10   A    
C23   C36   A    
C4    H10   S    
C1    C27   S    
C14   C15   A    
Cu1   N2    S    
C28   C35   A    
C21   H4    S    
