data_mof_unit_11862.cif
_audit_creation_date              2013-03-05T15:43:51-0500
_audit_creation_method            fapswitch 2.2
_symmetry_space_group_name_H-M    P1
_symmetry_Int_Tables_number       1
_space_group_crystal_system       triclinic
_cell_length_a                    13.477344
_cell_length_b                    13.475648
_cell_length_c                    27.48449
_cell_angle_alpha                 90.588227
_cell_angle_beta                  90.251186
_cell_angle_gamma                 60.006152
_cell_volume                      4322.90961624

loop_
_atom_site_label
_atom_site_type_symbol
_atom_site_description
_atom_site_fract_x
_atom_site_fract_y
_atom_site_fract_z
_atom_type_partial_charge
O1    O     O_R   0.301710 0.195650 0.554160 -0.473796
O2    O     O_R   0.522390 0.158990 0.550460 -0.492884
C1    C     C_R   0.619861 0.100592 0.570650 0.559213
O3    O     O_R   0.694390 0.003530 0.554040 -0.466543
O4    O     O_R   0.657700 0.819660 0.549320 -0.479350
C2    C     C_R   0.599969 0.778939 0.568543 0.549328
O5    O     O_R   0.501930 0.803280 0.552920 -0.497757
O6    O     O_R   0.318170 0.023580 0.549580 -0.491372
C3    C     C_R   0.278776 0.121454 0.569887 0.556393
O7    O     O_R   0.303010 0.193990 0.446760 -0.464978
O8    O     O_R   0.523600 0.157450 0.450900 -0.492636
C4    C     C_R   0.599555 0.071403 0.425402 0.541316
O9    O     O_R   0.695690 0.001860 0.446640 -0.478721
O10   O     O_R   0.658900 0.818120 0.449760 -0.517112
C5    C     C_R   0.600540 0.777695 0.429808 0.537270
O11   O     O_R   0.503220 0.801620 0.445520 -0.488811
O12   O     O_R   0.319370 0.022040 0.450020 -0.449866
C6    C     C_R   0.274995 0.122364 0.431443 0.581492
Cr1   Cr    Cr6+3 0.417550 0.169090 0.500530 1.106772
Cr2   Cr    Cr6+3 0.669180 0.913420 0.499920 1.097306
Cr3   Cr    Cr6+3 0.413260 0.917540 0.499520 1.110497
O13   O     O_3   0.499990 0.000010 0.499990 -0.311626
C7    C     C_3   0.768693 0.589929 0.736023 0.268192
C8    C     C_3   0.758626 0.679779 0.773950 -0.025480
H1    H     H_    0.830094 0.690575 0.787922 0.205752
H2    H     H_    0.633368 0.858700 0.737020 0.173713
C9    C     C_1   0.697568 0.606781 0.899723 0.039767
C10   C     C_1   0.631411 0.730763 0.615944 0.037647
C11   C     C_3   0.692999 0.559784 0.767459 -0.104588
C12   C     C_3   0.681026 0.651404 0.804808 0.007943
C13   C     C_3   0.584990 0.652593 0.740927 -0.157955
C14   C     C_3   0.662144 0.681002 0.710042 0.030473
C15   C     C_3   0.573242 0.743559 0.778953 -0.093590
C16   C     C_3   0.650467 0.772141 0.747277 -0.083418
C17   C     C_1   0.689451 0.631571 0.857335 0.010849
C18   C     C_1   0.648853 0.702913 0.657871 0.022737
H3    H     H_    0.492666 0.807054 0.797285 0.165837
H4    H     H_    0.513903 0.641425 0.726742 0.146254
H5    H     H_    0.711124 0.472060 0.776162 0.169068
C19   C     C_3   0.097665 0.146382 0.738703 0.239069
C20   C     C_3   0.179488 0.060121 0.776427 -0.080096
H6    H     H_    0.179814 0.981730 0.788680 0.186592
H7    H     H_    0.365824 0.990041 0.742916 0.149210
C21   C     C_1   0.100773 0.198885 0.902821 0.051488
C22   C     C_1   0.237341 0.135336 0.618671 0.063232
C23   C     C_3   0.073519 0.249255 0.771700 -0.032660
C24   C     C_3   0.158483 0.163141 0.809017 -0.022059
C25   C     C_3   0.175591 0.250499 0.747517 0.195473
C26   C     C_3   0.196529 0.150568 0.713971 -0.000258
C27   C     C_3   0.259711 0.167735 0.785419 -0.109905
C28   C     C_3   0.280816 0.065091 0.751676 -0.181545
C29   C     C_1   0.131998 0.177603 0.861102 0.028910
C30   C     C_1   0.215247 0.143208 0.661366 0.057353
H8    H     H_    0.324489 0.180316 0.805248 0.185579
H9    H     H_    0.989190 0.325009 0.780490 0.199415
C31   C     C_3   0.657462 0.253524 0.741577 -0.120587
C32   C     C_3   0.558890 0.274603 0.777273 -0.175083
H10   H     H_    0.487470 0.359639 0.788771 0.168174
H11   H     H_    0.669001 0.320325 0.723449 0.169474
H12   H     H_    0.462271 0.185629 0.739704 0.160494
C33   C     C_1   0.684234 0.205983 0.905289 0.065881
C34   C     C_1   0.633097 0.129251 0.619815 0.051251
C35   C     C_3   0.743931 0.161656 0.776511 0.230966
C36   C     C_3   0.647473 0.182902 0.811851 -0.008885
C37   C     C_3   0.731325 0.067746 0.750592 0.215327
C38   C     C_3   0.643753 0.158238 0.715699 -0.034605
C39   C     C_3   0.634554 0.089420 0.785616 0.187979
C40   C     C_3   0.544582 0.179272 0.750737 -0.144590
C41   C     C_1   0.661841 0.194555 0.863962 0.058354
C42   C     C_1   0.639396 0.145215 0.662722 0.041174
C43   C     C_R   0.734260 0.696136 0.359252 -0.107881
C44   C     C_R   0.748174 0.678679 0.308703 0.014044
C45   C     C_R   0.767634 0.652874 0.207063 -0.031832
C46   C     C_R   0.863971 0.627432 0.235454 -0.055007
C47   C     C_R   0.854654 0.641674 0.285907 0.213139
C48   C     C_R   0.778826 0.631071 0.157335 -0.119033
H13   H     H_    0.863505 0.591354 0.141178 0.198817
H14   H     H_    0.804121 0.686531 0.382078 0.199809
H15   H     H_    0.946846 0.596338 0.218408 0.205385
C49   C     C_R   0.684477 0.646112 0.129786 0.002810
C50   C     C_R   0.535418 0.744606 0.351689 -0.111699
C51   C     C_R   0.545028 0.736003 0.301767 0.010179
C52   C     C_R   0.651296 0.702605 0.279857 0.028377
C53   C     C_R   0.447881 0.765522 0.273599 -0.108777
C54   C     C_R   0.455171 0.761817 0.223336 -0.062431
C55   C     C_R   0.561719 0.721177 0.200479 0.012762
C56   C     C_R   0.660129 0.692922 0.229081 0.009202
C57   C     C_R   0.573522 0.702568 0.150043 0.201299
C58   C     C_R   0.627386 0.731265 0.380458 -0.018405
H16   H     H_    0.377406 0.787588 0.202947 0.201402
H17   H     H_    0.365888 0.792392 0.290569 0.146576
H18   H     H_    0.451998 0.772242 0.367595 0.187553
C59   C     C_R   0.194177 0.066544 0.359839 0.174245
C60   C     C_R   0.174839 0.076412 0.309150 0.016096
C61   C     C_R   0.150900 0.090177 0.206673 0.012413
C62   C     C_R   0.147532 0.002239 0.232384 -0.105157
C63   C     C_R   0.158625 0.995904 0.282723 -0.112766
C64   C     C_R   0.132984 0.101277 0.156081 0.187767
H19   H     H_    0.134396 0.938220 0.214172 0.213896
H20   H     H_    0.154992 0.926518 0.300434 0.196088
C65   C     C_R   0.121391 0.199660 0.132580 0.001713
C66   C     C_R   0.188947 0.250298 0.360394 0.192216
C67   C     C_R   0.185800 0.252280 0.309646 0.016314
C68   C     C_R   0.176729 0.166317 0.283825 -0.002513
C69   C     C_R   0.196341 0.336137 0.284140 -0.071056
C70   C     C_R   0.193409 0.337952 0.233824 -0.096338
C71   C     C_R   0.173295 0.259890 0.207568 -0.017026
C72   C     C_R   0.166576 0.172278 0.232635 -0.003088
C73   C     C_R   0.155990 0.270148 0.157098 0.157952
C74   C     C_R   0.211223 0.149199 0.384835 0.020165
H21   H     H_    0.204165 0.403167 0.216063 0.216213
H22   H     H_    0.210537 0.399141 0.302685 0.213327
C75   C     C_R   0.532524 0.202897 0.354094 -0.115250
C76   C     C_R   0.540545 0.224170 0.305043 -0.019776
C77   C     C_R   0.567529 0.269784 0.207913 0.017980
C78   C     C_R   0.486023 0.357853 0.238286 0.240805
C79   C     C_R   0.472195 0.334046 0.286248 -0.098195
C80   C     C_R   0.591699 0.293439 0.161398 -0.124756
H23   H     H_    0.553051 0.380961 0.148964 0.212953
H24   H     H_    0.470663 0.271881 0.377056 0.164040
H25   H     H_    0.410136 0.402600 0.309325 0.162849
C81   C     C_R   0.670960 0.205016 0.131465 -0.014229
C82   C     C_R   0.683629 0.005444 0.343458 -0.115939
C83   C     C_R   0.690613 0.025006 0.294139 -0.019082
C84   C     C_R   0.620219 0.134900 0.274792 0.043821
C85   C     C_R   0.770752 0.937174 0.264595 -0.102063
C86   C     C_R   0.782224 0.955580 0.215694 0.260892
C87   C     C_R   0.710709 0.065373 0.195076 0.029875
C88   C     C_R   0.632051 0.156382 0.225729 -0.048798
C89   C     C_R   0.718161 0.090073 0.145901 0.269510
C90   C     C_R   0.606277 0.094363 0.373792 0.000384
H26   H     H_    0.828646 0.854701 0.280239 0.180250
H27   H     H_    0.738617 0.920915 0.358340 0.144961
O14   O     O_R   0.818720 0.150820 0.967160 -0.463533
O15   O     O_R   0.006410 0.181720 0.970200 -0.480548
C91   C     C_R   0.049822 0.235855 0.949999 0.554790
O16   O     O_R   0.027890 0.334070 0.964920 -0.490084
O17   O     O_R   0.809600 0.521790 0.967960 -0.487081
C92   C     C_R   0.711542 0.562837 0.948060 0.559682
O18   O     O_R   0.635520 0.542770 0.964420 -0.487131
O19   O     O_R   0.665950 0.325030 0.970100 -0.503594
C93   C     C_R   0.720726 0.224980 0.951611 0.557563
O20   O     O_R   0.816620 0.158530 0.074540 -0.428206
O21   O     O_R   0.004460 0.188870 0.069750 -0.451987
C94   C     C_R   0.052270 0.242509 0.087527 0.575118
O22   O     O_R   0.025800 0.341780 0.072300 -0.453184
O23   O     O_R   0.807650 0.528950 0.067500 -0.504250
C95   C     C_R   0.707030 0.577630 0.085365 0.567353
O24   O     O_R   0.633420 0.550490 0.071810 -0.446108
O25   O     O_R   0.664000 0.332180 0.069640 -0.504878
C96   C     C_R   0.717029 0.232464 0.088442 0.564375
Cr4   Cr    Cr6+3 0.909170 0.177380 0.020380 1.178363
Cr5   Cr    Cr6+3 0.912710 0.429210 0.018220 1.131577
Cr6   Cr    Cr6+3 0.657170 0.432570 0.019030 1.124290
O26   O     O_3   0.826350 0.346390 0.019210 -0.306638
N1    N     N_R   0.174641 0.354638 0.732984 0.113940
O27   O     O_R   0.155415 0.433367 0.765325 -0.284078
O28   O     O_R   0.195234 0.368637 0.688158 -0.271709
N2    N     N_R   0.623368 0.001607 0.811361 0.076494
O29   O     O_R   0.705451 0.930639 0.839595 -0.277029
O30   O     O_R   0.527086 0.001420 0.810352 -0.401840
N3    N     N_R   0.825251 0.954703 0.736930 0.119194
O31   O     O_R   0.890792 0.884520 0.770276 -0.221970
O32   O     O_R   0.841777 0.921795 0.691607 -0.281738
N4    N     N_R   0.849905 0.154665 0.793145 0.115289
O33   O     O_R   0.849507 0.249144 0.803613 -0.396379
O34   O     O_R   0.930627 0.058996 0.810945 -0.262115
Cl1   Cl    Cl    0.895695 0.490780 0.704693 -0.477261
Cl2   Cl    Cl    0.978211 0.614065 0.318755 -0.551788
N5    N     N_R   0.475137 0.733484 0.119798 0.088632
O35   O     O_R   0.457822 0.796785 0.081754 -0.267224
O36   O     O_R   0.414740 0.683394 0.125359 -0.244001
Cl3   Cl    Cl    0.127190 0.990967 0.122457 -0.450159
Cl4   Cl    Cl    0.194727 0.952512 0.391777 -0.569296
N6    N     N_R   0.170935 0.353498 0.130844 0.092998
O37   O     O_R   0.101483 0.462474 0.138108 -0.312095
O38   O     O_R   0.244557 0.320404 0.095343 -0.269625
Cl5   Cl    Cl    0.159216 0.377284 0.392801 -0.494066
Cl6   Cl    Cl    0.399844 0.499931 0.218200 -0.538316
Cl7   Cl    Cl    0.768508 0.982403 0.099927 -0.418536
Cl8   Cl    Cl    0.901799 0.842314 0.186124 -0.452999
N7    N     N_R   0.010941 0.134756 0.711559 0.117088
O39   O     O_R   0.015742 0.036038 0.708955 -0.249068
O40   O     O_R   0.937101 0.219050 0.685083 -0.277674

loop_
_geom_bond_atom_site_label_1
_geom_bond_atom_site_label_2
_geom_bond_distance
_ccdc_geom_bond_type
C21   C91   1.433048 S    
C38   C40   1.555946 S    
C35   C37   1.527492 S    
C3    C22   1.428830 S    
N4    O33   1.299790 A    
C4    C90   1.467705 S    
C20   H6    1.109954 S    
C52   C56   1.400337 A    
C61   C62   1.406038 A    
C87   C88   1.422818 A    
C26   C28   1.548244 S    
C50   C51   1.376997 A    
C32   H10   1.109920 S    
C61   C64   1.406887 A    
C82   C83   1.396065 A    
N6    O38   1.300998 A    
O4    Cr2   1.922568 S    
C54   C55   1.403990 A    
C78   C79   1.394972 A    
C19   C23   1.541386 S    
C65   C94   1.483650 S    
C85   C86   1.392420 A    
C12   C17   1.464486 S    
C82   H27   1.084862 S    
C14   C18   1.459084 S    
N1    O27   1.300227 A    
N3    O31   1.300047 A    
N2    O29   1.300203 A    
C80   C81   1.397408 A    
O4    C2    1.273598 A    
C31   C38   1.551153 S    
O19   Cr6   1.926803 S    
O14   C93   1.268785 A    
C70   C71   1.403077 A    
C65   C73   1.414476 A    
C5    O11   1.260988 A    
C62   H19   1.081294 S    
C59   Cl4   1.774304 S    
C31   C32   1.560947 S    
C34   C42   1.206783 T    
C45   C46   1.401317 A    
C79   H25   1.084134 S    
C80   H23   1.082429 S    
C45   C56   1.405682 A    
N7    O39   1.300374 A    
C50   H18   1.084511 S    
H2    C16   1.109321 S    
C2    C10   1.426809 S    
O23   C95   1.272873 A    
O6    C3    1.272913 A    
C37   C39   1.528818 S    
C37   N3    1.458898 S    
C47   Cl2   1.760889 S    
C7    C8    1.543413 S    
N2    O30   1.299066 A    
C53   H17   1.082021 S    
Cr5   O26   1.975000 S    
N3    O32   1.300146 A    
O9    Cr2   2.039254 S    
C59   C74   1.415659 A    
C50   C58   1.401918 A    
C21   C29   1.204524 T    
C25   C27   1.537433 S    
C25   N1    1.456907 S    
O21   Cr4   1.921903 S    
C60   C68   1.414670 A    
N4    O34   1.300366 A    
Cr3   O13   1.974816 S    
C11   C13   1.550522 S    
C71   C73   1.402345 A    
C44   C47   1.409477 A    
O12   C6    1.284208 A    
C24   C27   1.542332 S    
C19   N7    1.456120 S    
C70   H21   1.080933 S    
C23   C25   1.538117 S    
O1    Cr1   2.046660 S    
C57   N5    1.438031 S    
C46   C47   1.395510 A    
C39   C40   1.549551 S    
C76   C79   1.398414 A    
C36   C39   1.528627 S    
O10   Cr2   1.925852 S    
O15   C91   1.273042 A    
Cr1   O13   1.973444 S    
O1    C3    1.265341 A    
C8    H1    1.109993 S    
O17   C92   1.273034 A    
C64   Cl3   1.776807 S    
C55   C56   1.419211 A    
C91   O16   1.267284 A    
C60   C63   1.404210 A    
C27   C28   1.561053 S    
O5    Cr3   2.035746 S    
C8    C16   1.551399 S    
C1    O3    1.267413 A    
C35   C36   1.532521 S    
C87   C89   1.411183 A    
C14   C16   1.537129 S    
C23   H9    1.108834 S    
O24   Cr6   2.044518 S    
C11   C12   1.542831 S    
C5    C58   1.456911 S    
C75   H24   1.084076 S    
N6    O37   1.301487 A    
C43   C58   1.399445 A    
Cr4   O26   1.973202 S    
C85   H26   1.081064 S    
O7    Cr1   2.037620 S    
C92   O18   1.268311 A    
C77   C80   1.399270 A    
O14   Cr4   2.040471 S    
C62   C63   1.389854 A    
C11   H5    1.109470 S    
C13   C15   1.549535 S    
C15   C16   1.550863 S    
C20   C24   1.547095 S    
C31   C35   1.544251 S    
O16   Cr5   2.047187 S    
C67   C69   1.402218 A    
C59   C60   1.411538 A    
C27   H8    1.108977 S    
C36   C41   1.461801 S    
C53   C54   1.384012 A    
H12   C40   1.110177 S    
Cr6   O26   1.974872 S    
C24   C29   1.464196 S    
C89   Cl7   1.774184 S    
O17   Cr5   1.918577 S    
C25   C26   1.529686 S    
C69   H22   1.081627 S    
Cr2   O13   1.975044 S    
C37   C38   1.541057 S    
C51   C53   1.395889 A    
C46   H15   1.084079 S    
O25   Cr6   1.920014 S    
C66   Cl5   1.780017 S    
C45   C48   1.387946 A    
C66   C74   1.416186 A    
C8    C12   1.540627 S    
C9    C92   1.433019 S    
C32   C40   1.564170 S    
C86   C87   1.423301 A    
C64   C65   1.417358 A    
C7    C11   1.543204 S    
C94   O22   1.274762 A    
C68   C72   1.412177 A    
C63   H20   1.081176 S    
C32   C36   1.547461 S    
C83   C85   1.391616 A    
C75   C76   1.396982 A    
C77   C88   1.419235 A    
C1    C34   1.436312 S    
C33   C41   1.201997 T    
C76   C84   1.409685 A    
C23   C24   1.547710 S    
C19   C20   1.541222 S    
C75   C90   1.406505 A    
C12   C15   1.537130 S    
C82   C90   1.398527 A    
O2    Cr1   1.921657 S    
O10   C5    1.278512 A    
C13   C14   1.536468 S    
C48   C49   1.402963 A    
O21   C94   1.277516 A    
O6    Cr3   1.929115 S    
C54   H16   1.080744 S    
C73   N6    1.437672 S    
O11   Cr3   2.046330 S    
C2    O5    1.265864 A    
C86   Cl8   1.764660 S    
C69   C70   1.383416 A    
C31   H11   1.110243 S    
C9    C17   1.204642 T    
C81   C96   1.471584 S    
C13   H4    1.110040 S    
N1    O28   1.300248 A    
O2    C1    1.273533 A    
C43   C44   1.404346 A    
C49   C57   1.409291 A    
O19   C93   1.270850 A    
C7    C14   1.524840 S    
C48   H13   1.083950 S    
H7    C28   1.110096 S    
C19   C26   1.524608 S    
C38   C42   1.469237 S    
O22   Cr5   2.034971 S    
N5    O36   1.301593 A    
O7    C6    1.267281 A    
C26   C30   1.462569 S    
O20   C96   1.264847 A    
C81   C89   1.409443 A    
C15   H3    1.110057 S    
C55   C57   1.401653 A    
C95   O24   1.270232 A    
O8    Cr1   1.927854 S    
C66   C67   1.395357 A    
O23   Cr5   1.929389 S    
N7    O40   1.300232 A    
C44   C52   1.418650 A    
C61   C72   1.412096 A    
C35   N4    1.455464 S    
C22   C30   1.202425 T    
C7    Cl1   1.777401 S    
O3    Cr2   2.042903 S    
C84   C88   1.408437 A    
C33   C93   1.428976 S    
C49   C95   1.460899 S    
C4    O9    1.299333 A    
C10   C18   1.200955 T    
C6    C74   1.483095 S    
C51   C52   1.404965 A    
N5    O35   1.300977 A    
C78   Cl6   1.764149 S    
C67   C68   1.408704 A    
O25   C96   1.278398 A    
C39   N2    1.456079 S    
O15   Cr4   1.927997 S    
C20   C28   1.559723 S    
C43   H14   1.082345 S    
O20   Cr4   2.043770 S    
C77   C78   1.412901 A    
O8    C4    1.298615 A    
O18   Cr6   2.037622 S    
C83   C84   1.408156 A    
C71   C72   1.414520 A    
O12   Cr3   1.917762 S    
