data_mof_unit_41152.cif
_audit_creation_date              2012-10-26T19:05:10-0400
_audit_creation_method            fapswitch 2.2
_symmetry_space_group_name_H-M    P1
_symmetry_Int_Tables_number       1
_space_group_crystal_system       triclinic
_cell_length_a                    15.881218
_cell_length_b                    10.867191
_cell_length_c                    9.582697
_cell_angle_alpha                 90.320153
_cell_angle_beta                  90.002871
_cell_angle_gamma                 92.522547
_cell_volume                      1652.19392236

loop_
_atom_site_label
_atom_site_type_symbol
_atom_type_description
_atom_site_fract_x
_atom_site_fract_y
_atom_site_fract_z
_atom_type_partial_charge
C1    C     C_R   0.506551 0.263032 0.500437 0.547431
C2    C     C_R   0.541863 0.063614 0.884254 -0.134104
C3    C     C_R   0.500114 0.948920 0.890560 -0.126483
C4    C     C_R   0.340250 0.499668 0.500046 0.555319
C5    C     C_R   0.477073 0.887118 0.767604 -0.098787
C6    C     C_R   0.496366 0.939288 0.635224 0.023328
C7    C     C_R   0.521700 0.065061 0.631300 0.024866
C8    C     C_R   0.513921 0.129170 0.503408 -0.010748
C9    C     C_R   0.501713 0.063083 0.378772 -0.165665
C10   C     C_R   0.494575 0.935917 0.380066 -0.167219
C11   C     C_R   0.491793 0.872224 0.506791 -0.010015
C12   C     C_3   0.949073 0.433480 0.630644 -0.213338
C13   C     C_R   0.611353 0.665011 0.145052 -0.091989
C14   C     C_R   0.665223 0.746209 0.073165 -0.180131
C15   C     C_R   0.665331 0.745940 0.929430 -0.167531
C16   C     C_R   0.495301 0.737572 0.501468 0.533236
C17   C     C_R   0.611439 0.664655 0.856726 -0.085626
C18   C     C_R   0.554645 0.581164 0.925613 0.146598
C19   C     C_R   0.554612 0.581220 0.075293 0.153591
C20   C     C_R   0.448342 0.422334 0.073439 -0.010193
C21   C     C_R   0.448358 0.422372 0.925446 -0.010968
C22   C     C_R   0.659738 0.500449 0.499966 0.535556
C23   C     C_3   0.917212 0.500942 0.500068 0.072988
C24   C     C_3   0.046665 0.433258 0.630642 -0.214077
C25   C     C_3   0.046693 0.434246 0.368015 -0.214243
C26   C     C_3   0.949103 0.434460 0.368009 -0.213044
C27   C     C_1   0.749448 0.500830 0.500008 -0.042528
C28   C     C_3   0.082728 0.500583 0.500076 0.072915
C29   C     C_3   0.955317 0.634707 0.501561 -0.215070
C30   C     C_3   0.052925 0.634496 0.501570 -0.212970
C31   C     C_1   0.825028 0.501015 0.500047 -0.080047
C32   C     C_1   0.174931 0.500305 0.500067 -0.080215
C33   C     C_1   0.250516 0.499995 0.500051 -0.041027
C34   C     C_R   0.552654 0.121758 0.755933 -0.098274
Cu1   Cu    Cu3+1 0.499990 0.499990 0.640660 0.906293
Cu2   Cu    Cu3+1 0.500010 0.500010 0.359340 0.918983
H1    H     H_    0.922658 0.336900 0.631970 0.111384
H2    H     H_    0.489854 0.887541 0.281012 0.135862
H3    H     H_    0.406043 0.358665 0.128354 0.114428
H4    H     H_    0.067052 0.336572 0.631952 0.111117
H5    H     H_    0.617487 0.672091 0.255006 0.184551
H6    H     H_    0.707524 0.809468 0.129741 0.114537
H7    H     H_    0.707546 0.809197 0.873489 0.118809
H8    H     H_    0.617070 0.672020 0.746820 0.187066
H9    H     H_    0.406097 0.358684 0.869664 0.122067
H10   H     H_    0.071552 0.481051 0.272544 0.112102
H11   H     H_    0.067083 0.337579 0.364545 0.110937
H12   H     H_    0.071507 0.479337 0.727152 0.111949
H13   H     H_    0.922694 0.337895 0.364537 0.111873
H14   H     H_    0.927154 0.481370 0.272539 0.113379
H15   H     H_    0.077875 0.684221 0.595743 0.112017
H16   H     H_    0.077898 0.684928 0.408523 0.112318
H17   H     H_    0.933452 0.684528 0.595729 0.109770
H18   H     H_    0.927107 0.479681 0.727144 0.113054
H19   H     H_    0.933476 0.685227 0.408505 0.109791
H20   H     H_    0.497703 0.109605 0.279437 0.133262
H21   H     H_    0.587033 0.209777 0.755844 0.146668
H22   H     H_    0.563744 0.109184 0.979124 0.110059
H23   H     H_    0.487188 0.906406 0.990671 0.113918
H24   H     H_    0.441600 0.800908 0.779395 0.151453
N1    N     N_R   0.500800 0.501210 0.147910 -0.242643
N2    N     N_R   0.500820 0.501290 0.852040 -0.249421
O1    O     O_R   0.499990 0.319640 0.618810 -0.509093
O2    O     O_R   0.500000 0.319660 0.381240 -0.502993
O3    O     O_R   0.379430 0.499990 0.618840 -0.494960
O4    O     O_R   0.379440 0.500020 0.381260 -0.491912
O5    O     O_R   0.500000 0.680340 0.618760 -0.534645
O6    O     O_R   0.500010 0.680360 0.381190 -0.523092
O7    O     O_R   0.620560 0.499980 0.618740 -0.518401
O8    O     O_R   0.620570 0.500010 0.381160 -0.512020

loop_
_geom_bond_atom_site_label_1
_geom_bond_atom_site_label_2
_ccdc_geom_bond_type
C34   H21   S    
C30   H15   S    
Cu2   O6    S    
C6    C7    A    
C16   O6    A    
C12   C24   S    
C1    C8    S    
C24   C28   S    
C9    C10   A    
C25   H11   S    
C22   O7    A    
Cu1   Cu2   S    
C6    C11   A    
Cu1   O5    S    
C10   H2    S    
C32   C33   T    
C2    C34   A    
C28   C30   S    
C2    C3    A    
C25   C26   S    
C17   H8    S    
C15   H7    S    
C7    C8    A    
C16   O5    A    
C12   H1    S    
C13   C14   A    
C25   C28   S    
C4    O4    A    
C12   C23   S    
C21   N2    A    
C29   C30   S    
C29   H17   S    
C19   N1    A    
C5    C6    A    
C23   C29   S    
Cu1   O3    S    
C13   H5    S    
C24   H4    S    
Cu2   O8    S    
C17   C18   A    
Cu1   N2    S    
C21   H9    S    
C22   C27   S    
C26   H14   S    
C4    C33   S    
C2    H22   S    
C7    C34   A    
Cu2   O4    S    
C26   H13   S    
C10   C11   A    
C13   C19   A    
C27   C31   T    
Cu2   N1    S    
C24   H12   S    
C1    O2    A    
C1    O1    A    
C28   C32   S    
C20   C21   A    
Cu1   O7    S    
C18   C19   A    
C11   C16   S    
C23   C26   S    
C20   N1    A    
C15   C17   A    
C20   H3    S    
C30   H16   S    
C4    O3    A    
C18   N2    A    
Cu1   O1    S    
C29   H19   S    
C5    H24   S    
C9    H20   S    
Cu2   O2    S    
C14   H6    S    
C25   H10   S    
C22   O8    A    
C12   H18   S    
C14   C15   A    
C23   C31   S    
C8    C9    A    
C3    C5    A    
C3    H23   S    
