data_mof_unit_35884.cif
_audit_creation_date              2013-03-05T15:46:25-0500
_audit_creation_method            fapswitch 2.2
_symmetry_space_group_name_H-M    P1
_symmetry_Int_Tables_number       1
_space_group_crystal_system       triclinic
_cell_length_a                    15.920239
_cell_length_b                    11.00042
_cell_length_c                    9.825018
_cell_angle_alpha                 109.923868
_cell_angle_beta                  98.161299
_cell_angle_gamma                 91.830575
_cell_volume                      1595.30315752

loop_
_atom_site_label
_atom_site_type_symbol
_atom_site_description
_atom_site_fract_x
_atom_site_fract_y
_atom_site_fract_z
_atom_type_partial_charge
O1    O     O_R   0.507820 0.332330 0.577400 -0.581456
O2    O     O_R   0.483070 0.295500 0.332660 -0.579925
C1    C     C_R   0.495232 0.254743 0.442301 0.830967
O3    O     O_R   0.391820 0.518430 0.622420 -0.580125
O4    O     O_R   0.367070 0.481600 0.377680 -0.602816
C2    C     C_R   0.340369 0.501182 0.501915 0.792716
Cu1   Cu    Cu3+1 0.514650 0.521810 0.644910 1.064690
Cu2   Cu    Cu3+1 0.485350 0.478190 0.355090 0.930091
O5    O     O_R   0.516930 0.704500 0.667340 -0.479595
O6    O     O_R   0.492180 0.667670 0.422600 -0.632519
O7    O     O_R   0.632930 0.518400 0.622320 -0.518819
O8    O     O_R   0.608180 0.481570 0.377580 -0.581965
C3    C     C_R   0.500436 0.745787 0.555974 0.754620
C4    C     C_R   0.659474 0.501175 0.498867 0.828403
C5    C     C_3   0.060600 0.495872 0.671603 0.295973
C6    C     C_3   0.038353 0.343374 0.397168 -0.114954
C7    C     C_3   0.937608 0.340562 0.396191 -0.135775
H1    H     H_    0.048117 0.347179 0.288364 0.155167
H2    H     H_    0.910700 0.327790 0.280624 0.154138
C8    C     C_1   0.748101 0.496423 0.494222 -0.148439
C9    C     C_3   0.083790 0.478119 0.513347 0.137187
C10   C     C_3   0.962279 0.521080 0.661197 0.142177
C11   C     C_3   0.914847 0.479198 0.495820 0.098118
C12   C     C_3   0.949691 0.574834 0.424452 -0.153273
C13   C     C_3   0.048213 0.587771 0.456850 -0.534689
C14   C     C_1   0.822846 0.488453 0.491581 0.021656
C15   C     C_1   0.176170 0.489427 0.512763 -0.013031
C16   C     C_1   0.251123 0.497410 0.507077 -0.207013
H3    H     H_    0.072571 0.685985 0.531526 0.194125
H4    H     H_    0.072107 0.580229 0.353124 0.191995
H5    H     H_    0.960145 0.626691 0.703711 0.088518
H6    H     H_    0.934545 0.525119 0.303143 0.180765
H7    H     H_    0.419240 0.121046 0.572906 0.184612
C17   C     C_2   0.495422 0.116784 0.413537 -0.343295
C18   C     C_2   0.452785 0.061964 0.488155 -0.110726
C19   C     C_2   0.487523 0.883620 0.576538 0.143080
C20   C     C_2   0.454258 0.922277 0.461351 -0.015509
H8    H     H_    0.530623 0.059765 0.330281 0.166979
H9    H     H_    0.484884 0.378308 0.842830 0.132645
H10   H     H_    0.560486 0.579672 0.158972 0.182989
N1    N     N_2   0.463320 0.445430 0.137380 -0.187774
C21   C     C_2   0.515212 0.502830 0.082515 -0.002030
N2    N     N_2   0.536720 0.554500 0.862620 -0.059347
C22   C     C_2   0.513118 0.471560 0.919404 -0.014515
N3    N     N_R   0.917763 0.479158 0.761825 0.175596
O9    O     O_R   0.938922 0.538659 0.902684 -0.355930
O10   O     O_R   0.854112 0.390332 0.714984 -0.342325
C23   C     C_3   0.116118 0.607603 0.804961 -0.384454
C24   C     C_3   0.120630 0.749025 0.809939 -0.426553
C25   C     C_3   0.135231 0.845358 0.967185 -0.848871
H11   H     H_    0.076887 0.844466 0.017074 0.263960
H12   H     H_    0.188374 0.820299 0.035359 0.261674
H13   H     H_    0.149900 0.944753 0.967517 0.253636
H14   H     H_    0.172981 0.766073 0.753015 0.229141
H15   H     H_    0.061493 0.772094 0.757959 0.221011
H16   H     H_    0.093867 0.604905 0.906231 0.251209
H17   H     H_    0.183341 0.583100 0.816525 0.224927
C26   C     C_3   0.425209 0.826389 0.303316 -0.360287
C27   C     C_3   0.379043 0.876741 0.186989 -0.374651
C28   C     C_3   0.353430 0.764909 0.040701 -0.787494
H18   H     H_    0.409879 0.715105 0.003844 0.282015
H19   H     H_    0.306887 0.692757 0.051682 0.236770
H20   H     H_    0.324475 0.802942 0.955324 0.257014
H21   H     H_    0.321049 0.921271 0.222740 0.220235
H22   H     H_    0.420327 0.948921 0.165928 0.256100
H23   H     H_    0.482501 0.783395 0.260256 0.231778
H24   H     H_    0.379692 0.749896 0.308654 0.219552
N4    N     N_R   0.510839 0.976979 0.722276 0.134341
O11   O     O_R   0.584051 0.975649 0.799535 -0.306025
O12   O     O_R   0.453384 0.045569 0.786698 -0.421613
N5    N     N_R   0.585246 0.667147 0.956594 0.219573
O13   O     O_R   0.561500 0.780097 0.960623 -0.311471
O14   O     O_R   0.661104 0.659840 0.021582 -0.357917
N6    N     N_R   0.078595 0.376373 0.705628 0.118489
O15   O     O_R   0.157188 0.349840 0.730465 -0.430331
O16   O     O_R   0.020370 0.304246 0.729852 -0.345275
C29   C     C_3   0.405321 0.334790 0.035354 -0.144956
C30   C     C_3   0.327306 0.301464 0.095479 -0.316104
C31   C     C_3   0.269628 0.189210 0.979703 -0.855284
H25   H     H_    0.248535 0.213104 0.879837 0.302448
H26   H     H_    0.303767 0.099654 0.949468 0.274783
H27   H     H_    0.212362 0.170509 0.024630 0.241685
H28   H     H_    0.346018 0.270053 0.190066 0.250391
H29   H     H_    0.289599 0.387170 0.127041 0.234608
H30   H     H_    0.376756 0.356990 0.937458 0.153167
H31   H     H_    0.441931 0.248321 0.001372 0.228914
C32   C     C_3   0.075068 0.211613 0.394321 -0.335681
C33   C     C_3   0.171003 0.200972 0.394385 -0.325860
C34   C     C_3   0.193936 0.063967 0.378746 -0.881049
H32   H     H_    0.168812 0.031655 0.461866 0.273100
H33   H     H_    0.167676 0.995285 0.267576 0.255675
H34   H     H_    0.264196 0.064032 0.398054 0.240250
H35   H     H_    0.190964 0.227773 0.303679 0.207193
H36   H     H_    0.208073 0.263754 0.499908 0.274569
H37   H     H_    0.056793 0.180934 0.482893 0.256882
H38   H     H_    0.044211 0.136505 0.289359 0.180061
C35   C     C_3   0.892129 0.218132 0.411777 -0.345379
C36   C     C_3   0.794500 0.199513 0.358847 -0.367412
C37   C     C_3   0.760599 0.057092 0.284028 -0.753702
H39   H     H_    0.790521 0.011075 0.185420 0.270859
H40   H     H_    0.773483 0.003672 0.360758 0.248452
H41   H     H_    0.690615 0.050406 0.248995 0.262000
H42   H     H_    0.761307 0.241437 0.454216 0.252094
H43   H     H_    0.776440 0.248754 0.278585 0.231277
H44   H     H_    0.917522 0.130078 0.342148 0.186118
H45   H     H_    0.905947 0.217453 0.524569 0.272465
C38   C     C_3   0.907309 0.704055 0.437645 -0.366845
C39   C     C_3   0.896155 0.795455 0.590717 -0.372517
C40   C     C_3   0.845828 0.908633 0.581140 -0.776093
H46   H     H_    0.880337 0.966520 0.530008 0.249844
H47   H     H_    0.781341 0.872372 0.516261 0.251148
H48   H     H_    0.838605 0.972734 0.693139 0.270663
H49   H     H_    0.861210 0.744031 0.647717 0.239726
H50   H     H_    0.958752 0.838058 0.656054 0.220456
H51   H     H_    0.944472 0.759478 0.386881 0.213242
H52   H     H_    0.843091 0.677951 0.368511 0.220962

loop_
_geom_bond_atom_site_label_1
_geom_bond_atom_site_label_2
_geom_bond_distance
_ccdc_geom_bond_type
C32   C33   1.535437 S    
C6    C9    1.602251 S    
N1    C21   1.302631 D    
C5    N6    1.489367 S    
C35   C36   1.551045 S    
C23   H17   1.111603 S    
N3    O9    1.301297 A    
Cu1   O7    1.927182 S    
C27   H21   1.104308 S    
C7    C11   1.591812 S    
N6    O16   1.299908 A    
C28   H20   1.110357 S    
C19   C20   1.383571 D    
C18   C20   1.469476 S    
C40   H47   1.110936 S    
N1    C29   1.473982 S    
O4    C2    1.300368 A    
O7    C4    1.296031 A    
C36   H42   1.109752 S    
C39   C40   1.524136 S    
C28   H19   1.110926 S    
C17   C18   1.333542 D    
C11   C14   1.467118 S    
C39   H50   1.099242 S    
O5    C3    1.318018 A    
H7    C18   1.086526 S    
C30   H28   1.103899 S    
C26   H23   1.111460 S    
C5    C10   1.593465 S    
C2    C16   1.428687 S    
C6    C7    1.601804 S    
C32   H37   1.105262 S    
C6    C32   1.573028 S    
C25   H12   1.104657 S    
C38   C39   1.536530 S    
Cu1   N2    2.020499 S    
C34   H33   1.107412 S    
C20   C26   1.544701 S    
C35   H44   1.105259 S    
H10   C21   1.083013 S    
C9    C15   1.472985 S    
C29   H30   1.111105 S    
C27   C28   1.530333 S    
O1    Cu1   1.954256 S    
C21   C22   1.515273 S    
C5    C23   1.585202 S    
O3    Cu1   1.934217 S    
N3    O10   1.300489 A    
C13   H3    1.099154 S    
C33   H36   1.101081 S    
C25   H13   1.109533 S    
C10   H5    1.095963 S    
C4    C8    1.420198 S    
Cu1   Cu2   2.689495 S    
C12   C13   1.547532 S    
C3    C19   1.484907 S    
O3    C2    1.292421 A    
N6    O15   1.302105 A    
C40   H48   1.110668 S    
N5    O14   1.301886 A    
C30   C31   1.528267 S    
N4    O11   1.300910 A    
C1    C17   1.446112 S    
C26   C27   1.540193 S    
C29   C30   1.533884 S    
C28   H18   1.107947 S    
O1    C1    1.293020 A    
C39   H49   1.107877 S    
N2    C22   1.292060 D    
C12   H6    1.115122 S    
C30   H29   1.111374 S    
O4    Cu2   1.927183 S    
C37   H39   1.110852 S    
Cu2   O8    1.934216 S    
C32   H38   1.112193 S    
C10   N3    1.476886 S    
C25   H11   1.111338 S    
C12   C38   1.566275 S    
Cu2   N1    2.020343 S    
C34   H34   1.107582 S    
C38   H51   1.112877 S    
C35   H45   1.101393 S    
C6    H1    1.116216 S    
C23   C24   1.538763 S    
C37   H40   1.105183 S    
O8    C4    1.292558 A    
C29   H31   1.109140 S    
C36   C37   1.527943 S    
C31   H26   1.111200 S    
C13   H4    1.115631 S    
C23   H16   1.111702 S    
C9    C13   1.579429 S    
C33   H35   1.111577 S    
N2    N5    1.393338 S    
C17   H8    1.086060 S    
Cu2   O6    1.954257 S    
O2    Cu2   1.944188 S    
O6    C3    1.284243 A    
C31   H27   1.110175 S    
C19   N4    1.437111 S    
H9    C22   1.081149 S    
O2    C1    1.293993 A    
N5    O13   1.299623 A    
C24   H15   1.085669 S    
C40   H46   1.110746 S    
C27   H22   1.105665 S    
C8    C14   1.199281 T    
C36   H43   1.111139 S    
C7    H2    1.114370 S    
C38   H52   1.113651 S    
C11   C12   1.575466 S    
C31   H25   1.110158 S    
Cu1   O5    1.944190 S    
C26   H24   1.112580 S    
C5    C9    1.597714 S    
C37   H41   1.110798 S    
C33   C34   1.523661 S    
N4    O12   1.299839 A    
C24   C25   1.526553 S    
C15   C16   1.204278 T    
C10   C11   1.594302 S    
C34   H32   1.111203 S    
C7    C35   1.572012 S    
C24   H14   1.111945 S    
