data_mof_unit_28028.cif
_audit_creation_date              2012-12-10T18:02:08-0500
_audit_creation_method            fapswitch 2.2
_symmetry_space_group_name_H-M    P1
_symmetry_Int_Tables_number       1
_space_group_crystal_system       triclinic
_cell_length_a                    10.830275
_cell_length_b                    9.508613
_cell_length_c                    23.566843
_cell_angle_alpha                 90.006134
_cell_angle_beta                  90.188127
_cell_angle_gamma                 89.999752
_cell_volume                      2426.92145661

loop_
_atom_site_label
_atom_site_type_symbol
_atom_type_description
_atom_site_fract_x
_atom_site_fract_y
_atom_site_fract_z
_atom_type_partial_charge
C1    C     C_R   0.262033 0.499989 0.499943 0.801430
C2    C     C_R   0.737967 0.499989 0.500060 0.803360
C3    C     C_R   0.532339 0.640360 0.241699 0.491206
C4    C     C_R   0.467510 0.640418 0.758288 0.410868
C5    C     C_R   0.532487 0.627775 0.300764 -0.306246
C6    C     C_R   0.467426 0.627822 0.699228 -0.327792
C7    C     C_R   0.496088 0.502257 0.327761 -0.232417
C8    C     C_R   0.503876 0.502303 0.672236 -0.216579
C9    C     C_R   0.458127 0.386350 0.293762 0.334971
C10   C     C_R   0.541837 0.386422 0.706242 0.333260
C11   C     C_R   0.463687 0.398002 0.234657 -0.215151
C12   C     C_R   0.536270 0.398126 0.765347 -0.204619
C13   C     C_R   0.500015 0.523083 0.208486 0.159130
C14   C     C_R   0.499871 0.523208 0.791507 0.176882
C15   C     C_R   0.063862 0.372134 0.499933 -0.140253
C16   C     C_R   0.936144 0.627772 0.500058 -0.159494
C17   C     C_R   0.936139 0.372134 0.500051 -0.139773
C18   C     C_R   0.063856 0.627772 0.499978 -0.161744
C19   C     C_R   0.871789 0.499960 0.500082 -0.016791
C20   C     C_R   0.128211 0.499960 0.499926 -0.017130
C21   C     C_R   0.403033 0.074250 0.477621 0.082673
C22   C     C_R   0.596461 0.925591 0.522877 0.007757
C23   C     C_R   0.596966 0.074262 0.522379 0.083811
C24   C     C_R   0.403538 0.925579 0.477123 0.006310
C25   C     C_R   0.497451 0.499868 0.390725 0.876442
C26   C     C_R   0.502541 0.499882 0.609274 0.870320
C27   C     C_R   0.609878 0.533474 0.880818 0.610540
C28   C     C_R   0.389972 0.532874 0.119170 0.613600
C29   C     C_R   0.389279 0.525278 0.880618 0.636078
C30   C     C_R   0.610593 0.525537 0.119367 0.625485
C31   C     C_R   0.387072 0.529762 0.940090 -0.022172
C32   C     C_R   0.612785 0.530122 0.059896 -0.030970
C33   C     C_R   0.499824 0.532543 0.970059 -0.009390
C34   C     C_R   0.500026 0.532494 0.029929 -0.006626
C35   C     C_R   0.612398 0.533529 0.940310 -0.025232
C36   C     C_R   0.387451 0.532981 0.059679 -0.026357
C37   C     C_R   0.275326 0.529990 0.970186 -0.121987
C38   C     C_R   0.724530 0.530860 0.029802 -0.134390
C39   C     C_R   0.275509 0.532528 0.029377 -0.132322
C40   C     C_R   0.724340 0.533490 0.970612 -0.130069
Cu1   Cu    Cu3+1 0.500000 0.640660 0.500000 0.978998
Cu2   Cu    Cu3+1 0.500000 0.359340 0.500000 1.045156
H1    H     H_    0.187433 0.528405 0.948133 0.195559
H2    H     H_    0.812428 0.529607 0.051855 0.195219
H3    H     H_    0.187732 0.532781 0.051272 0.194674
H4    H     H_    0.812115 0.534135 0.948718 0.194761
H5    H     H_    0.560848 0.717546 0.325906 0.224039
H6    H     H_    0.439031 0.717584 0.674094 0.219579
H7    H     H_    0.437298 0.310074 0.208065 0.213322
H8    H     H_    0.562689 0.310239 0.791947 0.213360
H9    H     H_    0.111913 0.272215 0.499869 0.151531
H10   H     H_    0.888106 0.727698 0.500090 0.150966
H11   H     H_    0.888089 0.272215 0.500093 0.151788
H12   H     H_    0.111893 0.727698 0.499968 0.150469
H13   H     H_    0.325095 0.129674 0.459749 0.162806
H14   H     H_    0.673513 0.869926 0.541589 0.133669
H15   H     H_    0.674904 0.129696 0.540252 0.162395
H16   H     H_    0.326486 0.869904 0.458412 0.134673
N1    N     N_R   0.499457 0.529636 0.852331 -0.445914
N2    N     N_R   0.500404 0.529443 0.147658 -0.445120
N3    N     N_R   0.500000 0.852070 0.500000 -0.177243
N4    N     N_R   0.500000 0.147930 0.500000 -0.170184
O1    O     O_R   0.319640 0.618740 0.500000 -0.602431
O2    O     O_R   0.680360 0.381260 0.500000 -0.592189
O3    O     O_R   0.680360 0.618740 0.500000 -0.601359
O4    O     O_R   0.319640 0.381260 0.500000 -0.592487
O5    O     O_R   0.499960 0.618810 0.417880 -0.582134
O6    O     O_R   0.500040 0.381190 0.582120 -0.513651
O7    O     O_R   0.500040 0.618810 0.582120 -0.582834
O8    O     O_R   0.499960 0.381190 0.417880 -0.512967
O9    O     O_2   0.716751 0.537050 0.851569 -0.490353
O10   O     O_2   0.283088 0.536025 0.148420 -0.488015
O11   O     O_2   0.282492 0.515037 0.851262 -0.497674
O12   O     O_2   0.717412 0.515666 0.148717 -0.478660
S1    S     S_3+6 0.570887 0.804243 0.210774 0.053194
O13   O     O_2   0.491157 0.831402 0.159606 -0.268604
O14   O     O_2   0.552583 0.920661 0.253044 -0.256754
O15   O     O_3   0.719862 0.801195 0.191050 -0.481690
H17   H     H_    0.733423 0.891903 0.171369 0.381892
S2    S     S_3+6 0.428667 0.804329 0.789188 0.067849
O16   O     O_2   0.508826 0.832014 0.840142 -0.223592
O17   O     O_2   0.446342 0.921258 0.747100 -0.254029
O18   O     O_3   0.280216 0.801880 0.809705 -0.459605
H18   H     H_    0.232845 0.779907 0.774787 0.354883
S3    S     S_3+6 0.396030 0.228558 0.321995 0.055678
O19   O     O_2   0.295573 0.264356 0.363386 -0.285164
O20   O     O_2   0.342204 0.138281 0.275747 -0.206509
O21   O     O_3   0.507474 0.137231 0.355516 -0.497967
H19   H     H_    0.580454 0.143794 0.330446 0.357662
S4    S     S_3+6 0.603920 0.228594 0.678018 0.054071
O22   O     O_2   0.704426 0.264342 0.636648 -0.287730
O23   O     O_2   0.657672 0.138312 0.724274 -0.206565
O24   O     O_3   0.492491 0.137282 0.644470 -0.500005
H20   H     H_    0.419428 0.144058 0.669480 0.356620

loop_
_geom_bond_atom_site_label_1
_geom_bond_atom_site_label_2
_ccdc_geom_bond_type
C38   C40   A    
C8    C10   A    
O24   H20   S    
Cu2   O2    S    
C8    C26   S    
Cu1   Cu2   S    
C25   O5    A    
Cu1   N3    S    
C2    O3    A    
C21   H13   S    
Cu1   O5    S    
C13   N2    S    
S3    O19   D    
C40   H4    S    
C14   N1    S    
C5    H5    S    
C24   N3    A    
C6    H6    S    
C6    C8    A    
C4    S2    S    
C30   O12   S    
C29   O11   S    
Cu2   O8    S    
C15   C17   A    
C9    S3    S    
C23   N4    A    
C29   N1    A    
C12   H8    S    
C30   N2    A    
C31   C33   A    
C32   C38   A    
C3    S1    S    
Cu2   N4    S    
C18   C20   A    
C3    C13   A    
C39   H3    S    
S3    O20   D    
Cu2   O6    S    
C28   O10   S    
S2    O18   S    
C1    O1    A    
C2    O2    A    
C1    O4    A    
C28   N2    A    
C15   C20   A    
C37   C39   A    
C4    C6    A    
C5    C7    A    
O15   H17   S    
Cu1   O3    S    
C27   C35   A    
C31   C37   A    
C32   C34   A    
C37   H1    S    
S1    O13   D    
C38   H2    S    
C11   H7    S    
S1    O14   D    
S4    O23   D    
O18   H18   S    
C33   C34   A    
C9    C11   A    
C10   S4    S    
C21   N4    A    
C10   C12   A    
C24   H16   S    
C12   C14   A    
C15   H9    S    
Cu1   O1    S    
C17   H11   S    
C27   O9    S    
S4    O24   S    
Cu1   O7    S    
S3    O21   S    
C23   H15   S    
C1    C20   S    
C2    C19   S    
C36   C39   A    
C16   H10   S    
S2    O16   D    
C3    C5    A    
C22   H14   S    
C7    C25   S    
C26   O6    A    
C35   C40   A    
C29   C31   A    
C27   N1    A    
C22   N3    A    
C30   C32   A    
C11   C13   A    
C33   C35   A    
S4    O22   D    
C16   C19   A    
C17   C19   A    
S2    O17   D    
C34   C36   A    
C4    C14   A    
S1    O15   S    
C18   H12   S    
C7    C9    A    
O21   H19   S    
C28   C36   A    
C16   C18   A    
C21   C24   A    
Cu2   O4    S    
C26   O7    A    
C22   C23   A    
C25   O8    A    
