data_mof_unit_67815.cif
_audit_creation_date              2013-03-05T15:41:23-0500
_audit_creation_method            fapswitch 2.2
_symmetry_space_group_name_H-M    P1
_symmetry_Int_Tables_number       1
_space_group_crystal_system       triclinic
_cell_length_a                    7.965926
_cell_length_b                    8.604621
_cell_length_c                    10.75273
_cell_angle_alpha                 94.798008
_cell_angle_beta                  83.341483
_cell_angle_gamma                 93.581491
_cell_volume                      728.45847605

loop_
_atom_site_label
_atom_site_type_symbol
_atom_site_description
_atom_site_fract_x
_atom_site_fract_y
_atom_site_fract_z
_atom_type_partial_charge
O1    O     O_R   0.389250 0.738570 0.508370 -0.602674
O2    O     O_R   0.678390 0.711620 0.486510 -0.560046
C1    C     C_R   0.543772 0.792060 0.485735 0.886303
O3    O     O_R   0.355430 0.513500 0.696140 -0.568194
O4    O     O_R   0.644580 0.486550 0.674270 -0.552501
C2    C     C_R   0.499527 0.494600 0.741726 0.938539
Zn1   Zn    Zn3+2 0.306940 0.517990 0.514600 1.063055
Zn2   Zn    Zn3+2 0.693060 0.482010 0.485400 1.088935
O5    O     O_R   0.321610 0.288380 0.513490 -0.606521
O6    O     O_R   0.610750 0.261430 0.491630 -0.583637
O7    O     O_R   0.355420 0.513450 0.325730 -0.637942
O8    O     O_R   0.644570 0.486500 0.303860 -0.587798
C3    C     C_R   0.455033 0.205971 0.493657 0.944446
C4    C     C_R   0.502835 0.499036 0.258699 0.890679
C5    C     C_3   0.426127 0.641690 0.948810 -0.289390
H1    H     H_    0.510548 0.743015 0.918399 0.205812
C6    C     C_3   0.428534 0.642182 0.091125 -0.579363
H2    H     H_    0.493575 0.751063 0.128462 0.250762
H3    H     H_    0.297671 0.645829 0.140287 0.228209
H4    H     H_    0.264078 0.380097 0.101672 0.198779
C7    C     C_3   0.423422 0.329181 0.928686 0.449294
C8    C     C_3   0.696207 0.502350 0.911683 0.065587
C9    C     C_3   0.505702 0.488435 0.878467 -0.270846
H5    H     H_    0.747448 0.619216 0.884742 0.152581
C10   C     C_3   0.511246 0.494500 0.122115 -0.183044
C11   C     C_3   0.398124 0.350643 0.073972 0.081954
C12   C     C_3   0.701375 0.493212 0.055712 0.166420
C13   C     C_2   0.562001 0.949842 0.452687 -0.308532
C14   C     C_2   0.427051 0.041414 0.474644 -0.362876
N1    N     N_2   0.950330 0.457950 0.465890 -0.146289
H6    H     H_    0.011824 0.378145 0.402807 0.204397
N2    N     N_2   0.049670 0.542050 0.534110 -0.159174
C15   C     C_2   0.253312 0.684130 0.923165 1.061919
O9    O     O_2   0.133878 0.588748 0.930567 -0.576452
O10   O     O_R   0.227500 0.839650 0.905345 -0.694299
H7    H     H_    0.103630 0.859729 0.904209 0.394153
Br1   Br    Br    0.806571 0.300444 0.091913 -0.220229
Br2   Br    Br    0.548852 0.144288 0.864307 -0.273751
Br3   Br    Br    0.402095 0.157897 0.159723 -0.410541
C16   C     C_2   0.727488 0.002255 0.388128 1.022434
O11   O     O_2   0.742935 0.012405 0.274717 -0.530423
O12   O     O_R   0.862096 0.046283 0.457562 -0.698500
H8    H     H_    0.960841 0.095799 0.404012 0.350963
C17   C     C_2   0.245243 0.983493 0.484896 1.053633
O13   O     O_2   0.150511 0.022298 0.578435 -0.469169
O14   O     O_R   0.181407 0.886466 0.388352 -0.785549
H9    H     H_    0.269357 0.865889 0.313840 0.315632
C18   C     C_2   0.003523 0.666404 0.625601 1.172032
O15   O     O_2   0.116162 0.734423 0.679339 -0.583568
O16   O     O_R   0.840782 0.713799 0.658316 -0.769069
H10   H     H_    0.833829 0.806346 0.723364 0.351442
Br4   Br    Br    0.212658 0.256000 0.868995 -0.236085
Br5   Br    Br    0.867183 0.376839 0.807698 -0.253814
C19   C     C_2   0.813427 0.632148 0.105054 0.943887
O17   O     O_2   0.794164 0.764826 0.078296 -0.603781
O18   O     O_R   0.940016 0.608320 0.180498 -0.738709
H11   H     H_    0.001898 0.709320 0.208691 0.360921

loop_
_geom_bond_atom_site_label_1
_geom_bond_atom_site_label_2
_geom_bond_distance
_ccdc_geom_bond_type
O4    Zn2   2.020353 S    
N1    N2    1.289282 D    
C7    C11   1.548760 S    
C19   O18   1.400124 S    
C5    C6    1.532264 S    
C10   C12   1.598065 S    
O10   H7    1.013957 S    
Zn2   O8    2.037287 S    
C6    C10   1.544766 S    
C5    C9    1.593509 S    
C18   O16   1.380929 S    
C15   O9    1.216927 D    
C12   C19   1.542014 S    
Zn2   N1    2.057407 S    
C4    C10   1.459747 S    
O1    Zn1   1.972926 S    
C17   O13   1.221428 D    
Zn1   O7    2.020352 S    
N2    C18   1.427259 S    
C13   C14   1.359443 D    
N1    H6    1.028912 S    
H4    C11   1.113807 S    
C12   Br1   1.990557 S    
O3    Zn1   2.037288 S    
C2    C9    1.482315 S    
C16   O12   1.392229 S    
C16   O11   1.221305 D    
C15   O10   1.398624 S    
O8    C4    1.293570 A    
C6    H2    1.109972 S    
C8    Br5   1.974876 S    
O2    C1    1.313341 A    
C8    C12   1.562665 S    
C7    C9    1.590118 S    
C14   C17   1.496667 S    
O4    C2    1.293556 A    
O7    C4    1.311804 A    
C8    H5    1.109849 S    
C11   Br3   1.967471 S    
O3    C2    1.323426 A    
C1    C13   1.426429 S    
O12   H8    1.012896 S    
C13   C16   1.479514 S    
C5    H1    1.114799 S    
C7    Br4   1.917677 S    
O18   H11   1.013519 S    
Zn2   O6    1.972925 S    
C3    C14   1.420947 S    
Zn1   O5    1.985395 S    
O5    C3    1.301627 A    
C19   O17   1.223423 D    
C18   O15   1.216387 D    
Zn1   N2    2.057407 S    
O16   H10   1.014781 S    
C6    H3    1.113833 S    
C10   C11   1.572854 S    
O14   H9    1.012778 S    
C5    C15   1.507381 S    
C8    C9    1.593958 S    
O2    Zn2   1.985395 S    
C7    Br2   1.965340 S    
C17   O14   1.399166 S    
O1    C1    1.290233 A    
O6    C3    1.299374 A    
