data_mof_unit_41545.cif
_audit_creation_date              2012-10-26T20:00:58-0400
_audit_creation_method            fapswitch 2.2
_symmetry_space_group_name_H-M    P1
_symmetry_Int_Tables_number       1
_space_group_crystal_system       triclinic
_cell_length_a                    11.679357
_cell_length_b                    13.054927
_cell_length_c                    13.468318
_cell_angle_alpha                 91.880375
_cell_angle_beta                  76.257885
_cell_angle_gamma                 98.746521
_cell_volume                      1971.56392886

loop_
_atom_site_label
_atom_site_type_symbol
_atom_type_description
_atom_site_fract_x
_atom_site_fract_y
_atom_site_fract_z
_atom_type_partial_charge
C1    C     C_R   0.519743 0.700098 0.501763 0.546297
C2    C     C_R   0.399642 0.473723 0.808716 -0.006840
C3    C     C_R   0.470850 0.186247 0.499788 -0.005468
C4    C     C_R   0.436241 0.488091 0.695983 0.552404
C5    C     C_R   0.528455 0.811867 0.508473 0.006421
C6    C     C_R   0.620224 0.973172 0.566136 -0.136362
C7    C     C_R   0.613842 0.867151 0.554682 -0.133780
C8    C     C_R   0.450366 0.863322 0.471628 -0.133307
C9    C     C_R   0.457255 0.970593 0.481325 0.039828
C10   C     C_R   0.541996 0.026755 0.530134 0.044041
C11   C     C_R   0.546713 0.134756 0.542133 -0.026681
C12   C     C_R   0.451687 0.485220 0.975704 0.070453
C13   C     C_R   0.387468 0.128842 0.451905 -0.146299
C14   C     C_R   0.380052 0.021972 0.443485 -0.139872
C15   C     C_R   0.941327 0.598061 0.594337 -0.171072
C16   C     C_R   0.479604 0.299385 0.500983 0.545193
C17   C     C_R   0.823683 0.588264 0.585151 0.035720
C18   C     C_R   0.858049 0.456942 0.460537 0.064130
C19   C     C_R   0.977450 0.463019 0.467985 -0.006956
C20   C     C_R   0.020233 0.535139 0.535338 -0.001264
C21   C     C_R   0.140968 0.542783 0.541036 0.150408
C22   C     C_R   0.173912 0.410236 0.416644 0.018802
C23   C     C_R   0.484553 0.468854 0.868641 0.015164
C24   C     C_R   0.054728 0.399483 0.409505 -0.196804
C25   C     C_R   0.564880 0.513269 0.304531 0.523438
C26   C     C_R   0.749205 0.495617 0.036343 -0.132783
C27   C     C_R   0.605721 0.525853 0.192281 -0.050351
C28   C     C_R   0.279282 0.470828 0.858671 -0.114140
C29   C     C_R   0.244149 0.468819 0.964840 -0.131682
C30   C     C_R   0.329086 0.476956 0.023034 -0.063813
C31   C     C_R   0.827988 0.545358 0.187876 0.061383
C32   C     C_R   0.843453 0.641060 0.237944 -0.046216
C33   C     C_R   0.945985 0.672032 0.274265 -0.100841
C34   C     C_R   0.542146 0.501996 0.032208 0.054762
C35   C     C_R   0.035077 0.608996 0.259070 -0.079556
C36   C     C_R   0.020785 0.514119 0.209078 -0.115386
C37   C     C_R   0.917678 0.482012 0.174005 -0.116064
C38   C     C_2   0.185327 0.618616 0.611660 0.277620
C39   C     C_2   0.438648 0.615342 0.171711 0.193488
C40   C     C_R   0.625181 0.189265 0.605255 0.045632
C41   C     C_R   0.584957 0.186806 0.712129 -0.106879
C42   C     C_R   0.665475 0.214370 0.773853 -0.129473
C43   C     C_R   0.785954 0.246784 0.729354 -0.115927
C44   C     C_R   0.826237 0.250991 0.623102 -0.115146
C45   C     C_R   0.658625 0.482717 0.983822 0.015565
C46   C     C_R   0.746448 0.221539 0.561019 -0.078180
C47   C     C_R   0.685445 0.453027 0.882175 -0.148042
C48   C     C_R   0.599888 0.444725 0.826043 -0.126287
C49   C     C_R   0.522686 0.539076 0.134223 -0.014083
C50   C     C_R   0.724776 0.517761 0.140448 -0.026491
Cu1   Cu    Cu3+1 0.386470 0.492430 0.492410 0.942747
Cu2   Cu    Cu3+1 0.613530 0.507570 0.507590 0.938111
H1    H     H_    0.328632 0.166957 0.419321 0.127106
H2    H     H_    0.773665 0.436109 0.845484 0.119970
H3    H     H_    0.823964 0.402987 0.407991 0.120012
H4    H     H_    0.839788 0.488665 0.995673 0.116731
H5    H     H_    0.211670 0.468857 0.815747 0.184804
H6    H     H_    0.297721 0.474176 0.105238 0.114623
H7    H     H_    0.150550 0.463265 0.002151 0.118702
H8    H     H_    0.625437 0.412934 0.750755 0.177073
H9    H     H_    0.776772 0.692208 0.247664 0.106700
H10   H     H_    0.956970 0.745471 0.313137 0.103404
H11   H     H_    0.114789 0.633211 0.286670 0.123135
H12   H     H_    0.687203 0.011969 0.603363 0.129995
H13   H     H_    0.089467 0.465082 0.197901 0.098137
H14   H     H_    0.908457 0.408448 0.134955 0.094163
H15   H     H_    0.232574 0.693899 0.583733 0.103482
H16   H     H_    0.410714 0.632684 0.252213 0.133482
H17   H     H_    0.492528 0.158694 0.747412 0.112645
H18   H     H_    0.634512 0.210428 0.856217 0.121613
H19   H     H_    0.848259 0.267891 0.777217 0.111611
H20   H     H_    0.919936 0.274111 0.589012 0.122488
H21   H     H_    0.779697 0.219416 0.478878 0.095861
H22   H     H_    0.314918 0.979608 0.406036 0.109763
H23   H     H_    0.674494 0.828123 0.584086 0.127520
H24   H     H_    0.384858 0.820012 0.435048 0.105663
H25   H     H_    0.232982 0.361431 0.370693 0.128247
H26   H     H_    0.969270 0.655006 0.647310 0.124553
H27   H     H_    0.023459 0.342435 0.357981 0.085495
H28   H     H_    0.763737 0.636533 0.630850 0.134261
N1    N     N_R   0.215880 0.481050 0.481000 -0.248758
N2    N     N_R   0.784100 0.518950 0.519000 -0.231914
O1    O     O_R   0.419710 0.645650 0.494620 -0.531838
O2    O     O_2   0.406689 0.666540 0.111794 -0.506171
O3    O     O_R   0.611450 0.658430 0.507430 -0.510764
O4    O     O_R   0.357340 0.490460 0.641450 -0.462142
O5    O     O_R   0.549080 0.503250 0.654260 -0.519302
O6    O     O_R   0.388550 0.341570 0.492570 -0.509791
O7    O     O_R   0.580290 0.354350 0.505380 -0.502516
O8    O     O_R   0.450920 0.496750 0.345740 -0.528198
O9    O     O_R   0.642660 0.509540 0.358550 -0.489255
O10   O     O_2   0.160314 0.600663 0.703197 -0.536155

loop_
_geom_bond_atom_site_label_1
_geom_bond_atom_site_label_2
_ccdc_geom_bond_type
C39   H16   S    
C35   C36   A    
C8    H24   S    
C43   C44   A    
C4    O5    A    
C31   C32   A    
C28   H5    S    
C40   C46   A    
C12   C23   A    
C25   O8    A    
C1    C5    S    
C14   H22   S    
C28   C29   A    
C39   O2    D    
C18   C19   A    
C26   C50   A    
Cu1   O8    S    
C15   H26   S    
C4    O4    A    
C38   O10   D    
C42   H18   S    
C17   N2    A    
C41   C42   A    
C6    H12   S    
C26   C45   A    
C33   C35   A    
C32   H9    S    
C29   H7    S    
C33   H10   S    
C9    C10   A    
Cu1   N1    S    
C3    C13   A    
C27   C50   A    
C16   O7    A    
C13   C14   A    
Cu2   O7    S    
Cu1   O4    S    
C44   C46   A    
C48   H8    S    
C13   H1    S    
C45   C47   A    
C1    O3    A    
C15   C20   A    
C25   O9    A    
C21   C38   S    
Cu1   Cu2   S    
C22   N1    A    
C5    C7    A    
C36   H13   S    
C8    C9    A    
C7    H23   S    
C17   H28   S    
C31   C37   A    
C2    C4    S    
C9    C14   A    
C29   C30   A    
C24   H27   S    
C47   C48   A    
C37   H14   S    
C34   C45   A    
C38   H15   S    
Cu2   N2    S    
C18   H3    S    
C47   H2    S    
C40   C41   A    
C39   C49   S    
C21   N1    A    
C22   C24   A    
C1    O1    A    
C42   C43   A    
C31   C50   S    
C12   C34   A    
Cu1   O1    S    
C41   H17   S    
C15   C17   A    
Cu2   O3    S    
C34   C49   A    
C43   H19   S    
C23   C48   A    
C12   C30   A    
Cu2   O5    S    
C22   H25   S    
C26   H4    S    
Cu1   O6    S    
C6    C10   A    
C5    C8    A    
C35   H11   S    
C6    C7    A    
C25   C27   S    
C32   C33   A    
C19   C20   A    
C19   C24   A    
C30   H6    S    
C18   N2    A    
C44   H20   S    
C11   C40   S    
C3    C11   A    
C10   C11   A    
C20   C21   A    
C36   C37   A    
C2    C23   A    
C16   O6    A    
Cu2   O9    S    
C2    C28   A    
C46   H21   S    
C3    C16   S    
C27   C49   A    
