data_mof_unit_62411.cif
_audit_creation_date              2012-12-10T18:51:16-0500
_audit_creation_method            fapswitch 2.2
_symmetry_space_group_name_H-M    P1
_symmetry_Int_Tables_number       1
_space_group_crystal_system       triclinic
_cell_length_a                    25.471429
_cell_length_b                    25.556282
_cell_length_c                    51.433548
_cell_angle_alpha                 89.999721
_cell_angle_beta                  89.999778
_cell_angle_gamma                 89.999689
_cell_volume                      33480.9263928

loop_
_atom_site_label
_atom_site_type_symbol
_atom_type_description
_atom_site_fract_x
_atom_site_fract_y
_atom_site_fract_z
_atom_type_partial_charge
C1    C     C_R   0.499997 0.000000 0.349417 -0.026017
C2    C     C_1   0.673180 0.827457 0.249844 0.024213
C3    C     C_R   0.952096 0.500013 0.972560 0.047206
C4    C     C_R   0.452087 0.999929 0.527441 0.047232
C5    C     C_R   0.547887 0.999919 0.472559 0.047211
C6    C     C_R   0.547893 0.000064 0.527438 0.047246
C7    C     C_R   0.452081 0.000071 0.472562 0.047252
C8    C     C_R   0.999999 0.500000 0.013737 -0.017748
C9    C     C_R   1.000000 0.499999 0.986262 -0.017764
C10   C     C_R   0.499989 0.999996 0.513737 -0.017746
C11   C     C_R   0.499985 0.999995 0.486263 -0.017752
C12   C     C_R   0.904570 0.499829 0.013571 -0.106894
C13   C     C_1   0.673178 0.827455 0.750160 0.023920
C14   C     C_R   0.095430 0.500064 0.986428 -0.106886
C15   C     C_R   0.095429 0.500171 0.013571 -0.106894
C16   C     C_R   0.904569 0.499934 0.986428 -0.106889
C17   C     C_R   0.404558 0.999952 0.513575 -0.106893
C18   C     C_R   0.595415 0.999935 0.486425 -0.106901
C19   C     C_R   0.595419 0.000039 0.513569 -0.106895
C20   C     C_R   0.404555 0.000056 0.486431 -0.106889
C21   C     C_R   0.502932 0.951906 0.390442 0.066684
C22   C     C_R   0.497088 0.951902 0.609558 0.066658
C23   C     C_R   0.497038 0.048096 0.390442 0.066639
C24   C     C_1   0.326820 0.172543 0.249843 0.024205
C25   C     C_R   0.502908 0.048098 0.609557 0.066663
C26   C     C_R   0.003094 0.451915 0.890442 0.066735
C27   C     C_R   0.997114 0.451903 0.109557 0.066666
C28   C     C_R   0.996905 0.548083 0.890442 0.066722
C29   C     C_R   0.002884 0.548099 0.109557 0.066673
C30   C     C_R   0.500000 0.000000 0.179405 0.510090
C31   C     C_R   0.500000 0.000000 0.820595 0.510107
C32   C     C_R   0.000000 0.500000 0.679405 0.510105
C33   C     C_R   1.000000 0.500000 0.320595 0.510089
C34   C     C_R   0.400045 0.099827 0.249956 0.517133
C35   C     C_1   0.826821 0.327455 0.749840 0.023543
C36   C     C_R   0.599955 0.900172 0.750044 0.517077
C37   C     C_R   0.599955 0.900173 0.249956 0.517243
C38   C     C_R   0.400045 0.099828 0.750044 0.517235
C39   C     C_R   0.400045 0.900173 0.750044 0.517038
C40   C     C_R   0.599955 0.099828 0.249956 0.516860
C41   C     C_R   0.599955 0.099828 0.750044 0.517057
C42   C     C_R   0.400045 0.900172 0.249956 0.516842
C43   C     C_R   0.900045 0.599827 0.749956 0.517224
C44   C     C_R   0.099955 0.400172 0.250044 0.516991
C45   C     C_R   0.099955 0.400172 0.749956 0.517380
C46   C     C_1   0.173181 0.672542 0.250157 0.023833
C47   C     C_R   0.900045 0.599828 0.250044 0.517094
C48   C     C_R   0.900045 0.400173 0.250044 0.517004
C49   C     C_R   0.099955 0.599828 0.749956 0.516895
C50   C     C_R   0.099955 0.599828 0.250044 0.516989
C51   C     C_R   0.900045 0.400172 0.749956 0.516916
C52   C     C_3   0.273219 0.703586 0.251329 0.081367
C53   C     C_3   0.726768 0.296427 0.748876 0.081306
C54   C     C_3   0.726782 0.296412 0.251332 0.081376
C55   C     C_3   0.273217 0.703590 0.748661 0.081313
C56   C     C_3   0.273260 0.296462 0.749574 0.081213
C57   C     C_1   0.173179 0.672545 0.749840 0.023548
C58   C     C_3   0.726768 0.703573 0.251104 0.081161
C59   C     C_3   0.726773 0.703577 0.748804 0.081221
C60   C     C_3   0.273196 0.296388 0.251592 0.081168
C61   C     C_3   0.773233 0.203571 0.751118 0.081366
C62   C     C_3   0.226782 0.796412 0.248666 0.081306
C63   C     C_3   0.226782 0.796413 0.751333 0.081373
C64   C     C_3   0.773216 0.203590 0.248662 0.081316
C65   C     C_3   0.773233 0.796430 0.248901 0.081223
C66   C     C_3   0.226742 0.203541 0.750432 0.081148
C67   C     C_3   0.226803 0.203610 0.248413 0.081227
C68   C     C_1   0.826820 0.327457 0.250157 0.023844
C69   C     C_3   0.773226 0.796421 0.751202 0.081159
C70   C     C_3   0.281697 0.743592 0.229228 -0.130787
C71   C     C_3   0.718563 0.256152 0.770882 -0.130964
C72   C     C_3   0.718299 0.256412 0.229229 -0.130808
C73   C     C_3   0.281701 0.743590 0.770764 -0.130987
C74   C     C_3   0.280580 0.255313 0.771254 -0.130555
C75   C     C_3   0.718587 0.743871 0.229107 -0.130760
C76   C     C_3   0.718465 0.743751 0.770845 -0.130561
C77   C     C_3   0.282011 0.256715 0.229376 -0.130750
C78   C     C_3   0.781439 0.243846 0.729113 -0.130772
C79   C     C_1   0.826821 0.672545 0.250160 0.023917
C80   C     C_3   0.218304 0.756406 0.270767 -0.130977
C81   C     C_3   0.218298 0.756412 0.729230 -0.130797
C82   C     C_3   0.781700 0.243590 0.270765 -0.130996
C83   C     C_3   0.781414 0.756131 0.270898 -0.130568
C84   C     C_3   0.219422 0.244690 0.728751 -0.130760
C85   C     C_3   0.217988 0.243283 0.270629 -0.130567
C86   C     C_3   0.781533 0.756246 0.729161 -0.130757
C87   C     C_1   0.360247 0.860692 0.249851 0.054525
C88   C     C_1   0.639754 0.139307 0.750147 0.054920
C89   C     C_1   0.639753 0.139308 0.249851 0.054535
C90   C     C_1   0.173181 0.327458 0.749844 0.024220
C91   C     C_1   0.360245 0.860693 0.750147 0.054917
C92   C     C_1   0.360247 0.139309 0.750149 0.054973
C93   C     C_1   0.639754 0.860693 0.249853 0.055328
C94   C     C_1   0.639753 0.860692 0.750149 0.054951
C95   C     C_1   0.360246 0.139307 0.249853 0.055310
C96   C     C_1   0.860247 0.360691 0.749851 0.054539
C97   C     C_1   0.139754 0.639307 0.250147 0.054907
C98   C     C_1   0.139753 0.639308 0.749851 0.054535
C99   C     C_1   0.860246 0.360693 0.250147 0.054912
C100  C     C_1   0.860247 0.639308 0.250149 0.054947
C101  C     C_1   0.173178 0.327455 0.250161 0.023911
C102  C     C_1   0.139754 0.360693 0.749853 0.055351
C103  C     C_1   0.139753 0.360691 0.250149 0.054933
C104  C     C_1   0.860246 0.639307 0.749853 0.055331
C105  C     C_3   0.278616 0.747040 0.272014 -0.129234
C106  C     C_3   0.721112 0.253227 0.728077 -0.128959
C107  C     C_3   0.721387 0.252955 0.272016 -0.129220
C108  C     C_3   0.278610 0.747047 0.727978 -0.128944
C109  C     C_3   0.279775 0.254103 0.728412 -0.129078
C110  C     C_3   0.721087 0.746748 0.271914 -0.128810
C111  C     C_3   0.721212 0.746871 0.728046 -0.129099
C112  C     C_R   0.499999 0.000000 0.650583 -0.026002
C113  C     C_1   0.826820 0.672543 0.749844 0.024216
C114  C     C_3   0.278279 0.252626 0.272136 -0.128832
C115  C     C_3   0.778889 0.246770 0.771917 -0.129243
C116  C     C_3   0.221385 0.752958 0.227980 -0.128952
C117  C     C_3   0.221389 0.752955 0.772016 -0.129228
C118  C     C_3   0.778611 0.247047 0.227979 -0.128939
C119  C     C_3   0.778915 0.753254 0.228092 -0.129093
C120  C     C_3   0.220226 0.245899 0.771593 -0.128788
C121  C     C_3   0.221719 0.247372 0.227869 -0.129110
C122  C     C_3   0.778787 0.753127 0.771959 -0.128812
C123  C     C_3   0.286197 0.787048 0.249896 0.011338
C124  C     C_R   0.502987 0.952820 0.363163 -0.136323
C125  C     C_3   0.713805 0.212950 0.750097 0.011375
C126  C     C_3   0.713803 0.212952 0.249896 0.011341
C127  C     C_3   0.286195 0.787050 0.750098 0.011377
C128  C     C_3   0.286196 0.212951 0.750098 0.011219
C129  C     C_3   0.713804 0.787050 0.249903 0.011265
C130  C     C_3   0.713803 0.787048 0.750103 0.011225
C131  C     C_3   0.286196 0.212950 0.249899 0.011266
C132  C     C_3   0.786196 0.287048 0.749897 0.011337
C133  C     C_3   0.213805 0.712950 0.250099 0.011376
C134  C     C_3   0.213803 0.712952 0.749896 0.011340
C135  C     C_R   0.497043 0.952818 0.636837 -0.136310
C136  C     C_3   0.786196 0.287050 0.250099 0.011378
C137  C     C_3   0.786197 0.712952 0.250102 0.011226
C138  C     C_3   0.213805 0.287051 0.749907 0.011260
C139  C     C_3   0.213802 0.287047 0.250106 0.011229
C140  C     C_3   0.786196 0.712950 0.749902 0.011263
C141  C     C_2   0.505956 0.899997 0.403721 0.614605
C142  C     C_2   0.494104 0.899986 0.596280 0.614643
C143  C     C_2   0.494027 0.100009 0.403720 0.614634
C144  C     C_2   0.505886 0.100013 0.596279 0.614651
C145  C     C_2   0.006269 0.400018 0.903722 0.614622
C146  C     C_R   0.497002 0.047180 0.363163 -0.136354
C147  C     C_2   0.994166 0.399988 0.096279 0.614631
C148  C     C_2   0.993731 0.599980 0.903721 0.614617
C149  C     C_2   0.005832 0.600013 0.096279 0.614632
C150  C     C_2   0.300626 0.651809 0.252846 0.592466
C151  C     C_2   0.699346 0.348222 0.747599 0.592466
C152  C     C_2   0.699378 0.348189 0.252854 0.592463
C153  C     C_2   0.300622 0.651814 0.747140 0.592445
C154  C     C_2   0.300713 0.348294 0.749080 0.592810
C155  C     C_2   0.699347 0.651777 0.252361 0.592726
C156  C     C_2   0.699358 0.651789 0.747437 0.592752
C157  C     C_R   0.502953 0.047182 0.636836 -0.136306
C158  C     C_2   0.300576 0.348139 0.253403 0.592695
C159  C     C_2   0.800655 0.151776 0.752396 0.592489
C160  C     C_2   0.199375 0.848189 0.247148 0.592445
C161  C     C_2   0.199377 0.848189 0.752854 0.592465
C162  C     C_2   0.800621 0.151814 0.247141 0.592441
C163  C     C_2   0.800654 0.848225 0.247645 0.592753
C164  C     C_2   0.199288 0.151708 0.750925 0.592774
C165  C     C_2   0.199422 0.151859 0.246602 0.592715
C166  C     C_2   0.800640 0.848209 0.752569 0.592724
C167  C     C_R   0.003140 0.452829 0.863163 -0.136293
C168  C     C_R   0.997066 0.452817 0.136837 -0.136330
C169  C     C_R   0.996860 0.547170 0.863163 -0.136309
C170  C     C_R   0.002933 0.547184 0.136836 -0.136328
C171  C     C_R   0.980829 0.542660 0.445210 0.404902
C172  C     C_R   1.000000 0.500000 0.849417 -0.025958
C173  C     C_R   0.019171 0.457340 0.554790 0.404903
C174  C     C_R   0.019170 0.457340 0.445210 0.404902
C175  C     C_R   0.980830 0.542660 0.554790 0.404900
C176  C     C_R   0.480794 0.042645 0.945210 0.404898
C177  C     C_R   0.519206 0.957356 0.054790 0.404904
C178  C     C_R   0.519205 0.957355 0.945210 0.404897
C179  C     C_R   0.480795 0.042645 0.054790 0.404903
C180  C     C_R   0.019666 0.456515 0.472537 0.029619
C181  C     C_R   0.980334 0.543485 0.527463 0.029619
C182  C     C_R   0.980333 0.543484 0.472537 0.029619
C183  C     C_R   1.000000 0.500000 0.150583 -0.026021
C184  C     C_R   0.019667 0.456515 0.527463 0.029618
C185  C     C_R   0.519702 0.956532 0.972537 0.029619
C186  C     C_R   0.480298 0.043469 0.027463 0.029622
C187  C     C_R   0.480297 0.043468 0.972537 0.029617
C188  C     C_R   0.519703 0.956532 0.027463 0.029622
C189  C     C_R   1.000000 0.500000 0.486252 -0.026747
C190  C     C_R   0.000000 0.500000 0.513748 -0.026747
C191  C     C_R   0.500000 0.000000 0.986252 -0.026747
C192  C     C_R   0.500000 0.000000 0.013748 -0.026747
C193  C     C_R   0.039162 0.413318 0.486424 -0.115069
C194  C     C_1   0.326821 0.827456 0.249840 0.023535
C195  C     C_R   0.960838 0.586682 0.513576 -0.115070
C196  C     C_R   0.960838 0.586681 0.486424 -0.115071
C197  C     C_R   0.039162 0.413318 0.513576 -0.115068
C198  C     C_R   0.539234 0.913351 0.986424 -0.115070
C199  C     C_R   0.460766 0.086649 0.013576 -0.115067
C200  C     C_R   0.460766 0.086649 0.986424 -0.115068
C201  C     C_R   0.539234 0.913351 0.013576 -0.115069
C202  C     C_R   0.499977 0.000000 0.404254 0.183574
C203  C     C_R   0.499998 0.999999 0.595746 0.183571
C204  C     C_R   1.000000 0.499999 0.904253 0.183577
C205  C     C_1   0.673181 0.172543 0.750156 0.023840
C206  C     C_R   0.999999 0.500001 0.095746 0.183572
C207  C     C_R   0.547539 0.000014 0.109615 -0.054571
C208  C     C_R   0.452460 0.999984 0.890385 -0.054573
C209  C     C_R   0.452461 0.999986 0.109616 -0.054561
C210  C     C_R   0.547538 0.000016 0.890384 -0.054561
C211  C     C_R   0.047540 0.499989 0.609615 -0.054573
C212  C     C_R   0.952461 0.500011 0.390385 -0.054573
C213  C     C_R   0.952462 0.500011 0.609615 -0.054561
C214  C     C_R   0.047539 0.499989 0.390385 -0.054563
C215  C     C_R   0.547586 0.000014 0.136779 -0.131715
C216  C     C_1   0.673178 0.172545 0.249840 0.023550
C217  C     C_R   0.452414 0.999985 0.863221 -0.131722
C218  C     C_R   0.452414 0.999986 0.136779 -0.131695
C219  C     C_R   0.547585 0.000015 0.863221 -0.131701
C220  C     C_R   0.047586 0.499990 0.636779 -0.131721
C221  C     C_R   0.952414 0.500010 0.363221 -0.131713
C222  C     C_R   0.952415 0.500010 0.636779 -0.131700
C223  C     C_R   0.047586 0.499989 0.363221 -0.131694
C224  C     C_R   0.500000 0.000000 0.150652 0.024702
C225  C     C_R   0.500000 0.000000 0.849348 0.024726
C226  C     C_R   0.000000 0.500000 0.650652 0.024727
C227  C     C_1   0.326820 0.827457 0.750156 0.023845
C228  C     C_R   1.000000 0.500000 0.349348 0.024703
C229  C     C_R   0.500000 1.000000 0.320660 0.521022
C230  C     C_R   0.500000 0.000000 0.679340 0.521075
C231  C     C_R   0.000000 0.500000 0.820660 0.521091
C232  C     C_R   1.000000 0.500000 0.179340 0.521022
C233  C     C_R   0.500000 0.000000 0.095879 0.234454
C234  C     C_R   0.499999 0.000000 0.904121 0.234468
C235  C     C_R   0.000001 0.500000 0.595879 0.234478
C236  C     C_R   0.999999 0.500000 0.404121 0.234461
C237  C     C_R   0.046933 0.500191 0.054740 0.470827
C238  C     C_1   0.326821 0.172544 0.750159 0.023925
C239  C     C_R   0.953066 0.500073 0.945259 0.470765
C240  C     C_R   0.953066 0.499810 0.054740 0.470827
C241  C     C_R   0.046933 0.499925 0.945259 0.470770
C242  C     C_R   0.546927 0.000123 0.554739 0.470878
C243  C     C_R   0.453047 0.000130 0.445261 0.470957
C244  C     C_R   0.453060 0.999872 0.554742 0.470826
C245  C     C_R   0.546914 0.999862 0.445258 0.470701
C246  C     C_R   0.952097 0.499868 0.027439 0.047230
C247  C     C_R   0.047903 0.499985 0.972560 0.047203
C248  C     C_R   0.047902 0.500132 0.027439 0.047232
H1    H     H_    0.054492 0.379362 0.476368 0.175171
H2    H     H_    0.494932 0.916396 0.647550 0.194073
H3    H     H_    0.494866 0.083600 0.352450 0.194084
H4    H     H_    0.505065 0.083603 0.647550 0.194059
H5    H     H_    0.005390 0.416412 0.852452 0.193930
H6    H     H_    0.994974 0.416393 0.147549 0.194060
H7    H     H_    0.994609 0.583587 0.852452 0.193954
H8    H     H_    0.005025 0.583607 0.147549 0.194046
H9    H     H_    0.518002 0.822166 0.400287 0.358118
H10   H     H_    0.482292 0.822122 0.599731 0.358095
H11   H     H_    0.482188 0.177870 0.400269 0.358154
H12   H     H_    0.945508 0.620637 0.523632 0.175169
H13   H     H_    0.517655 0.177884 0.599731 0.358053
H14   H     H_    0.018659 0.322239 0.900298 0.358060
H15   H     H_    0.982322 0.322127 0.099721 0.358111
H16   H     H_    0.981343 0.677759 0.900298 0.358107
H17   H     H_    0.017671 0.677875 0.099721 0.358091
H18   H     H_    0.308141 0.738398 0.212264 0.143972
H19   H     H_    0.692330 0.261139 0.787941 0.143857
H20   H     H_    0.691852 0.261613 0.212267 0.143948
H21   H     H_    0.308150 0.738389 0.787725 0.143829
H22   H     H_    0.306109 0.259614 0.788618 0.144609
H23   H     H_    0.945508 0.620637 0.476368 0.175170
H24   H     H_    0.692375 0.738901 0.212039 0.144443
H25   H     H_    0.692154 0.738685 0.787869 0.144605
H26   H     H_    0.308713 0.262165 0.212532 0.144453
H27   H     H_    0.807671 0.238859 0.712053 0.144005
H28   H     H_    0.191861 0.761600 0.287731 0.143826
H29   H     H_    0.191849 0.761613 0.712268 0.143975
H30   H     H_    0.808147 0.238389 0.287727 0.143803
H31   H     H_    0.807627 0.761101 0.287966 0.144591
H32   H     H_    0.193892 0.240389 0.711387 0.144452
H33   H     H_    0.191286 0.237833 0.287474 0.144595
H34   H     H_    0.054492 0.379363 0.523632 0.175175
H35   H     H_    0.807845 0.761313 0.712137 0.144454
H36   H     H_    0.294535 0.573216 0.254314 0.353416
H37   H     H_    0.705424 0.426830 0.746348 0.353406
H38   H     H_    0.705476 0.426779 0.254323 0.353411
H39   H     H_    0.294526 0.573223 0.745674 0.353417
H40   H     H_    0.294663 0.426937 0.748535 0.353430
H41   H     H_    0.705428 0.573168 0.253594 0.353421
H42   H     H_    0.705446 0.573188 0.746106 0.353424
H43   H     H_    0.294457 0.426706 0.255136 0.353426
H44   H     H_    0.794577 0.073167 0.753646 0.353408
H45   H     H_    0.554592 0.879408 0.976368 0.175173
H46   H     H_    0.205466 0.926782 0.245679 0.353411
H47   H     H_    0.205473 0.926780 0.754319 0.353420
H48   H     H_    0.794523 0.073224 0.245670 0.353407
H49   H     H_    0.794573 0.926834 0.246412 0.353425
H50   H     H_    0.205338 0.073065 0.751471 0.353426
H51   H     H_    0.205541 0.073292 0.244870 0.353430
H52   H     H_    0.794553 0.926810 0.753900 0.353419
H53   H     H_    0.197448 0.755337 0.209980 0.147057
H54   H     H_    0.803049 0.244170 0.789837 0.146458
H55   H     H_    0.802546 0.244669 0.209977 0.147082
H56   H     H_    0.445408 0.120592 0.023632 0.175170
H57   H     H_    0.197456 0.755332 0.790018 0.146478
H58   H     H_    0.195340 0.242584 0.789238 0.147458
H59   H     H_    0.803096 0.755876 0.210180 0.146855
H60   H     H_    0.802865 0.755646 0.789908 0.147430
H61   H     H_    0.198056 0.245262 0.209772 0.146821
H62   H     H_    0.696952 0.255828 0.710157 0.147041
H63   H     H_    0.302553 0.744661 0.290015 0.146472
H64   H     H_    0.302542 0.744671 0.709976 0.147066
H65   H     H_    0.697453 0.255334 0.290017 0.146504
H66   H     H_    0.696905 0.744126 0.289825 0.147431
H67   H     H_    0.445407 0.120592 0.976368 0.175179
H68   H     H_    0.304661 0.257419 0.710767 0.146889
H69   H     H_    0.301942 0.254735 0.290233 0.147400
H70   H     H_    0.697134 0.744351 0.710097 0.146847
H71   H     H_    0.584494 0.000207 0.099209 0.143253
H72   H     H_    0.415505 0.999790 0.900791 0.143226
H73   H     H_    0.415507 0.999793 0.099209 0.143268
H74   H     H_    0.584493 0.000210 0.900790 0.143243
H75   H     H_    0.084495 0.500163 0.599209 0.143215
H76   H     H_    0.915505 0.499837 0.400791 0.143240
H77   H     H_    0.915507 0.499837 0.599209 0.143233
H78   H     H_    0.554592 0.879408 0.023632 0.175170
H79   H     H_    0.084493 0.500162 0.400791 0.143255
H80   H     H_    0.584867 0.000063 0.146898 0.149180
H81   H     H_    0.415133 0.999934 0.853102 0.149123
H82   H     H_    0.415134 0.999937 0.146898 0.149219
H83   H     H_    0.584866 0.000066 0.853102 0.149167
H84   H     H_    0.084867 0.500020 0.646898 0.149122
H85   H     H_    0.915133 0.499980 0.353102 0.149179
H86   H     H_    0.915134 0.499980 0.646898 0.149166
H87   H     H_    0.084866 0.500019 0.353102 0.149217
H88   H     H_    0.867221 0.499744 0.023637 0.175893
H89   H     H_    0.505129 0.916399 0.352452 0.194009
H90   H     H_    0.132778 0.500072 0.976362 0.175907
H91   H     H_    0.132778 0.500256 0.023636 0.175889
H92   H     H_    0.867221 0.499927 0.976363 0.175901
H93   H     H_    0.367211 0.999918 0.523641 0.175901
H94   H     H_    0.632763 0.999893 0.476359 0.175895
H95   H     H_    0.632768 0.000074 0.523633 0.175894
H96   H     H_    0.367206 0.000097 0.476367 0.175886
N1    N     N_R   0.999999 0.500000 0.432114 -0.398126
N2    N     N_R   0.000001 0.500000 0.567886 -0.398126
N3    N     N_R   0.499999 1.000000 0.932114 -0.398126
N4    N     N_R   0.500000 0.000000 0.067886 -0.398122
N5    N     N_R   0.999999 0.500001 0.067761 -0.356795
N6    N     N_R   1.000000 0.499999 0.932238 -0.356855
N7    N     N_R   0.499995 0.999998 0.567761 -0.356777
N8    N     N_R   0.499979 0.999997 0.432239 -0.356792
O1    O     O_3   0.500000 0.000000 0.250030 -0.451985
O2    O     O_R   0.000000 0.543160 0.191920 -0.535804
O3    O     O_R   0.271443 0.394438 0.253882 -0.684856
O4    O     O_2   0.848586 0.150377 0.753111 -0.484870
O5    O     O_R   0.771533 0.105465 0.752764 -0.685028
O6    O     O_2   0.151453 0.849576 0.246283 -0.484772
O7    O     O_R   0.228499 0.894497 0.246728 -0.685056
O8    O     O_2   0.151456 0.849577 0.753727 -0.484857
O9    O     O_R   0.228504 0.894495 0.753268 -0.685008
O10   O     O_2   0.848542 0.150425 0.246271 -0.484779
O11   O     O_R   0.771493 0.105509 0.246722 -0.685067
O12   O     O_2   0.848587 0.849626 0.246943 -0.484753
O13   O     O_R   1.000000 0.543160 0.808080 -0.535791
O14   O     O_R   0.771530 0.894535 0.247280 -0.684863
O15   O     O_2   0.151338 0.150287 0.751144 -0.484729
O16   O     O_R   0.228403 0.105389 0.751135 -0.685005
O17   O     O_2   0.151515 0.150486 0.245549 -0.484714
O18   O     O_R   0.228556 0.105559 0.246124 -0.684806
O19   O     O_2   0.848568 0.849604 0.753341 -0.484656
O20   O     O_R   0.771515 0.894517 0.752956 -0.684902
O21   O     O_R   1.000000 0.456840 0.191920 -0.535800
O22   O     O_R   0.456590 0.000000 0.191970 -0.541402
O23   O     O_R   0.543410 1.000000 0.808030 -0.541429
O24   O     O_R   0.543410 0.000000 0.191970 -0.541439
O25   O     O_R   0.456590 1.000000 0.808030 -0.541469
O26   O     O_R   0.956590 0.500000 0.691970 -0.541428
O27   O     O_R   0.043410 0.500000 0.308030 -0.541402
O28   O     O_R   0.043410 0.500000 0.691970 -0.541469
O29   O     O_3   0.500000 0.000000 0.749970 -0.451952
O30   O     O_R   0.956590 0.500000 0.308030 -0.541438
O31   O     O_R   0.438980 0.103680 0.265220 -0.533102
O32   O     O_R   0.561020 0.896320 0.734780 -0.533432
O33   O     O_R   0.561020 0.896320 0.265220 -0.533049
O34   O     O_R   0.438980 0.103680 0.734780 -0.533368
O35   O     O_R   0.438980 0.896320 0.734780 -0.532990
O36   O     O_R   0.561020 0.103680 0.265220 -0.533341
O37   O     O_R   0.561020 0.103680 0.734780 -0.533027
O38   O     O_R   0.438980 0.896320 0.265220 -0.533387
O39   O     O_R   0.938980 0.603680 0.765220 -0.533070
O40   O     O_3   1.000000 0.500000 0.750030 -0.451949
O41   O     O_R   0.061020 0.396320 0.234780 -0.533466
O42   O     O_R   0.061020 0.396320 0.765220 -0.533007
O43   O     O_R   0.938980 0.603680 0.234780 -0.533420
O44   O     O_R   0.938980 0.396320 0.234780 -0.532976
O45   O     O_R   0.061020 0.603680 0.765220 -0.533364
O46   O     O_R   0.061020 0.603680 0.234780 -0.533011
O47   O     O_R   0.938980 0.396320 0.765220 -0.533401
O48   O     O_R   0.603420 0.939280 0.234840 -0.523566
O49   O     O_R   0.396580 0.060720 0.765160 -0.523674
O50   O     O_R   0.396580 0.060720 0.234840 -0.523404
O51   O     O_3   0.000000 0.500000 0.249970 -0.451985
O52   O     O_R   0.603420 0.939280 0.765160 -0.523416
O53   O     O_R   0.603420 0.060720 0.765160 -0.523948
O54   O     O_R   0.396580 0.939280 0.234840 -0.523762
O55   O     O_R   0.396580 0.939280 0.765160 -0.523883
O56   O     O_R   0.603420 0.060720 0.234840 -0.523764
O57   O     O_R   0.103420 0.439280 0.734840 -0.523799
O58   O     O_R   0.896580 0.560720 0.265160 -0.523445
O59   O     O_R   0.896580 0.560720 0.734840 -0.523541
O60   O     O_R   0.103420 0.439280 0.265160 -0.523283
O61   O     O_R   0.103420 0.560720 0.265160 -0.523886
O62   O     O_R   0.500000 0.956840 0.308080 -0.535805
O63   O     O_R   0.896580 0.439280 0.734840 -0.523820
O64   O     O_R   0.896580 0.439280 0.265160 -0.523887
O65   O     O_R   0.103420 0.560720 0.734840 -0.523755
O66   O     O_2   0.962723 0.584340 0.431832 -0.484556
O67   O     O_2   0.037277 0.415660 0.568168 -0.484552
O68   O     O_2   0.037275 0.415660 0.431832 -0.484558
O69   O     O_2   0.962725 0.584340 0.568168 -0.484567
O70   O     O_2   0.462655 0.084310 0.931832 -0.484546
O71   O     O_2   0.537345 0.915690 0.068168 -0.484572
O72   O     O_2   0.537344 0.915690 0.931832 -0.484561
O73   O     O_R   0.500000 0.043160 0.691920 -0.535795
O74   O     O_2   0.462656 0.084310 0.068168 -0.484574
O75   O     O_2   0.092388 0.500340 0.068207 -0.471643
O76   O     O_2   0.907610 0.500108 0.931792 -0.471585
O77   O     O_2   0.907610 0.499661 0.068208 -0.471620
O78   O     O_2   0.092389 0.499890 0.931792 -0.471553
O79   O     O_2   0.592384 0.000211 0.568205 -0.471618
O80   O     O_2   0.407590 0.000224 0.431795 -0.471610
O81   O     O_2   0.407606 0.999785 0.568211 -0.471604
O82   O     O_2   0.592369 0.999768 0.431789 -0.471660
O83   O     O_2   0.498441 0.895999 0.427108 -0.485878
O84   O     O_R   0.500000 0.043160 0.308080 -0.535801
O85   O     O_R   0.517109 0.855004 0.389230 -0.691137
O86   O     O_2   0.501451 0.896012 0.572879 -0.485859
O87   O     O_R   0.483179 0.854959 0.610788 -0.691242
O88   O     O_2   0.501360 0.103984 0.427122 -0.485881
O89   O     O_R   0.483093 0.145034 0.389212 -0.691150
O90   O     O_2   0.498574 0.103981 0.572875 -0.485861
O91   O     O_R   0.516768 0.145048 0.610789 -0.691338
O92   O     O_2   0.998642 0.395984 0.927098 -0.485868
O93   O     O_R   0.017686 0.355076 0.889242 -0.691167
O94   O     O_2   0.001601 0.396011 0.072885 -0.485851
O95   O     O_R   0.500000 0.956840 0.691920 -0.535792
O96   O     O_R   0.983176 0.354966 0.110778 -0.691184
O97   O     O_2   0.001357 0.604013 0.927098 -0.485859
O98   O     O_R   0.982315 0.644923 0.889242 -0.691091
O99   O     O_2   0.998400 0.603990 0.072885 -0.485849
O100  O     O_R   0.016817 0.645036 0.110778 -0.691231
O101  O     O_2   0.348548 0.650422 0.253711 -0.484859
O102  O     O_R   0.271501 0.605500 0.253266 -0.685004
O103  O     O_2   0.651415 0.349620 0.746883 -0.484782
O104  O     O_R   0.728468 0.394533 0.747230 -0.685080
O105  O     O_2   0.651457 0.349578 0.253724 -0.484866
O106  O     O_R   0.000000 0.456840 0.808080 -0.535798
O107  O     O_R   0.728507 0.394493 0.253271 -0.685015
O108  O     O_2   0.348543 0.650426 0.746267 -0.484766
O109  O     O_R   0.271495 0.605508 0.746725 -0.685059
O110  O     O_2   0.348664 0.349715 0.748862 -0.484798
O111  O     O_R   0.271598 0.394614 0.748870 -0.684941
O112  O     O_2   0.651414 0.650377 0.253062 -0.484672
O113  O     O_R   0.728471 0.605467 0.252726 -0.684920
O114  O     O_2   0.651430 0.650394 0.746664 -0.484736
O115  O     O_R   0.728484 0.605481 0.747050 -0.684846
O116  O     O_2   0.348483 0.349511 0.254456 -0.484626
Zn1   Zn    Zn3+2 0.438080 0.000000 0.228270 0.973704
Zn2   Zn    Zn3+2 0.500000 0.938490 0.728240 0.975256
Zn3   Zn    Zn3+2 0.500000 0.938490 0.271760 0.975173
Zn4   Zn    Zn3+2 0.500000 0.061510 0.728240 0.975252
Zn5   Zn    Zn3+2 0.000000 0.561510 0.771760 0.975244
Zn6   Zn    Zn3+2 0.000000 0.438490 0.228240 0.975185
Zn7   Zn    Zn3+2 1.000000 0.438490 0.771760 0.975237
Zn8   Zn    Zn3+2 0.000000 0.561510 0.228240 0.975181
Zn9   Zn    Zn3+2 0.561920 0.000000 0.771730 0.973645
Zn10  Zn    Zn3+2 0.561920 0.000000 0.228270 0.973645
Zn11  Zn    Zn3+2 0.438080 0.000000 0.771730 0.973570
Zn12  Zn    Zn3+2 0.938080 0.500000 0.728270 0.973648
Zn13  Zn    Zn3+2 0.061920 0.500000 0.271730 0.973705
Zn14  Zn    Zn3+2 0.061920 0.500000 0.728270 0.973572
Zn15  Zn    Zn3+2 0.938080 0.500000 0.271730 0.973642
Zn16  Zn    Zn3+2 0.500000 0.061510 0.271760 0.975184

loop_
_geom_bond_atom_site_label_1
_geom_bond_atom_site_label_2
_ccdc_geom_bond_type
O60   Zn13  S    
O30   Zn15  S    
C221  H85   S    
C240  O77   S    
O51   Zn13  S    
C81   C134  S    
C174  O68   S    
C211  C220  A    
C39   O35   A    
C22   C203  A    
C153  O109  S    
C236  N1    S    
C148  O98   S    
C85   C114  S    
C83   H31   S    
O36   Zn16  S    
H51   O18   S    
C45   O57   A    
C38   C92   S    
C80   H28   S    
C64   C118  S    
C105  C123  S    
H47   O9    S    
C114  C131  S    
C48   C99   S    
C69   C166  S    
C45   O42   A    
O51   Zn8   S    
O45   Zn5   S    
C141  O83   D    
C53   C106  S    
C12   C16   A    
O41   Zn6   S    
C61   C115  S    
C9    C247  A    
C59   C111  S    
C13   C130  S    
H16   O98   S    
C242  N7    A    
O48   Zn10  S    
O61   Zn13  S    
C244  N7    A    
C234  N3    S    
C81   C108  S    
C203  N7    S    
C199  C200  A    
C101  C103  T    
C174  N1    A    
C207  H71   S    
C178  O72   S    
C208  H72   S    
C23   C143  S    
C171  N1    A    
C215  H80   S    
C159  O5    S    
C39   C91   S    
C33   O30   A    
O29   Zn11  S    
C211  H75   S    
C67   C85   S    
C191  C192  A    
C245  O82   S    
C56   C154  S    
C54   C152  S    
C5    C18   A    
C204  N6    S    
O84   Zn16  S    
C179  O74   S    
H36   O102  S    
C80   C133  S    
C218  H82   S    
C176  N3    A    
C28   C204  A    
O106  Zn7   S    
C181  C190  A    
C111  C130  S    
C82   C136  S    
C168  H6    S    
O25   Zn11  S    
C231  O106  A    
O21   Zn6   S    
C53   C132  S    
H40   O111  S    
C38   O34   A    
C79   C137  S    
H49   O14   S    
C81   H29   S    
C186  C199  A    
C120  C138  S    
C135  H2    S    
C53   C71   S    
C118  C136  S    
C208  C217  A    
C63   C161  S    
O73   Zn4   S    
O40   Zn14  S    
C58   C110  S    
O37   Zn4   S    
C49   O45   A    
H39   O109  S    
C179  N4    A    
C74   C120  S    
C13   C94   T    
C146  H3    S    
C78   C106  S    
C76   C122  S    
C142  O87   S    
C1    C124  A    
O51   Zn6   S    
C159  O4    D    
C24   C131  S    
C59   C140  S    
C125  C205  S    
C211  C235  A    
C76   H25   S    
C242  O79   S    
C50   O61   A    
C223  H87   S    
H42   O115  S    
O38   Zn3   S    
C209  H73   S    
C195  C196  A    
C32   O26   A    
C15   C248  A    
C72   C118  S    
C108  H64   S    
C15   H91   S    
C213  C235  A    
C35   C132  S    
C46   C133  S    
C167  H5    S    
O2    Zn8   S    
C60   C114  S    
C147  O96   S    
C201  H78   S    
C230  O73   A    
C101  C139  S    
H17   O100  S    
C179  C186  A    
C21   C202  A    
C35   C96   T    
C43   O39   A    
C166  O19   D    
C106  C125  S    
C31   O23   A    
C177  C188  A    
C119  H59   S    
C62   C80   S    
C180  C189  A    
O29   Zn4   S    
C75   H24   S    
C14   H90   S    
O39   Zn5   S    
C72   H20   S    
C2    C129  S    
C56   C138  S    
C199  H56   S    
C196  H23   S    
C77   C131  S    
C32   O28   A    
C43   C104  S    
C90   C102  T    
C145  O93   S    
H41   O113  S    
C173  C184  A    
C66   C128  S    
C123  C194  S    
C47   O58   A    
C40   C89   S    
C161  O8    D    
C175  C181  A    
C67   C165  S    
O26   Zn12  S    
O35   Zn2   S    
C122  H60   S    
C22   C142  S    
O59   Zn12  S    
C82   H30   S    
O53   Zn9   S    
C214  H79   S    
H43   O3    S    
C67   C121  S    
C51   O63   A    
C90   C138  S    
C44   C103  S    
C70   H18   S    
C115  C132  S    
C42   O54   A    
C23   C146  A    
C26   C167  A    
C165  O17   D    
C37   C93   S    
C45   C102  S    
C47   O43   A    
C33   O27   A    
O40   Zn5   S    
C145  O92   D    
O62   Zn3   S    
C29   C149  S    
C150  O102  S    
C210  C219  A    
C164  O16   S    
C200  H67   S    
C44   O41   A    
C3    C9    A    
C107  H65   S    
C168  C183  A    
C65   C163  S    
C83   C110  S    
C66   C164  S    
C114  H69   S    
C144  O90   D    
O46   Zn8   S    
C126  C216  S    
C89   C216  T    
C17   H93   S    
O44   Zn6   S    
C32   C226  S    
C52   C105  S    
C7    C20   A    
C19   H95   S    
H48   O11   S    
C149  O100  S    
C184  C190  A    
H15   O96   S    
C25   C144  S    
C147  O94   D    
C202  N8    S    
C56   C109  S    
C16   H92   S    
C176  O70   S    
C207  C233  A    
C14   C247  A    
C55   C153  S    
C36   O52   A    
C214  C236  A    
C34   O31   A    
C25   C203  A    
C59   C156  S    
O27   Zn13  S    
C84   C109  S    
O64   Zn15  S    
C55   C108  S    
C188  C192  A    
C153  O108  D    
C121  C139  S    
C86   C111  S    
C40   O36   A    
C122  C140  S    
C109  H68   S    
C105  H63   S    
C163  O14   S    
C69   C122  S    
C12   C246  A    
C84   H32   S    
C118  H55   S    
C177  O71   S    
C115  H54   S    
C62   C160  S    
C175  N2    A    
C77   C121  S    
C214  C223  A    
C104  C113  T    
C55   C73   S    
C151  O103  D    
C155  O113  S    
O1    Zn16  S    
C121  H61   S    
C239  O76   S    
C3    C239  A    
C53   C151  S    
C14   C15   A    
C6    C242  A    
C85   H33   S    
C42   C87   S    
C59   C76   S    
C4    C244  A    
C3    C16   A    
C217  C225  A    
C48   O44   A    
C127  C227  S    
C171  O66   S    
C38   O49   A    
C174  C180  A    
C29   C206  A    
C240  N5    A    
C169  H7    S    
C88   C205  T    
C231  O13   A    
C215  C224  A    
C22   C135  A    
C237  N5    A    
O40   Zn7   S    
C154  O110  D    
C5    C11   A    
C63   C117  S    
C117  C134  S    
C128  C238  S    
C178  N3    A    
C17   C20   A    
C112  C230  S    
C18   C19   A    
O43   Zn8   S    
O34   Zn4   S    
C243  O80   S    
C51   O47   A    
C76   C130  S    
C27   C168  A    
C42   O38   A    
C230  O95   A    
C8    C246  A    
C240  C246  A    
C34   O50   A    
C162  O11   S    
C12   H88   S    
C172  C231  S    
C229  O62   A    
C185  C191  A    
C141  O85   S    
C74   H22   S    
C210  H74   S    
C56   C74   S    
C112  C157  A    
C206  N5    S    
C148  O97   D    
C8    C248  A    
C34   C95   S    
C107  C126  S    
C24   C95   T    
H9    O85   S    
C106  H62   S    
C163  O12   D    
C23   C202  A    
C70   C116  S    
C244  O81   S    
C219  H83   S    
C72   C126  S    
C181  C195  A    
C26   C204  A    
H46   O7    S    
C6    C19   A    
C79   C100  T    
C109  C128  S    
O40   Zn12  S    
C92   C238  T    
C207  C215  A    
C173  O67   S    
O49   Zn11  S    
C4    C17   A    
C46   C97   T    
C117  H57   S    
C64   C126  S    
O31   Zn16  S    
H37   O104  S    
C57   C134  S    
C41   O53   A    
C83   C137  S    
C161  O9    S    
C176  C187  A    
O65   Zn14  S    
C213  H77   S    
C41   C88   S    
C71   H19   S    
C91   C227  T    
C158  O3    S    
C5    C245  A    
C241  O78   S    
C6    C10   A    
C65   C129  S    
C218  C224  A    
C167  C172  A    
C116  C133  S    
C55   C134  S    
C166  O20   S    
C170  H8    S    
C27   C206  A    
C21   C124  A    
C160  O7    S    
C21   C141  S    
C73   C127  S    
C156  O115  S    
C143  O89   S    
C36   O32   A    
C116  H53   S    
C212  H76   S    
C57   C98   T    
C220  C226  A    
H14   O93   S    
O55   Zn11  S    
C212  C236  A    
O22   Zn1   S    
H10   O87   S    
C210  C234  A    
C189  C190  A    
C175  O69   S    
C241  N6    A    
C66   C120  S    
C177  N4    A    
O47   Zn7   S    
C44   O60   A    
C36   C94   S    
C28   C169  A    
C31   O25   A    
C184  C197  A    
C124  H89   S    
C120  H58   S    
C71   C125  S    
C245  N8    A    
C144  O91   S    
O32   Zn2   S    
C217  H81   S    
C20   H96   S    
O56   Zn10  S    
C170  C183  A    
C235  N2    S    
C171  C182  A    
C195  H12   S    
C33   C228  S    
C7    C11   A    
H38   O107  S    
C221  C228  A    
C110  C129  S    
C209  C218  A    
C151  O104  S    
C142  O86   D    
C60   C158  S    
C61   C159  S    
O95   Zn2   S    
C193  C197  A    
C152  O105  D    
C65   C83   S    
C222  C226  A    
O63   Zn12  S    
C188  C201  A    
O23   Zn9   S    
O1    Zn10  S    
C213  C222  A    
O54   Zn1   S    
H50   O16   S    
C78   C132  S    
C49   C98   S    
C178  C185  A    
C70   C123  S    
C74   C128  S    
C8    C9    A    
C86   H35   S    
C182  C189  A    
C193  H1    S    
C29   C170  A    
C85   C139  S    
C187  C191  A    
C197  H34   S    
C220  H84   S    
C86   C140  S    
C51   C96   S    
C143  O88   D    
C54   C107  S    
C187  C200  A    
C84   C138  S    
O1    Zn1   S    
C149  O99   D    
C186  C192  A    
C52   C133  S    
O29   Zn2   S    
C1    C146  A    
C30   O24   A    
C78   H27   S    
H11   O89   S    
C62   C123  S    
C37   O33   A    
C58   C75   S    
C160  O6    D    
C212  C221  A    
C65   C119  S    
C77   H26   S    
C60   C77   S    
C73   C117  S    
C119  C137  S    
O57   Zn14  S    
C68   C136  S    
C75   C119  S    
C64   C162  S    
C10   C11   A    
O51   Zn15  S    
C223  C228  A    
C69   C130  S    
C30   C224  S    
C156  O114  D    
C80   C105  S    
C47   C100  S    
C50   O46   A    
C237  C248  A    
H44   O5    S    
O33   Zn3   S    
C26   C145  S    
O52   Zn9   S    
C62   C116  S    
C37   O48   A    
C241  C247  A    
C222  H86   S    
C61   C78   S    
O24   Zn10  S    
C233  N4    S    
C54   C136  S    
C198  C201  A    
C41   O37   A    
C113  C140  S    
C71   C115  S    
C229  O84   A    
C82   C107  S    
C219  C225  A    
C48   O64   A    
C64   C82   S    
C18   H94   S    
C58   C137  S    
C52   C150  S    
O42   Zn7   S    
C155  O112  D    
C31   C225  S    
O13   Zn5   S    
C25   C157  A    
C185  C198  A    
C169  C172  A    
C198  H45   S    
C182  C196  A    
H13   O91   S    
C112  C135  A    
C4    C10   A    
C157  H4    S    
C39   O55   A    
C40   O56   A    
C111  H70   S    
C50   C97   S    
C165  O18   S    
C63   C81   S    
C28   C148  S    
C2    C93   T    
C67   C131  S    
C237  O75   S    
C87   C194  T    
O28   Zn14  S    
C152  O107  S    
C232  O2    A    
O29   Zn9   S    
C150  O101  D    
C49   O65   A    
C154  O111  S    
C164  O15   D    
C68   C99   T    
C73   H21   S    
C173  N2    A    
C43   O59   A    
C108  C127  S    
C158  O116  D    
C209  C233  A    
O50   Zn1   S    
C52   C70   S    
C58   C155  S    
C180  C193  A    
C60   C139  S    
C66   C84   S    
C1    C229  S    
C243  N8    A    
H52   O20   S    
C54   C72   S    
C27   C147  S    
C232  O21   A    
O1    Zn3   S    
O58   Zn15  S    
C7    C243  A    
C110  H66   S    
C61   C125  S    
C30   O22   A    
C208  C234  A    
C183  C232  S    
C63   C127  S    
C69   C86   S    
C75   C129  S    
C239  N6    A    
C162  O10   D    
