data_mof_unit_16404.cif
_audit_creation_date              2012-12-10T19:00:11-0500
_audit_creation_method            fapswitch 2.2
_symmetry_space_group_name_H-M    P1
_symmetry_Int_Tables_number       1
_space_group_crystal_system       triclinic
_cell_length_a                    9.537255
_cell_length_b                    10.84909
_cell_length_c                    13.438524
_cell_angle_alpha                 90.519278
_cell_angle_beta                  72.650297
_cell_angle_gamma                 90.017923
_cell_volume                      1327.16872184

loop_
_atom_site_label
_atom_site_type_symbol
_atom_type_description
_atom_site_fract_x
_atom_site_fract_y
_atom_site_fract_z
_atom_type_partial_charge
C1    C     C_R   0.499828 0.737264 0.500856 0.796353
C2    C     C_R   0.436251 0.505436 0.978798 0.079398
C3    C     C_R   0.467498 0.541717 0.873321 0.092385
C4    C     C_R   0.542308 0.529065 0.031928 0.068388
C5    C     C_R   0.670382 0.598032 0.982456 0.161808
C6    C     C_R   0.690963 0.643834 0.882667 -0.253051
C7    C     C_R   0.590147 0.617579 0.829450 -0.208699
C8    C     C_R   0.524980 0.486600 0.133083 -0.250243
C9    C     C_R   0.750562 0.585614 0.137118 -0.208536
C10   C     C_R   0.373716 0.502553 0.814835 -0.105651
C11   C     C_R   0.382034 0.937511 0.493411 0.079114
C12   C     C_R   0.421394 0.504458 0.700161 0.781181
C13   C     C_R   0.501095 0.869791 0.501869 -0.114976
C14   C     C_R   0.625336 0.935502 0.509358 -0.218072
C15   C     C_R   0.625827 0.064696 0.508030 -0.215947
C16   C     C_R   0.502375 0.129959 0.498590 -0.095708
C17   C     C_R   0.383286 0.061589 0.490399 0.099470
C18   C     C_3   0.233843 0.070054 0.476885 -0.507495
C19   C     C_3   0.230856 0.927876 0.482604 -0.198883
C20   C     C_R   0.948738 0.411566 0.445838 0.261722
C21   C     C_R   0.900123 0.580053 0.560862 -0.079205
C22   C     C_R   0.048863 0.579713 0.561232 -0.073229
C23   C     C_R   0.500559 0.262651 0.498978 0.811304
C24   C     C_R   0.096528 0.412089 0.445358 0.271615
C25   C     C_3   0.148840 0.391958 0.330386 -0.529458
C26   C     C_3   0.989769 0.388574 0.331314 -0.510484
C27   C     C_R   0.578560 0.502188 0.300106 0.798804
C28   C     C_R   0.774867 0.623270 0.034573 -0.200382
C29   C     C_R   0.623057 0.520231 0.187413 -0.046369
C30   C     C_R   0.238565 0.447536 0.865781 -0.189861
C31   C     C_R   0.200539 0.423637 0.971641 -0.152108
C32   C     C_R   0.299131 0.448873 0.027213 -0.208266
Cu1   Cu    Cu3+1 0.359330 0.500020 0.500010 0.946118
Cu2   Cu    Cu3+1 0.640670 0.499980 0.499990 0.931341
H1    H     H_    0.827770 0.612258 0.178326 0.139288
H2    H     H_    0.722334 0.112690 0.514591 0.164100
H3    H     H_    0.153520 0.115563 0.544619 0.191359
H4    H     H_    0.237394 0.107583 0.399469 0.191832
H5    H     H_    0.151457 0.892741 0.555335 0.135929
H6    H     H_    0.824887 0.647360 0.607684 0.124522
H7    H     H_    0.084796 0.646159 0.608902 0.127616
H8    H     H_    0.207348 0.473855 0.289235 0.225711
H9    H     H_    0.206801 0.302466 0.308191 0.186092
H10   H     H_    0.960315 0.466015 0.287759 0.212879
H11   H     H_    0.785285 0.700642 0.845568 0.135784
H12   H     H_    0.954051 0.296036 0.312389 0.195129
H13   H     H_    0.872813 0.675824 0.997224 0.136320
H14   H     H_    0.435046 0.428078 0.172491 0.135887
H15   H     H_    0.163857 0.419084 0.823038 0.157674
H16   H     H_    0.262813 0.425553 0.108379 0.136721
H17   H     H_    0.095862 0.381231 0.010285 0.148638
H18   H     H_    0.607433 0.660585 0.754617 0.153642
H19   H     H_    0.721609 0.887865 0.516432 0.155106
N1    N     N_R   0.852320 0.499070 0.499340 -0.185609
N2    N     N_R   0.148230 0.499110 0.499340 -0.180423
O1    O     O_R   0.381190 0.680360 0.500000 -0.576482
O2    O     O_R   0.618780 0.680320 0.499990 -0.597987
O3    O     O_R   0.323230 0.500000 0.650990 -0.585503
O4    O     O_R   0.560820 0.499960 0.650980 -0.576037
O5    O     O_R   0.381220 0.319680 0.500010 -0.578265
O6    O     O_R   0.618810 0.319640 0.500000 -0.583266
O7    O     O_R   0.439180 0.500040 0.349020 -0.574248
O8    O     O_R   0.676770 0.500000 0.349010 -0.590757
C33   C     C_R   0.220733 0.863377 0.384311 0.188225
C34   C     C_R   0.341908 0.851999 0.293767 -0.125978
C35   C     C_R   0.328495 0.786783 0.206802 -0.129521
C36   C     C_R   0.194401 0.733408 0.208725 -0.141922
C37   C     C_R   0.073202 0.745656 0.297433 -0.134771
C38   C     C_R   0.086129 0.810553 0.384568 -0.132163
H20   H     H_    0.446954 0.892510 0.290247 0.120863
H21   H     H_    0.422237 0.777558 0.137885 0.142404
H22   H     H_    0.184244 0.682915 0.141417 0.136739
H23   H     H_    0.969155 0.704638 0.298941 0.133775
H24   H     H_    0.991175 0.818843 0.452777 0.104316

loop_
_geom_bond_atom_site_label_1
_geom_bond_atom_site_label_2
_ccdc_geom_bond_type
Cu1   N2    S    
C28   H13   S    
Cu1   O3    S    
C6    H11   S    
C27   C29   S    
C4    C8    A    
C25   H9    S    
C26   H10   S    
C24   N2    A    
C11   C19   S    
C5    C6    A    
C8    C29   A    
C19   H5    S    
C18   H3    S    
C7    H18   S    
C18   C19   S    
C3    C7    A    
C30   C31   A    
C22   H7    S    
C16   C17   A    
C15   C16   A    
C2    C32   A    
C36   H22   S    
C12   O4    A    
C31   C32   A    
C37   C38   A    
Cu2   O2    S    
C9    C29   A    
C12   O3    A    
C37   H23   S    
Cu1   O1    S    
C35   C36   A    
C21   C22   A    
Cu1   Cu2   S    
C23   O5    A    
C36   C37   A    
C20   C24   A    
C24   C25   S    
C20   N1    A    
Cu1   O7    S    
C25   C26   S    
Cu2   O6    S    
C2    C4    A    
C8    H14   S    
C27   O7    A    
C1    O2    A    
C5    C28   A    
C10   C30   A    
C35   H21   S    
C19   C33   S    
C17   C18   S    
C38   H24   S    
C33   C38   A    
C32   H16   S    
C6    C7    A    
C10   C12   S    
C30   H15   S    
Cu2   N1    S    
C16   C23   S    
Cu2   O4    S    
C1    C13   S    
C15   H2    S    
C11   C17   A    
C1    O1    A    
C31   H17   S    
C4    C5    A    
C25   H8    S    
C22   N2    A    
Cu1   O5    S    
C33   C34   A    
C2    C3    A    
C18   H4    S    
C3    C10   A    
C11   C13   A    
C21   N1    A    
C21   H6    S    
C20   C26   S    
Cu2   O8    S    
C26   H12   S    
C23   O6    A    
C14   H19   S    
C34   C35   A    
C9    H1    S    
C14   C15   A    
C27   O8    A    
C13   C14   A    
C34   H20   S    
C9    C28   A    
