data_mof_unit_25036.cif
_audit_creation_date              2012-12-10T17:03:57-0500
_audit_creation_method            fapswitch 2.2
_symmetry_space_group_name_H-M    P1
_symmetry_Int_Tables_number       1
_space_group_crystal_system       triclinic
_cell_length_a                    9.848256
_cell_length_b                    11.04839
_cell_length_c                    15.849232
_cell_angle_alpha                 94.464657
_cell_angle_beta                  79.800612
_cell_angle_gamma                 111.784649
_cell_volume                      1575.91343833

loop_
_atom_site_label
_atom_site_type_symbol
_atom_type_description
_atom_site_fract_x
_atom_site_fract_y
_atom_site_fract_z
_atom_type_partial_charge
C1    C     C_R   0.556479 0.745617 0.506317 0.859433
C2    C     C_R   0.443405 0.254350 0.493858 0.862907
C3    C     C_R   0.317986 0.430122 0.074984 -0.212666
C4    C     C_R   0.664484 0.487149 0.923121 -0.177595
C5    C     C_R   0.216070 0.402699 0.018959 -0.227743
C6    C     C_R   0.760043 0.488320 0.978336 -0.230695
C7    C     C_2   0.588288 0.885214 0.509880 -0.362334
C8    C     C_2   0.411301 0.114668 0.490682 -0.363704
C9    C     C_2   0.484350 0.930328 0.498897 -0.151381
C10   C     C_2   0.515116 0.069498 0.501799 -0.148339
C11   C     C_2   0.924052 0.491396 0.493411 0.002796
C12   C     C_2   0.082709 0.517706 0.501620 0.026336
C13   C     C_R   0.412968 0.489697 0.662843 0.797484
C14   C     C_R   0.588368 0.515135 0.337409 0.821417
C15   C     C_R   0.361675 0.478992 0.756074 -0.095684
C16   C     C_R   0.638430 0.518073 0.244248 -0.090646
C17   C     C_R   0.161778 0.399543 0.875429 -0.209425
C18   C     C_R   0.814655 0.496464 0.122076 -0.201918
C19   C     C_R   0.210138 0.420347 0.787860 -0.244669
C20   C     C_R   0.771956 0.501362 0.210429 -0.250990
C21   C     C_R   0.464988 0.519470 0.814035 0.176765
C22   C     C_R   0.548173 0.531466 0.188550 0.178292
C23   C     C_R   0.418475 0.477412 0.899682 0.048131
C24   C     C_R   0.577215 0.501219 0.100407 0.044525
C25   C     C_R   0.264759 0.426969 0.931574 0.123007
C26   C     C_R   0.718134 0.495847 0.066762 0.125723
C27   C     C_R   0.520442 0.485516 0.955013 0.080394
C28   C     C_R   0.471730 0.476865 0.044591 0.060300
Cu1   Cu    Cu3+1 0.362980 0.479380 0.485080 0.942355
Cu2   Cu    Cu3+1 0.637020 0.520620 0.514920 0.956598
H1    H     H_    0.098772 0.362414 0.044159 0.137177
H2    H     H_    0.867371 0.483939 0.951679 0.140102
H3    H     H_    0.844179 0.493584 0.252240 0.162700
H4    H     H_    0.128766 0.390839 0.745045 0.165086
H5    H     H_    0.043946 0.357573 0.898863 0.136001
H6    H     H_    0.920945 0.488715 0.097069 0.139597
H7    H     H_    0.274406 0.403375 0.140988 0.141729
H8    H     H_    0.700636 0.475986 0.855602 0.147411
H9    H     H_    0.624169 0.135496 0.513103 0.182910
H10   H     H_    0.375355 0.864327 0.487489 0.176345
H11   H     H_    0.302435 0.048438 0.479342 0.143058
H12   H     H_    0.697064 0.951420 0.521370 0.145385
H13   H     H_    0.140728 0.601542 0.538765 0.125111
H14   H     H_    0.875566 0.422201 0.444715 0.157075
N1    N     N_2   0.842890 0.551600 0.537350 -0.080715
N2    N     N_2   0.157110 0.448400 0.462650 -0.081365
O1    O     O_R   0.426810 0.668300 0.492040 -0.587500
O2    O     O_R   0.573190 0.331700 0.507960 -0.586480
O3    O     O_R   0.658240 0.703130 0.517240 -0.563626
O4    O     O_R   0.341760 0.296870 0.482760 -0.589063
O5    O     O_R   0.319390 0.472820 0.610170 -0.594179
O6    O     O_R   0.680610 0.527180 0.389830 -0.596755
O7    O     O_R   0.550820 0.507640 0.635370 -0.557801
O8    O     O_R   0.449180 0.492360 0.364630 -0.561244
N3    N     N_2   0.449020 0.598036 0.219600 -0.422145
H15   H     H_    0.340252 0.543093 0.241842 0.257032
C29   C     C_3   0.476233 0.719935 0.179570 -0.661417
H16   H     H_    0.414696 0.774343 0.221280 0.223381
H17   H     H_    0.437722 0.702008 0.116482 0.230226
H18   H     H_    0.596214 0.780910 0.171063 0.233590
N4    N     N_2   0.607737 0.618373 0.791632 -0.435338
H19   H     H_    0.682991 0.592236 0.747953 0.283854
C30   C     C_3   0.608112 0.746855 0.779353 -0.639354
H20   H     H_    0.723548 0.818474 0.772435 0.218139
H21   H     H_    0.541825 0.776151 0.835751 0.228263
H22   H     H_    0.562139 0.748613 0.720526 0.214458
N5    N     N_2   0.075033 0.328845 0.430791 -0.349329
H23   H     H_    0.088463 0.252363 0.456866 0.274622
C31   C     C_3   0.095756 0.322378 0.338309 -0.664123
H24   H     H_    0.209655 0.326499 0.312208 0.234731
H25   H     H_    0.075795 0.403992 0.312597 0.209505
H26   H     H_    0.015575 0.229090 0.317251 0.204273
N6    N     N_2   0.896509 0.635143 0.603340 -0.321575
H27   H     H_    0.948887 0.603386 0.642910 0.217503
C32   C     C_3   0.963923 0.771481 0.580815 -0.597052
H28   H     H_    0.084301 0.807881 0.584035 0.172973
H29   H     H_    0.911553 0.828378 0.626903 0.214983
H30   H     H_    0.950080 0.787420 0.514949 0.233169

loop_
_geom_bond_atom_site_label_1
_geom_bond_atom_site_label_2
_ccdc_geom_bond_type
C6    H2    S    
N3    H15   S    
C30   H21   S    
N6    H27   S    
Cu2   N1    S    
C18   C26   A    
C15   C19   A    
Cu1   O1    S    
Cu2   O2    S    
C3    C28   A    
C24   C26   A    
C12   H13   S    
C29   H17   S    
Cu1   O8    S    
C18   C20   A    
N1    N6    S    
C7    H12   S    
N4    C30   S    
C2    O4    A    
C13   O5    A    
C14   O6    A    
C23   C27   A    
C9    C10   S    
C21   N4    S    
C30   H22   S    
N6    C32   S    
C31   H24   S    
C13   O7    A    
Cu1   O4    S    
C21   C23   A    
Cu2   O7    S    
C31   H25   S    
N5    H23   S    
C8    H11   S    
C4    C6    A    
C1    O1    A    
C29   H18   S    
C2    O2    A    
C9    H10   S    
C10   H9    S    
N5    C31   S    
C31   H26   S    
C32   H28   S    
Cu1   Cu2   S    
C16   C20   A    
C11   H14   S    
C32   H29   S    
C5    C25   A    
C20   H3    S    
C12   N2    D    
C14   O8    A    
Cu2   O3    S    
C4    H8    S    
C13   C15   S    
C22   C24   A    
C11   N1    D    
C4    C27   A    
Cu1   O5    S    
C7    C9    D    
Cu2   O6    S    
C16   C22   A    
C1    C7    S    
C2    C8    S    
C24   C28   A    
C3    C5    A    
C19   H4    S    
C11   C12   S    
C22   N3    S    
Cu1   N2    S    
C17   C25   A    
N3    C29   S    
N2    N5    S    
C29   H16   S    
C6    C26   A    
C18   H6    S    
C17   C19   A    
C14   C16   S    
C23   C25   A    
N4    H19   S    
C32   H30   S    
C30   H20   S    
C15   C21   A    
C3    H7    S    
C8    C10   D    
C27   C28   A    
C17   H5    S    
C1    O3    A    
C5    H1    S    
