data_mof_unit_31793.cif
_audit_creation_date              2012-12-10T16:59:12-0500
_audit_creation_method            fapswitch 2.2
_symmetry_space_group_name_H-M    P1
_symmetry_Int_Tables_number       1
_space_group_crystal_system       triclinic
_cell_length_a                    7.812758
_cell_length_b                    8.5359
_cell_length_c                    27.537424
_cell_angle_alpha                 91.622882
_cell_angle_beta                  85.065575
_cell_angle_gamma                 93.607584
_cell_volume                      1825.5245785

loop_
_atom_site_label
_atom_site_type_symbol
_atom_type_description
_atom_site_fract_x
_atom_site_fract_y
_atom_site_fract_z
_atom_type_partial_charge
Br1   Br    Br    0.713066 0.023713 0.557474 -0.474026
Br2   Br    Br    0.284537 0.976144 0.443178 -0.432134
C1    C     C_R   0.544570 0.794533 0.499092 0.950412
C2    C     C_R   0.660241 0.673403 0.123748 -0.022521
C3    C     C_R   0.507804 0.491097 0.647512 -0.074744
C4    C     C_R   0.505404 0.519241 0.352644 -0.037410
C5    C     C_R   0.706889 0.653442 0.020749 0.049639
C6    C     C_R   0.633182 0.359698 0.972544 0.050311
C7    C     C_R   0.631200 0.367773 0.024072 0.049787
C8    C     C_R   0.711861 0.644882 0.969128 0.048296
C9    C     C_R   0.660762 0.515760 0.047884 0.076959
C10   C     C_R   0.667282 0.499434 0.945607 0.078152
C11   C     C_R   0.738796 0.796734 0.046563 -0.215332
C12   C     C_R   0.455368 0.205486 0.500938 0.970680
C13   C     C_R   0.594415 0.217423 0.946907 -0.217352
C14   C     C_R   0.714426 0.806367 0.097014 -0.130977
C15   C     C_R   0.577858 0.214567 0.897214 -0.131601
C16   C     C_R   0.500919 0.498464 0.594225 0.901403
C17   C     C_R   0.499492 0.501461 0.405830 0.932402
C18   C     C_R   0.752503 0.778509 0.940033 -0.212440
C19   C     C_R   0.592608 0.233688 0.053042 -0.221489
C20   C     C_2   0.560624 0.956562 0.507918 0.012287
C21   C     C_2   0.438946 0.043442 0.492240 0.009668
C22   C     C_R   0.650057 0.627595 0.818178 0.559025
C23   C     C_R   0.651134 0.494621 0.894705 -0.035908
C24   C     C_R   0.563402 0.406401 0.177558 0.555828
C25   C     C_R   0.571691 0.353136 0.821705 0.573891
C26   C     C_R   0.624739 0.683458 0.174434 0.570374
C27   C     C_R   0.683180 0.438798 0.712750 -0.121584
C28   C     C_R   0.682064 0.589692 0.279133 -0.132840
C29   C     C_R   0.659412 0.439123 0.663816 -0.135308
C30   C     C_R   0.664061 0.571284 0.328894 -0.206508
C31   C     C_R   0.373872 0.538166 0.682146 -0.130840
C32   C     C_R   0.359370 0.492410 0.325492 -0.133278
C33   C     C_R   0.398116 0.537385 0.732612 -0.037967
C34   C     C_R   0.639019 0.526888 0.099487 -0.041525
C35   C     C_R   0.375818 0.520513 0.274801 -0.023821
C36   C     C_R   0.555995 0.488651 0.747027 0.291102
C37   C     C_R   0.541163 0.561578 0.251799 0.313158
C38   C     C_2   0.209793 0.588860 0.666510 0.434746
C39   C     C_2   0.193457 0.426617 0.348704 0.456249
C40   C     C_2   0.983530 0.297202 0.483744 0.787516
C41   C     C_2   0.008379 0.699759 0.520585 0.755276
C42   C     C_2   0.257629 0.584505 0.769544 0.446865
C43   C     C_2   0.223245 0.500018 0.245616 0.427349
C44   C     C_R   0.680354 0.632513 0.867548 -0.012850
C45   C     C_R   0.592475 0.391937 0.126924 -0.016909
C46   C     C_R   0.735971 0.772265 0.890282 -0.125278
C47   C     C_R   0.573727 0.245952 0.103425 -0.126510
C48   C     C_R   0.601090 0.352716 0.871057 -0.021733
H1    H     H_    0.763801 0.878827 0.869852 0.190699
H2    H     H_    0.571022 0.105665 0.964071 0.141180
H3    H     H_    0.794799 0.891416 0.954442 0.141774
H4    H     H_    0.572248 0.116859 0.038228 0.141348
H5    H     H_    0.176500 0.709795 0.672485 0.093016
H6    H     H_    0.074459 0.480172 0.343311 0.031796
H7    H     H_    0.025313 0.239271 0.514769 0.066042
H8    H     H_    0.978775 0.768437 0.490219 0.068326
H9    H     H_    0.146668 0.639944 0.758419 0.059568
H10   H     H_    0.109392 0.429590 0.258864 0.062050
H11   H     H_    0.539638 0.140342 0.123884 0.201207
H12   H     H_    0.776932 0.595608 0.348750 0.171543
H13   H     H_    0.762486 0.399306 0.638544 0.221738
H14   H     H_    0.808248 0.620638 0.261302 0.163154
H15   H     H_    0.802716 0.400770 0.724325 0.168464
H16   H     H_    0.736681 0.919435 0.114979 0.187810
H17   H     H_    0.542719 0.103500 0.879567 0.196247
H18   H     H_    0.779131 0.905477 0.029063 0.138740
N1    N     N_R   0.591769 0.490228 0.796941 -0.335421
N2    N     N_R   0.574034 0.551239 0.199968 -0.337272
N3    N     N_2   0.950320 0.457960 0.486880 -0.221989
N4    N     N_2   0.049680 0.542040 0.513120 -0.205762
O1    O     O_R   0.389250 0.738570 0.503220 -0.614908
O2    O     O_2   0.523953 0.276944 0.204338 -0.523358
O3    O     O_2   0.638852 0.823897 0.197997 -0.516250
O4    O     O_2   0.520663 0.218597 0.798723 -0.522636
O5    O     O_2   0.107747 0.493851 0.648955 -0.541045
O6    O     O_2   0.188435 0.307263 0.372244 -0.471937
O7    O     O_2   0.946902 0.218718 0.448006 -0.508088
O8    O     O_2   0.019645 0.762883 0.560562 -0.544054
O9    O     O_2   0.261402 0.560040 0.812879 -0.560535
O10   O     O_2   0.221376 0.564413 0.206648 -0.555693
O11   O     O_R   0.610750 0.261430 0.496780 -0.598080
O12   O     O_R   0.678390 0.711630 0.494810 -0.649246
O13   O     O_R   0.321610 0.288370 0.505190 -0.643513
O14   O     O_R   0.355440 0.513440 0.575450 -0.569637
O15   O     O_R   0.644560 0.486560 0.424550 -0.619992
O16   O     O_R   0.644590 0.486500 0.567040 -0.628466
O17   O     O_R   0.355410 0.513500 0.432960 -0.608661
O18   O     O_2   0.676081 0.758914 0.791679 -0.535723
Zn1   Zn    Zn3+2 0.306940 0.517990 0.505620 1.030039
Zn2   Zn    Zn3+2 0.693060 0.482010 0.494380 1.009032

loop_
_geom_bond_atom_site_label_1
_geom_bond_atom_site_label_2
_ccdc_geom_bond_type
C5    C8    A    
C4    C30   A    
C2    C34   A    
C43   H10   S    
C41   N4    S    
C28   H14   S    
C32   C35   A    
C43   O10   D    
C19   C47   A    
O13   Zn1   S    
C45   C47   A    
C5    C9    A    
O11   Zn2   S    
C16   O14   A    
C17   O17   A    
C9    C34   A    
C17   O15   A    
O14   Zn1   S    
C19   H4    S    
C42   H9    S    
C34   C45   A    
C23   C48   A    
C41   H8    S    
C24   O2    S    
C46   H1    S    
N3    Zn2   S    
O16   Zn2   S    
C8    C18   A    
C6    C7    A    
C3    C31   A    
C27   C36   A    
O17   Zn1   S    
Br1   C20   S    
C25   N1    A    
C25   C48   A    
C36   N1    S    
C40   O7    D    
O15   Zn2   S    
C32   C39   S    
C12   O11   A    
C40   H7    S    
C2    C26   A    
C22   N1    A    
C44   C46   A    
C15   H17   S    
C31   C38   S    
C47   H11   S    
C29   H13   S    
C33   C36   A    
O1    Zn1   S    
C42   O9    D    
C39   O6    D    
N4    Zn1   S    
C3    C16   S    
C41   O8    D    
C16   O16   A    
C4    C32   A    
C12   C21   S    
C2    C14   A    
C39   H6    S    
C4    C17   S    
C6    C10   A    
C38   H5    S    
C13   H2    S    
C33   C42   S    
C7    C9    A    
C18   C46   A    
C8    C10   A    
C24   C45   A    
C27   H15   S    
C6    C13   A    
C24   N2    A    
C14   H16   S    
C35   C43   S    
C25   O4    S    
Br2   C21   S    
C13   C15   A    
C38   O5    D    
C26   N2    A    
C12   O13   A    
C18   H3    S    
C22   O18   S    
C15   C48   A    
C10   C23   A    
C22   C44   A    
C30   H12   S    
N3    N4    D    
C35   C37   A    
C28   C30   A    
C7    C19   A    
C40   N3    S    
C31   C33   A    
C37   N2    S    
C28   C37   A    
C1    O1    A    
C5    C11   A    
C27   C29   A    
C11   C14   A    
C1    O12   A    
C20   C21   D    
C1    C20   S    
O12   Zn2   S    
C26   O3    S    
C23   C44   A    
C3    C29   A    
C11   H18   S    
