data_mof_unit_5932.cif
_audit_creation_date              2012-10-26T17:11:08-0400
_audit_creation_method            fapswitch 2.2
_symmetry_space_group_name_H-M    P1
_symmetry_Int_Tables_number       1
_space_group_crystal_system       triclinic
_cell_length_a                    28.014038
_cell_length_b                    18.744171
_cell_length_c                    16.955671
_cell_angle_alpha                 89.999805
_cell_angle_beta                  61.90006
_cell_angle_gamma                 90.000077
_cell_volume                      7853.95166356

loop_
_atom_site_label
_atom_site_type_symbol
_atom_type_description
_atom_site_fract_x
_atom_site_fract_y
_atom_site_fract_z
_atom_type_partial_charge
C1    C     C_R   0.293608 0.724664 0.330992 0.552897
C2    C     C_R   0.466018 0.126315 0.451848 0.274062
C3    C     C_R   0.927796 0.098575 0.065627 0.553003
C4    C     C_R   0.425163 0.405398 0.068157 0.558964
C5    C     C_R   0.572206 0.598573 0.934372 0.553004
C6    C     C_R   0.574838 0.405400 0.931842 0.558964
C7    C     C_R   0.427796 0.598575 0.065627 0.553003
C8    C     C_R   0.044342 0.500015 0.518111 -0.049978
C9    C     C_R   0.955657 0.500015 0.481893 -0.049980
C10   C     C_R   0.544341 0.000015 0.518116 -0.049980
C11   C     C_R   0.455656 0.000015 0.481896 -0.049981
C12   C     C_R   0.020518 0.565375 0.513493 0.035388
C13   C     C_R   0.466050 0.873724 0.451757 0.281344
C14   C     C_R   0.979492 0.434653 0.486481 0.045139
C15   C     C_R   0.979482 0.565375 0.486510 0.035388
C16   C     C_R   0.020506 0.434653 0.513524 0.045138
C17   C     C_R   0.520516 0.065375 0.513498 0.035390
C18   C     C_R   0.479491 0.934653 0.486485 0.045140
C19   C     C_R   0.479480 0.065375 0.486515 0.035384
C20   C     C_R   0.520505 0.934653 0.513528 0.045138
C21   C     C_R   0.113200 0.435016 0.540704 -0.018600
C22   C     C_R   0.886766 0.565024 0.459407 -0.032317
C23   C     C_R   0.886799 0.435016 0.459298 -0.018596
C24   C     C_R   0.533979 0.126315 0.548163 0.274072
C25   C     C_R   0.113234 0.565024 0.540595 -0.032306
C26   C     C_R   0.613199 0.935016 0.540707 -0.018603
C27   C     C_R   0.386765 0.065024 0.459409 -0.032317
C28   C     C_R   0.386799 0.935016 0.459300 -0.018596
C29   C     C_R   0.613233 0.065024 0.540599 -0.032268
C30   C     C_R   0.165111 0.434842 0.537810 -0.019307
C31   C     C_R   0.834868 0.565180 0.462265 -0.028640
C32   C     C_R   0.834889 0.434842 0.462190 -0.019303
C33   C     C_R   0.165132 0.565180 0.537735 -0.028589
C34   C     C_R   0.665110 0.934842 0.537812 -0.019308
C35   C     C_R   0.033947 0.373724 0.548252 0.281349
C36   C     C_R   0.334868 0.065180 0.462266 -0.028640
C37   C     C_R   0.334889 0.934842 0.462191 -0.019302
C38   C     C_R   0.665131 0.065180 0.537737 -0.028575
C39   C     C_R   0.190119 0.500012 0.535342 -0.155370
C40   C     C_R   0.809881 0.500012 0.464657 -0.155416
C41   C     C_R   0.690118 0.000012 0.535344 -0.155386
C42   C     C_R   0.309881 0.000012 0.464658 -0.155416
C43   C     C_R   0.090826 0.500018 0.531812 0.003847
C44   C     C_R   0.909173 0.500019 0.468191 0.003845
C45   C     C_R   0.590825 0.000018 0.531816 0.003853
C46   C     C_R   0.966019 0.626315 0.451844 0.274064
C47   C     C_R   0.409172 0.000018 0.468193 0.003845
C48   C     C_R   0.580226 0.873898 0.559515 -0.056290
C49   C     C_R   0.419721 0.126155 0.440653 -0.067237
C50   C     C_R   0.419772 0.873899 0.440494 -0.056286
C51   C     C_R   0.580277 0.126155 0.559357 -0.067213
C52   C     C_R   0.080227 0.373899 0.559512 -0.056286
C53   C     C_R   0.919721 0.626155 0.440650 -0.067237
C54   C     C_R   0.919772 0.373899 0.440491 -0.056286
C55   C     C_R   0.080278 0.626154 0.559353 -0.067231
C56   C     C_3   0.202864 0.633304 0.819205 -0.087098
C57   C     C_R   0.966051 0.373724 0.451754 0.281344
C58   C     C_3   0.711037 0.135000 0.257800 -0.069597
C59   C     C_3   0.797191 0.633260 0.181305 -0.086950
C60   C     C_3   0.288940 0.134928 0.741861 -0.069528
C61   C     C_3   0.702835 0.133286 0.818877 -0.087019
C62   C     C_3   0.211051 0.634984 0.258036 -0.069575
C63   C     C_3   0.297191 0.133259 0.181304 -0.086948
C64   C     C_3   0.788940 0.634928 0.741862 -0.069528
C65   C     C_R   0.033980 0.626315 0.548158 0.274063
C66   C     C_R   0.223291 0.770917 0.948907 0.000691
C67   C     C_R   0.778893 0.238167 0.048371 -0.002478
C68   C     C_R   0.776732 0.770865 0.051078 0.000892
C69   C     C_R   0.703478 0.268834 0.670883 0.549474
C70   C     C_R   0.221134 0.238121 0.951603 -0.002383
C71   C     C_R   0.723289 0.270907 0.948905 0.000831
C72   C     C_R   0.278894 0.738169 0.048373 -0.002413
C73   C     C_R   0.276732 0.270865 0.051078 0.000891
C74   C     C_R   0.721134 0.738121 0.951603 -0.002383
C75   C     C_R   0.279661 0.757993 0.904560 0.284077
C76   C     C_R   0.726933 0.270410 0.089614 0.283195
C77   C     C_R   0.720362 0.757951 0.095419 0.284146
C78   C     C_R   0.273097 0.270354 0.910361 0.283299
C79   C     C_R   0.779659 0.257988 0.904558 0.284132
C80   C     C_R   0.706392 0.724664 0.669007 0.552891
C81   C     C_R   0.226936 0.770417 0.089616 0.283310
C82   C     C_R   0.220362 0.257951 0.095419 0.284146
C83   C     C_R   0.773097 0.770354 0.910361 0.283301
C84   C     C_R   0.305785 0.737478 0.953797 -0.123364
C85   C     C_R   0.697639 0.276307 0.042593 -0.134046
C86   C     C_R   0.694239 0.737440 0.046177 -0.123341
C87   C     C_R   0.302387 0.276255 0.957390 -0.133994
C88   C     C_R   0.805784 0.237476 0.953796 -0.123324
C89   C     C_R   0.197641 0.776318 0.042595 -0.134052
C90   C     C_R   0.194239 0.237440 0.046177 -0.123341
C91   C     C_R   0.296523 0.268833 0.329118 0.549435
C92   C     C_R   0.802387 0.776256 0.957390 -0.133992
C93   C     C_R   0.150700 0.839450 0.934962 -0.165544
C94   C     C_R   0.857069 0.174148 0.056274 -0.168335
C95   C     C_R   0.849312 0.839423 0.065029 -0.165586
C96   C     C_R   0.142948 0.174120 0.943711 -0.168346
C97   C     C_R   0.650700 0.339446 0.934960 -0.165572
C98   C     C_R   0.357069 0.674147 0.056276 -0.168345
C99   C     C_R   0.349312 0.339423 0.065029 -0.165588
C100  C     C_R   0.642948 0.674120 0.943712 -0.168346
C101  C     C_R   0.120348 0.856019 0.891396 -0.029497
C102  C     C_R   0.793608 0.224663 0.330992 0.552996
C103  C     C_R   0.884218 0.151558 0.103687 -0.027759
C104  C     C_R   0.879657 0.856009 0.108601 -0.029490
C105  C     C_R   0.115788 0.151550 0.896309 -0.027761
C106  C     C_R   0.620347 0.356017 0.891396 -0.029494
C107  C     C_R   0.384218 0.651558 0.103688 -0.027762
C108  C     C_R   0.379657 0.356009 0.108601 -0.029491
C109  C     C_R   0.615788 0.651550 0.896309 -0.027761
C110  C     C_R   0.136249 0.829614 0.806075 -0.185867
C111  C     C_R   0.866024 0.174691 0.191041 -0.185109
C112  C     C_R   0.863754 0.829609 0.193925 -0.185828
C113  C     C_R   0.203478 0.768835 0.670883 0.549589
C114  C     C_R   0.133977 0.174693 0.808960 -0.185100
C115  C     C_R   0.636247 0.329611 0.806076 -0.185844
C116  C     C_R   0.366024 0.674690 0.191042 -0.185100
C117  C     C_R   0.363754 0.329609 0.193925 -0.185831
C118  C     C_R   0.633977 0.674693 0.808960 -0.185100
C119  C     C_R   0.179375 0.782308 0.767252 -0.015532
C120  C     C_R   0.815058 0.205397 0.236877 -0.015028
C121  C     C_R   0.820635 0.782293 0.232744 -0.015698
C122  C     C_R   0.184947 0.205387 0.763117 -0.015138
C123  C     C_R   0.679371 0.282302 0.767254 -0.015642
C124  C     C_R   0.206392 0.224664 0.669007 0.552894
C125  C     C_R   0.315058 0.705396 0.236878 -0.015109
C126  C     C_R   0.320634 0.282293 0.232744 -0.015698
C127  C     C_R   0.684947 0.705387 0.763118 -0.015138
C128  C     C_R   0.202286 0.753977 0.819268 0.322285
C129  C     C_R   0.782358 0.211091 0.194528 0.324308
C130  C     C_R   0.797734 0.753944 0.180720 0.322305
C131  C     C_R   0.217656 0.211058 0.805454 0.324315
C132  C     C_R   0.702280 0.253968 0.819272 0.322300
C133  C     C_R   0.282358 0.711089 0.194528 0.324318
C134  C     C_R   0.297734 0.253944 0.180720 0.322306
C135  C     C_R   0.796523 0.768833 0.329118 0.549438
C136  C     C_R   0.717656 0.711058 0.805454 0.324314
C137  C     C_R   0.191979 0.787971 0.900113 0.024440
C138  C     C_R   0.806797 0.210002 0.100022 0.012282
C139  C     C_R   0.808039 0.787935 0.099877 0.024601
C140  C     C_R   0.193224 0.209965 0.899957 0.012397
C141  C     C_R   0.691977 0.287964 0.900111 0.024543
C142  C     C_R   0.306796 0.710001 0.100024 0.012374
C143  C     C_R   0.308039 0.287934 0.099877 0.024601
C144  C     C_R   0.693224 0.709965 0.899957 0.012397
C145  C     C_R   0.196892 0.631615 0.526077 0.515119
C146  C     C_R   0.533946 0.873724 0.548255 0.281350
C147  C     C_R   0.803119 0.368384 0.473878 0.534745
C148  C     C_R   0.803108 0.631616 0.473922 0.515031
C149  C     C_R   0.196881 0.368384 0.526122 0.534762
C150  C     C_R   0.696892 0.131615 0.526079 0.515134
C151  C     C_R   0.303119 0.868384 0.473878 0.534740
C152  C     C_R   0.303108 0.131616 0.473923 0.515031
C153  C     C_R   0.696880 0.868384 0.526122 0.534763
C154  C     C_R   0.925163 0.905398 0.068157 0.558965
C155  C     C_R   0.072205 0.098573 0.934372 0.553003
C156  C     C_R   0.074838 0.905401 0.931842 0.558964
Cl1   Cl    Cl    0.487641 0.803223 0.599870 -0.473084
Cl2   Cl    Cl    0.704316 0.327563 0.183256 -0.491584
Cl3   Cl    Cl    0.678762 0.776399 0.209977 -0.468305
Cl4   Cl    Cl    0.295725 0.327499 0.816709 -0.491576
Cl5   Cl    Cl    0.821255 0.276427 0.789996 -0.468289
Cl6   Cl    Cl    0.204325 0.827577 0.183251 -0.491575
Cl7   Cl    Cl    0.178763 0.276399 0.209977 -0.468307
Cl8   Cl    Cl    0.795725 0.827500 0.816709 -0.491564
Cl9   Cl    Cl    0.512347 0.196782 0.400153 -0.509695
Cl10  Cl    Cl    0.512356 0.803223 0.400146 -0.473103
Cl11  Cl    Cl    0.487652 0.196783 0.599855 -0.509611
Cl12  Cl    Cl    0.987641 0.303223 0.599867 -0.473085
Cl13  Cl    Cl    0.012347 0.696782 0.400149 -0.509682
Cl14  Cl    Cl    0.012356 0.303222 0.400142 -0.473102
Cl15  Cl    Cl    0.987653 0.696783 0.599851 -0.509607
Cl16  Cl    Cl    0.321258 0.776433 0.789998 -0.468291
Cu1   Cu    Cu3+1 0.209920 0.785290 0.495070 1.070830
Cu2   Cu    Cu3+1 0.504760 0.500000 0.075850 1.004051
Cu3   Cu    Cu3+1 0.995240 1.000000 0.924150 1.004047
Cu4   Cu    Cu3+1 0.004760 0.000000 0.075850 1.004053
Cu5   Cu    Cu3+1 0.790080 0.214710 0.504930 1.067971
Cu6   Cu    Cu3+1 0.790080 0.785290 0.504930 1.070818
Cu7   Cu    Cu3+1 0.209920 0.214710 0.495070 1.067916
Cu8   Cu    Cu3+1 0.709920 0.285290 0.495070 1.070869
Cu9   Cu    Cu3+1 0.290080 0.714710 0.504930 1.068042
Cu10  Cu    Cu3+1 0.290080 0.285290 0.504930 1.070826
Cu11  Cu    Cu3+1 0.709920 0.714710 0.495070 1.067916
Cu12  Cu    Cu3+1 0.495240 0.500000 0.924150 1.004040
H1    H     H_    0.230197 0.500012 0.530030 0.165913
H2    H     H_    0.913088 0.672571 0.409466 0.177933
H3    H     H_    0.913129 0.327487 0.409309 0.174094
H4    H     H_    0.086912 0.672570 0.590536 0.177938
H5    H     H_    0.155670 0.792111 0.079650 0.156586
H6    H     H_    0.848484 0.226425 0.916206 0.158014
H7    H     H_    0.844359 0.792043 0.920340 0.156586
H8    H     H_    0.151539 0.226401 0.083760 0.158002
H9    H     H_    0.655667 0.292097 0.079648 0.156583
H10   H     H_    0.348484 0.726423 0.916207 0.158016
H11   H     H_    0.344359 0.292043 0.920339 0.156585
H12   H     H_    0.769803 0.500012 0.469967 0.165901
H13   H     H_    0.651538 0.726401 0.083760 0.158002
H14   H     H_    0.142283 0.867800 0.995646 0.151964
H15   H     H_    0.873712 0.158504 0.987211 0.146498
H16   H     H_    0.857729 0.867766 0.004339 0.151945
H17   H     H_    0.126313 0.158466 0.012770 0.146506
H18   H     H_    0.642284 0.367797 0.995644 0.151955
H19   H     H_    0.373712 0.658504 0.987213 0.146490
H20   H     H_    0.357729 0.367766 0.004339 0.151943
H21   H     H_    0.626313 0.658466 0.012771 0.146505
H22   H     H_    0.116205 0.847842 0.768538 0.172409
H23   H     H_    0.730197 0.000012 0.530033 0.165901
H24   H     H_    0.889281 0.163304 0.225638 0.170223
H25   H     H_    0.883791 0.847850 0.231468 0.172419
H26   H     H_    0.110712 0.163321 0.774372 0.170225
H27   H     H_    0.616204 0.347841 0.768537 0.172414
H28   H     H_    0.389281 0.663303 0.225639 0.170229
H29   H     H_    0.383791 0.347851 0.231468 0.172418
H30   H     H_    0.610712 0.663321 0.774372 0.170225
H31   H     H_    0.175174 0.630050 0.789085 0.099922
H32   H     H_    0.179389 0.631359 0.893490 0.111962
H33   H     H_    0.229441 0.585637 0.797006 0.175805
H34   H     H_    0.269803 0.000012 0.469966 0.165901
H35   H     H_    0.729251 0.105230 0.293857 0.099166
H36   H     H_    0.721642 0.109003 0.192582 0.114806
H37   H     H_    0.666425 0.132237 0.299272 0.185457
H38   H     H_    0.824611 0.630148 0.211959 0.099924
H39   H     H_    0.820962 0.631165 0.107051 0.111829
H40   H     H_    0.770610 0.585591 0.203369 0.175796
H41   H     H_    0.270781 0.105401 0.705530 0.099183
H42   H     H_    0.278240 0.108667 0.806976 0.114730
H43   H     H_    0.333561 0.132163 0.700503 0.185447
H44   H     H_    0.675322 0.130120 0.788406 0.099924
H45   H     H_    0.586871 0.827485 0.590695 0.174095
H46   H     H_    0.679166 0.131247 0.893144 0.111850
H47   H     H_    0.729415 0.085619 0.796769 0.175785
H48   H     H_    0.229212 0.605391 0.294316 0.099181
H49   H     H_    0.221730 0.608785 0.192892 0.114701
H50   H     H_    0.166432 0.632228 0.299409 0.185444
H51   H     H_    0.324611 0.130148 0.211958 0.099924
H52   H     H_    0.320962 0.131165 0.107050 0.111829
H53   H     H_    0.270611 0.085591 0.203369 0.175798
H54   H     H_    0.770781 0.605401 0.705530 0.099184
H55   H     H_    0.778239 0.608668 0.806977 0.114729
H56   H     H_    0.413088 0.172571 0.409468 0.177934
H57   H     H_    0.833561 0.632163 0.700503 0.185447
H58   H     H_    0.413129 0.827487 0.409311 0.174095
H59   H     H_    0.586911 0.172570 0.590540 0.177915
H60   H     H_    0.086871 0.327485 0.590693 0.174097
O1    O     O_R   0.255040 0.869590 0.478480 -0.508350
O2    O     O_R   0.817950 0.203450 0.375560 -0.532281
O3    O     O_R   0.817950 0.796550 0.375560 -0.530490
O4    O     O_R   0.182050 0.203450 0.624440 -0.532260
O5    O     O_R   0.682050 0.296550 0.624440 -0.530515
O6    O     O_R   0.317950 0.703450 0.375560 -0.532283
O7    O     O_R   0.317950 0.296550 0.375560 -0.530493
O8    O     O_R   0.682050 0.703450 0.624440 -0.532261
O9    O     O_R   0.250530 0.763330 0.367210 -0.430559
O10   O     O_R   0.749470 0.236670 0.632790 -0.428629
O11   O     O_R   0.749470 0.763330 0.632790 -0.430567
O12   O     O_R   0.744960 0.130410 0.521520 -0.515651
O13   O     O_R   0.250530 0.236670 0.367210 -0.428659
O14   O     O_R   0.750530 0.263330 0.367210 -0.430521
O15   O     O_R   0.249470 0.736670 0.632790 -0.428546
O16   O     O_R   0.249470 0.263330 0.632790 -0.430564
O17   O     O_R   0.750530 0.736670 0.367210 -0.428658
O18   O     O_R   0.177260 0.690030 0.513710 -0.515710
O19   O     O_R   0.822740 0.309970 0.486290 -0.507460
O20   O     O_R   0.822740 0.690030 0.486290 -0.515691
O21   O     O_R   0.177260 0.309970 0.513710 -0.507450
O22   O     O_R   0.677260 0.190030 0.513710 -0.515662
O23   O     O_R   0.744960 0.869590 0.521520 -0.508337
O24   O     O_R   0.322740 0.809970 0.486290 -0.507471
O25   O     O_R   0.322740 0.190030 0.486290 -0.515692
O26   O     O_R   0.677260 0.809970 0.513710 -0.507447
O27   O     O_R   0.051640 0.926880 0.885090 -0.506984
O28   O     O_R   0.948360 0.073120 0.114910 -0.508310
O29   O     O_R   0.948360 0.926880 0.114910 -0.506986
O30   O     O_R   0.051640 0.073120 0.885090 -0.508313
O31   O     O_R   0.551640 0.426880 0.885090 -0.506985
O32   O     O_R   0.448360 0.573120 0.114910 -0.508313
O33   O     O_R   0.448360 0.426880 0.114910 -0.506987
O34   O     O_R   0.255040 0.130410 0.478480 -0.515666
O35   O     O_R   0.551640 0.573120 0.885090 -0.508312
O36   O     O_R   0.940620 0.926560 0.986760 -0.505325
O37   O     O_R   0.059380 0.073440 0.013240 -0.508580
O38   O     O_R   0.059380 0.926560 0.013240 -0.505332
O39   O     O_R   0.940620 0.073440 0.986760 -0.508584
O40   O     O_R   0.440620 0.426560 0.986760 -0.505326
O41   O     O_R   0.559380 0.573440 0.013240 -0.508580
O42   O     O_R   0.559380 0.426560 0.013240 -0.505328
O43   O     O_R   0.440620 0.573440 0.986760 -0.508584
O44   O     O_3   0.235579 0.694771 0.790121 -0.495055
O45   O     O_R   0.755040 0.369590 0.478480 -0.508353
O46   O     O_3   0.726773 0.207324 0.246225 -0.486312
O47   O     O_3   0.764443 0.694733 0.209844 -0.495037
O48   O     O_3   0.273242 0.207273 0.753763 -0.486278
O49   O     O_3   0.735573 0.194760 0.790142 -0.495039
O50   O     O_3   0.226771 0.707326 0.246210 -0.486281
O51   O     O_3   0.264443 0.194733 0.209844 -0.495037
O52   O     O_3   0.773242 0.707273 0.753763 -0.486279
O53   O     O_R   0.244960 0.630410 0.521520 -0.515608
O54   O     O_R   0.244960 0.369590 0.521520 -0.508333
O55   O     O_R   0.755040 0.630410 0.478480 -0.515666
O56   O     O_R   0.182050 0.796550 0.624440 -0.530532

loop_
_geom_bond_atom_site_label_1
_geom_bond_atom_site_label_2
_ccdc_geom_bond_type
C28   C47   A    
C70   C140  S    
C62   H50   S    
C99   H20   S    
C36   C42   A    
C102  O2    A    
C149  O21   A    
C74   C83   A    
C146  Cl1   S    
Cu12  O35   S    
C72   C142  S    
C13   C18   A    
C99   C143  A    
C16   C35   A    
C145  O53   A    
C59   O47   S    
C69   C123  S    
C149  O54   A    
C37   C42   A    
C67   C138  S    
C56   H31   S    
C131  C140  A    
C134  C143  A    
Cu2   O32   S    
Cu1   O9    S    
C5    O35   A    
C117  C126  A    
C97   H18   S    
C64   H54   S    
C69   O5    A    
C119  C128  A    
C24   C51   A    
C100  C109  A    
C8    C16   A    
Cu11  O26   S    
C79   Cl5   S    
C55   C65   A    
C109  C118  A    
C66   C89   A    
C115  C123  A    
C127  C136  A    
C128  O44   S    
C100  C144  A    
Cu2   Cu12  S    
C30   C149  S    
C64   H57   S    
C101  C110  A    
Cu11  O17   S    
C29   C45   A    
C41   H23   S    
C154  O29   A    
Cu3   Cu4   S    
Cu12  O40   S    
C63   O51   S    
C61   H46   S    
C6    C106  S    
C64   O52   S    
C121  C135  S    
C117  H29   S    
C2    Cl9   S    
C72   C84   A    
C77   Cl3   S    
C78   Cl4   S    
C113  O56   A    
C62   H48   S    
C54   H3    S    
C20   C146  A    
C147  O19   A    
C147  O45   A    
C34   C153  S    
C3    C103  S    
C68   C77   A    
C14   C57   A    
C2    C19   A    
Cu6   O23   S    
C25   C55   A    
C42   H34   S    
C63   H53   S    
Cu8   O22   S    
Cu9   O15   S    
Cu10  O16   S    
C95   C139  A    
Cu9   O53   S    
C106  C115  A    
C112  H25   S    
C9    C15   A    
C87   H11   S    
Cu6   O20   S    
C13   Cl10  S    
C46   C53   A    
C68   C92   A    
C60   H42   S    
Cu5   O19   S    
C59   H40   S    
C151  O24   A    
Cu10  O25   S    
C126  C134  A    
C136  C144  A    
C76   C85   A    
C78   C87   A    
C83   Cl8   S    
C11   C18   A    
C155  O37   A    
C123  C132  A    
C81   Cl6   S    
C121  C130  A    
Cu10  O7    S    
Cu4   O29   S    
C25   C43   A    
C71   C79   A    
C156  O27   A    
C90   H8    S    
C132  O49   S    
C99   C108  A    
C133  C142  A    
C75   C84   A    
Cu2   O42   S    
C94   H15   S    
Cu8   O5    S    
Cu4   O38   S    
Cu11  O8    S    
C136  O52   S    
C26   C45   A    
C62   O50   S    
C63   H52   S    
C58   H36   S    
C84   H10   S    
C130  O47   S    
C92   H7    S    
C71   C141  S    
Cu12  O31   S    
C98   C142  A    
C155  O30   A    
C58   H37   S    
C69   O10   A    
C120  C129  A    
C135  O3    A    
C98   H19   S    
C24   Cl11  S    
C38   C41   A    
C7    O32   A    
C10   C20   A    
C104  C112  A    
C36   C152  S    
C133  O50   S    
C102  O14   A    
C124  O4    A    
C53   H2    S    
C59   H38   S    
Cu9   O24   S    
C152  O25   A    
C8    C12   A    
C10   C45   A    
C35   Cl12  S    
C56   O44   S    
C55   H4    S    
C148  O20   A    
Cu1   O18   S    
C33   C145  S    
C48   H45   S    
C105  C155  S    
C129  O46   S    
Cu12  O43   S    
C116  C125  A    
C7    C107  S    
C118  C127  A    
C122  C124  S    
C122  C131  A    
C57   Cl14  S    
C29   C51   A    
C27   C47   A    
C132  C141  A    
C108  C117  A    
C51   H59   S    
Cu6   Cu11  S    
C110  C119  A    
C96   C140  A    
C100  H21   S    
C115  H27   S    
C81   C89   A    
C112  C121  A    
C156  O38   A    
C28   C37   A    
C4    O40   A    
C30   C39   A    
C5    O41   A    
C107  C116  A    
C56   H32   S    
C7    O43   A    
Cu6   O3    S    
Cu2   O33   S    
C80   O8    A    
C75   Cl16  S    
C15   C46   A    
C27   C49   A    
C25   C33   A    
C54   C57   A    
C96   C105  A    
Cu10  O54   S    
C11   C47   A    
C153  O26   A    
C8    C43   A    
Cu7   O4    S    
Cu7   O13   S    
C91   O7    A    
C88   H6    S    
Cu5   O10   S    
C4    C108  S    
C11   C19   A    
C67   C88   A    
C91   C126  S    
Cu9   O6    S    
C31   C40   A    
C103  C111  A    
C73   C87   A    
C113  C119  S    
Cu7   O34   S    
C95   H16   S    
C150  O22   A    
C72   C81   A    
C26   C48   A    
Cu7   Cu10  S    
Cu8   O14   S    
Cu1   Cu9   S    
C62   H49   S    
C4    O33   A    
C34   C41   A    
C130  C139  A    
Cu11  O55   S    
C56   H33   S    
C1    O9    A    
C61   H44   S    
C32   C147  S    
C101  C156  S    
C23   C44   A    
C9    C14   A    
C91   O13   A    
C12   C15   A    
C118  H30   S    
Cu3   O36   S    
C97   C141  A    
C59   H39   S    
C128  C137  A    
C97   C106  A    
C60   O48   S    
C94   C103  A    
C61   O49   S    
C94   C138  A    
C93   C101  A    
C73   C82   A    
C102  C120  S    
C73   C143  S    
Cu1   O1    S    
Cu5   O12   S    
C74   C144  S    
C6    O42   A    
C151  O1    A    
C27   C36   A    
C12   C65   A    
C82   C90   A    
Cu8   O45   S    
C23   C32   A    
C154  O36   A    
C116  H28   S    
C5    C109  S    
C66   C75   A    
C61   H47   S    
C98   C107  A    
C86   H13   S    
C63   H51   S    
C58   O46   S    
C148  O55   A    
C124  O16   A    
C35   C52   A    
C89   H5    S    
C68   C139  S    
C113  O15   A    
C104  C154  S    
C80   O11   A    
C70   C78   A    
C96   H17   S    
C83   C92   A    
C76   Cl2   S    
C33   C39   A    
C131  O48   S    
C65   Cl15  S    
C153  O23   A    
C1    C125  S    
C52   H60   S    
C82   Cl7   S    
C10   C17   A    
Cu1   O56   S    
C60   H41   S    
C134  O51   S    
C64   H55   S    
C21   C43   A    
C28   C50   A    
C26   C34   A    
C22   C44   A    
C129  C138  A    
Cu5   O2    S    
C48   C146  A    
C21   C30   A    
C3    O39   A    
C71   C85   A    
C70   C90   A    
Cu3   O39   S    
C37   C151  S    
C49   H56   S    
C22   C53   A    
C17   C24   A    
C22   C31   A    
C105  C114  A    
C1    O6    A    
Cu6   O11   S    
Cu2   O41   S    
C3    O28   A    
C13   C50   A    
C111  C120  A    
C114  C122  A    
C29   C38   A    
Cu4   O37   S    
C2    C49   A    
C58   H35   S    
C150  O12   A    
Cu5   Cu8   S    
C110  H22   S    
C74   C86   A    
C6    O31   A    
C79   C88   A    
Cu7   O21   S    
C77   C86   A    
C135  O17   A    
C14   C16   A    
C31   C148  S    
Cu3   O27   S    
C95   C104  A    
Cu4   O28   S    
C23   C54   A    
C40   H12   S    
C125  C133  A    
C9    C44   A    
C50   H58   S    
C80   C127  S    
C46   Cl13  S    
C60   H43   S    
C114  H26   S    
C93   H14   S    
Cu3   O30   S    
C85   H9    S    
C66   C137  S    
C17   C19   A    
C18   C20   A    
C32   C40   A    
C93   C137  A    
C39   H1    S    
C145  O18   A    
C152  O34   A    
C67   C76   A    
C111  H24   S    
C38   C150  S    
C21   C52   A    
