data_mof_unit_57984.cif
_audit_creation_date              2012-12-11T15:10:44-0500
_audit_creation_method            fapswitch 2.2
_symmetry_space_group_name_H-M    P1
_symmetry_Int_Tables_number       1
_space_group_crystal_system       triclinic
_cell_length_a                    21.119983
_cell_length_b                    7.235305
_cell_length_c                    18.26567
_cell_angle_alpha                 89.990334
_cell_angle_beta                  93.494236
_cell_angle_gamma                 89.994295
_cell_volume                      2785.97921963

loop_
_atom_site_label
_atom_site_type_symbol
_atom_type_description
_atom_site_fract_x
_atom_site_fract_y
_atom_site_fract_z
_atom_type_partial_charge
O1    O     O_R   0.448880 0.506250 0.415280 -0.529730
O2    O     O_R   0.551120 0.006250 0.584720 -0.529803
O3    O     O_R   0.434830 0.174000 0.557310 -0.520690
O4    O     O_R   0.565170 0.674000 0.442690 -0.520591
C1    C     C_R   0.416961 0.344588 0.579634 0.697890
C2    C     C_R   0.583039 0.844593 0.420366 0.697857
O5    O     O_R   0.441680 0.176440 0.414130 -0.527062
O6    O     O_R   0.558320 0.676440 0.585870 -0.526958
O7    O     O_R   0.558020 0.007570 0.440520 -0.511879
O8    O     O_R   0.441980 0.507570 0.559480 -0.511798
C3    C     C_R   0.428139 0.344808 0.388195 0.766202
C4    C     C_R   0.571862 0.844766 0.611807 0.766156
O9    O     O_3   0.538160 0.339670 0.508820 -0.368239
O10   O     O_3   0.461840 0.839670 0.491180 -0.368287
V1    V     V_3+5 0.492920 0.064260 0.498360 1.536105
V2    V     V_3+5 0.507080 0.564260 0.501640 1.536444
C5    C     C_R   0.878510 0.942635 0.686415 -0.173457
C6    C     C_R   0.121410 0.440736 0.313595 -0.173620
H1    H     H_    0.901954 0.957508 0.635724 0.200565
H2    H     H_    0.097930 0.454734 0.364297 0.200488
C7    C     C_R   0.887997 0.939253 0.819025 -0.159432
C8    C     C_R   0.111990 0.439030 0.180978 -0.159307
C9    C     C_R   0.581795 0.812847 0.746839 0.316714
C10   C     C_R   0.418277 0.314105 0.253119 0.316636
C11   C     C_R   0.617811 0.789791 0.812370 -0.200096
C12   C     C_R   0.382308 0.291577 0.187530 -0.200076
C13   C     C_R   0.683893 0.804267 0.815581 0.400384
C14   C     C_R   0.316213 0.305620 0.184304 0.400371
C15   C     C_R   0.715625 0.862756 0.752715 -0.013223
C16   C     C_R   0.284403 0.363075 0.247253 -0.013215
C17   C     C_R   0.678558 0.875266 0.684416 -0.113240
C18   C     C_R   0.321430 0.374996 0.315592 -0.113244
C19   C     C_R   0.782791 0.899453 0.754025 0.054807
C20   C     C_R   0.217207 0.399304 0.245968 0.054837
C21   C     C_R   0.812123 0.921858 0.686355 -0.024380
C22   C     C_R   0.187821 0.420574 0.313657 -0.024306
C23   C     C_R   0.774715 0.925283 0.619798 0.399573
C24   C     C_R   0.225199 0.423466 0.380239 0.399610
C25   C     C_R   0.709174 0.907160 0.619561 -0.173436
C26   C     C_R   0.290758 0.405862 0.380482 -0.173368
C27   C     C_R   0.821847 0.920521 0.819948 -0.254160
C28   C     C_R   0.178163 0.420950 0.180063 -0.254246
C29   C     C_R   0.916472 0.944251 0.751888 0.425078
C30   C     C_R   0.083474 0.442801 0.248101 0.425074
C31   C     C_R   0.611506 0.849613 0.681779 -0.152327
C32   C     C_R   0.388504 0.349846 0.318221 -0.152324
H3    H     H_    0.802329 0.930215 0.872858 0.186447
H4    H     H_    0.197698 0.431488 0.127186 0.186425
H5    H     H_    0.594472 0.751256 0.861319 0.189074
H6    H     H_    0.405702 0.253826 0.138530 0.189083
H7    H     H_    0.682312 0.914708 0.567219 0.128010
H8    H     H_    0.317593 0.412971 0.432850 0.127831
C33   C     C_1   0.864756 0.939067 0.132400 -0.184057
C34   C     C_1   0.135246 0.439080 0.867602 -0.184004
C35   C     C_1   0.821994 0.925098 0.176274 0.022918
C36   C     C_1   0.178008 0.425107 0.823728 0.022897
C37   C     C_1   0.771477 0.906012 0.228454 0.034548
C38   C     C_1   0.228525 0.406013 0.771548 0.034453
C39   C     C_1   0.728900 0.889358 0.272435 0.054111
C40   C     C_1   0.271101 0.389351 0.727566 0.054061
C41   C     C_1   0.678291 0.870159 0.324490 0.078506
C42   C     C_1   0.321709 0.370146 0.675511 0.078508
C43   C     C_1   0.635381 0.856019 0.368163 -0.115100
C44   C     C_1   0.364619 0.356004 0.631838 -0.115098
O11   O     O_R   0.058070 0.289240 0.940580 -0.513074
O12   O     O_R   0.941930 0.789240 0.059420 -0.513083
O13   O     O_R   0.058330 0.616740 0.085880 -0.530025
O14   O     O_R   0.941670 0.116740 0.914120 -0.529896
C45   C     C_R   0.071962 0.448526 0.111792 0.752462
C46   C     C_R   0.928035 0.948568 0.888207 0.752303
O15   O     O_R   0.065180 0.619040 0.942700 -0.527010
O16   O     O_R   0.934820 0.119040 0.057300 -0.526922
O17   O     O_R   0.948870 0.787780 0.915270 -0.535931
O18   O     O_R   0.051130 0.287780 0.084730 -0.535896
C47   C     C_R   0.083120 0.450359 0.920097 0.699692
C48   C     C_R   0.916880 0.950353 0.079904 0.699599
O19   O     O_3   0.961870 0.453310 0.991210 -0.369141
O20   O     O_3   0.038130 0.953310 0.008790 -0.369235
V3    V     V_3+5 0.007070 0.728770 0.001630 1.447561
V4    V     V_3+5 0.992930 0.228770 0.998370 1.447877
O21   O     O_3   0.981376 0.967134 0.750340 -0.556406
C49   C     C_3   0.008737 0.794910 0.734710 -0.196327
H9    H     H_    0.993353 0.746726 0.678570 0.156044
H10   H     H_    0.997572 0.688644 0.776134 0.125393
H11   H     H_    0.061050 0.811147 0.736988 0.174425
O22   O     O_3   0.018535 0.464923 0.249630 -0.556427
C50   C     C_3   0.991404 0.292357 0.265231 -0.196056
H12   H     H_    0.006724 0.244435 0.321431 0.156049
H13   H     H_    0.002839 0.186183 0.223896 0.125293
H14   H     H_    0.939062 0.307924 0.262770 0.174342
Cl1   Cl    Cl    0.807512 0.956885 0.534051 -0.641494
Cl2   Cl    Cl    0.192335 0.453730 0.466019 -0.641506
Cl3   Cl    Cl    0.498930 0.783299 0.747475 -0.633307
Cl4   Cl    Cl    0.501172 0.285223 0.252484 -0.633240
O23   O     O_3   0.716004 0.750428 0.880159 -0.559344
C51   C     C_3   0.731937 0.561788 0.874472 -0.225873
H15   H     H_    0.763300 0.536899 0.828637 0.141397
H16   H     H_    0.688691 0.473971 0.867733 0.152096
H17   H     H_    0.758455 0.518934 0.925977 0.168299
O24   O     O_3   0.284176 0.252385 0.119610 -0.559367
C52   C     C_3   0.268349 0.063598 0.124964 -0.226024
H18   H     H_    0.236961 0.038003 0.170720 0.141324
H19   H     H_    0.311643 0.975927 0.131604 0.152210
H20   H     H_    0.241897 0.021217 0.073362 0.168310

loop_
_geom_bond_atom_site_label_1
_geom_bond_atom_site_label_2
_ccdc_geom_bond_type
O14   V4    S    
C25   H7    S    
C50   H12   S    
C52   H18   S    
C9    C31   A    
C15   C19   A    
C13   C15   A    
C13   O23   S    
O23   C51   S    
O1    C3    A    
O16   C48   A    
O2    C4    A    
C2    O7    A    
O15   V3    S    
O21   C49   S    
O5    C3    A    
O12   V3    S    
C21   C23   A    
C10   C12   A    
C10   Cl4   S    
C12   H6    S    
C37   C39   T    
C38   C40   T    
C51   H17   S    
C24   Cl2   S    
O16   V4    S    
C40   C42   S    
C41   C43   T    
C42   C44   T    
C19   C21   A    
C7    C29   A    
C8    C30   A    
C36   C38   S    
C20   C28   A    
C51   H16   S    
C8    C45   S    
C20   C22   A    
C14   O24   S    
O5    V1    S    
C52   H19   S    
O11   V4    S    
O18   V4    S    
C30   O22   S    
C33   C35   T    
C27   H3    S    
C23   C25   A    
C34   C36   T    
C39   C41   S    
C16   C20   A    
O13   V3    S    
O4    C2    A    
C23   Cl1   S    
O20   V3    S    
C26   H8    S    
C9    Cl3   S    
C1    C44   S    
O13   C45   A    
C2    C43   S    
O4    V2    S    
C5    C29   A    
C6    C30   A    
O6    C4    A    
O12   C48   A    
C51   H15   S    
C46   O17   A    
O17   V3    S    
C45   O18   A    
O1    V2    S    
C28   H4    S    
O2    V1    S    
C7    C27   A    
O14   C46   A    
C52   H20   S    
C49   H10   S    
C35   C37   S    
C29   O21   S    
O9    V2    S    
C33   C48   S    
O3    V1    S    
O19   V4    S    
O22   C50   S    
C18   C32   A    
O15   C47   A    
C4    C31   S    
O3    C1    A    
C14   C16   A    
C11   C13   A    
C49   H11   S    
C12   C14   A    
O11   C47   A    
C7    C46   S    
C10   C32   A    
C50   H13   S    
O7    V1    S    
C19   C27   A    
C1    O8    A    
C15   C17   A    
O8    V2    S    
C16   C18   A    
C8    C28   A    
C24   C26   A    
C22   C24   A    
O24   C52   S    
C5    H1    S    
C17   C25   A    
C6    H2    S    
C18   C26   A    
C11   H5    S    
C34   C47   S    
C9    C11   A    
O6    V2    S    
C49   H9    S    
C17   C31   A    
C50   H14   S    
O10   V1    S    
C3    C32   S    
C5    C21   A    
C6    C22   A    
