data_mof_unit_35305.cif
_audit_creation_date              2012-12-11T17:06:25-0500
_audit_creation_method            fapswitch 2.2
_symmetry_space_group_name_H-M    P1
_symmetry_Int_Tables_number       1
_space_group_crystal_system       triclinic
_cell_length_a                    6.95582
_cell_length_b                    14.515059
_cell_length_c                    15.97599
_cell_angle_alpha                 90.441298
_cell_angle_beta                  90.130807
_cell_angle_gamma                 89.992894
_cell_volume                      1612.9499982

loop_
_atom_site_label
_atom_site_type_symbol
_atom_type_description
_atom_site_fract_x
_atom_site_fract_y
_atom_site_fract_z
_atom_type_partial_charge
O1    O     O_R   0.494400 0.415450 0.412630 -0.554510
O2    O     O_R   0.823940 0.405730 0.586760 -0.507716
O3    O     O_R   0.994240 0.584550 0.587370 -0.529475
C1    C     C_R   0.655389 0.382746 0.614622 0.769251
O4    O     O_R   0.824110 0.404430 0.413240 -0.531863
O5    O     O_R   0.994420 0.583240 0.412620 -0.545624
C2    C     C_R   0.655213 0.381857 0.384499 0.700378
O6    O     O_R   0.494230 0.416760 0.587380 -0.548937
O7    O     O_3   0.660800 0.558670 0.500000 -0.377340
V1    V     V_3+5 0.935650 0.489120 0.500000 1.471182
O8    O     O_R   0.324140 0.594270 0.413240 -0.543987
C3    C     C_R   0.154974 0.616268 0.384424 0.684762
O9    O     O_R   0.323960 0.595570 0.586760 -0.548094
C4    C     C_R   0.155410 0.617551 0.615421 0.750310
V2    V     V_3+5 0.435660 0.510880 0.500000 1.401662
O10   O     O_3   0.160640 0.441330 0.500000 -0.375050
C5    C     C_3   0.058894 0.668744 0.771567 0.343801
C6    C     C_3   0.229706 0.717137 0.813210 0.289152
C7    C     C_3   0.119867 0.808891 0.810999 -0.094089
C8    C     C_3   0.945318 0.760138 0.768826 -0.264112
C9    C     C_3   0.033785 0.779584 0.680889 -0.230559
C10   C     C_3   0.206520 0.826878 0.724358 0.360436
C11   C     C_3   0.321366 0.735759 0.726916 -0.288813
C12   C     C_3   0.145930 0.687224 0.685074 -0.124339
H1    H     H_    0.956010 0.806451 0.625453 0.132579
C13   C     C_R   0.271303 0.747088 0.185289 0.105297
C14   C     C_R   0.118417 0.809560 0.178499 -0.148696
C15   C     C_R   0.967673 0.801348 0.236797 -0.116188
C16   C     C_R   0.978774 0.737988 0.303157 -0.174625
H2    H     H_    0.864449 0.736532 0.348873 0.122518
C17   C     C_R   0.141999 0.681711 0.313773 -0.109022
C18   C     C_R   0.283457 0.685485 0.251696 0.042586
C19   C     C_3   0.495135 0.698201 0.260123 -0.372550
C20   C     C_3   0.482641 0.764443 0.186968 0.187606
H3    H     H_    0.575830 0.633760 0.246178 0.193685
H4    H     H_    0.533787 0.732763 0.320126 0.123329
C21   C     C_R   0.510796 0.321555 0.746507 0.023518
C22   C     C_R   0.649198 0.314666 0.683175 -0.129358
C23   C     C_R   0.788391 0.243637 0.689695 0.351402
C24   C     C_R   0.776646 0.179223 0.755956 -0.261646
H5    H     H_    0.880656 0.123798 0.759362 0.130882
C25   C     C_R   0.624416 0.182098 0.813980 -0.129095
C26   C     C_R   0.497513 0.256587 0.809543 0.092791
C27   C     C_3   0.283138 0.259735 0.809423 -0.384845
C28   C     C_3   0.297799 0.331743 0.740976 -0.367314
H6    H     H_    0.224617 0.287705 0.869094 0.171890
H7    H     H_    0.217615 0.193925 0.787632 0.179171
H8    H     H_    0.249042 0.401274 0.761444 0.190710
C29   C     C_R   0.494267 0.248230 0.310638 0.091749
C30   C     C_R   0.647382 0.310649 0.317515 -0.144990
C31   C     C_R   0.798206 0.301487 0.259280 -0.111999
C32   C     C_R   0.787100 0.237112 0.192892 -0.172165
H9    H     H_    0.901489 0.234865 0.147207 0.123547
C33   C     C_R   0.623766 0.180791 0.182217 -0.108885
C34   C     C_R   0.482115 0.185608 0.244178 0.042059
C35   C     C_3   0.270573 0.198470 0.235513 -0.370092
C36   C     C_3   0.283019 0.265848 0.308725 0.185933
O11   O     O_R   0.771650 0.079500 0.908680 -0.542778
O12   O     O_R   0.441690 0.091800 0.082800 -0.544647
O13   O     O_R   0.271460 0.912980 0.083410 -0.552063
C37   C     C_R   0.610828 0.114266 0.111594 0.689268
O14   O     O_R   0.441930 0.090510 0.909280 -0.538650
O15   O     O_R   0.271690 0.911670 0.908660 -0.519473
C38   C     C_R   0.610778 0.112371 0.880596 0.734311
O16   O     O_R   0.771410 0.080810 0.083440 -0.543757
O17   O     O_3   0.605100 0.937580 0.996050 -0.373914
V3    V     V_3+5 0.330220 0.007110 0.996030 1.435196
O18   O     O_R   0.941980 0.900620 0.909250 -0.547593
C39   C     C_R   0.110568 0.878474 0.880751 0.781026
O19   O     O_R   0.941740 0.901920 0.082770 -0.535874
C40   C     C_R   0.110643 0.879776 0.111523 0.702247
V4    V     V_3+5 0.830220 0.985300 0.996000 1.432332
O20   O     O_3   0.105210 0.054870 0.996020 -0.378894
O21   O     O_3   0.327861 0.684270 0.883353 -0.638968
H10   H     H_    0.387500 0.625495 0.865005 0.300712
O22   O     O_3   0.573437 0.728750 0.115543 -0.615977
H11   H     H_    0.551485 0.774317 0.070604 0.322087
H12   H     H_    0.521664 0.836996 0.202328 0.069572
O23   O     O_3   0.925753 0.234227 0.627936 -0.642405
H13   H     H_    0.007614 0.180088 0.640449 0.287748
H14   H     H_    0.240588 0.308307 0.679540 0.210436
H15   H     H_    0.919681 0.347765 0.262228 0.120793
O24   O     O_3   0.983974 0.583798 0.796124 -0.651862
H16   H     H_    0.935630 0.593809 0.853797 0.298932
H17   H     H_    0.189459 0.134357 0.249310 0.192436
H18   H     H_    0.232440 0.232132 0.175499 0.123897
O25   O     O_3   0.191595 0.231394 0.380001 -0.618389
H19   H     H_    0.211734 0.278063 0.424770 0.317020
H20   H     H_    0.244480 0.338209 0.293361 0.072207
H21   H     H_    0.792126 0.768659 0.786603 0.156296
O26   O     O_3   0.283011 0.911736 0.700498 -0.647078
H22   H     H_    0.328995 0.902406 0.642360 0.286443
H23   H     H_    0.474995 0.726918 0.710011 0.141498
H24   H     H_    0.846233 0.847622 0.233922 0.121655

loop_
_geom_bond_atom_site_label_1
_geom_bond_atom_site_label_2
_ccdc_geom_bond_type
O25   H19   S    
C13   C18   A    
C7    C8    S    
C1    O6    A    
C19   H4    S    
C32   H9    S    
C13   C14   A    
C16   H2    S    
C36   H20   S    
O14   V3    S    
C15   C16   A    
O5    C3    A    
C22   C23   A    
V2    O10   S    
C5    C8    S    
C29   C36   S    
C35   C36   S    
C15   H24   S    
C6    C7    S    
C4    C12   S    
O14   C38   A    
O12   V3    S    
O8    V2    S    
C13   C20   S    
O17   V4    S    
O15   C39   A    
O13   V3    S    
C27   H6    S    
O18   C39   A    
C10   O26   S    
O19   C40   A    
V3    O20   S    
O7    V1    S    
C27   H7    S    
C24   C25   A    
O17   V3    S    
C6    O21   S    
O9    C4    A    
C32   C33   A    
C19   C20   S    
O11   C38   A    
O15   V3    S    
O12   C37   A    
C5    C12   S    
O21   H10   S    
C6    C11   S    
C7    C10   S    
O22   H11   S    
O26   H22   S    
O4    C2    A    
O13   C40   A    
C30   C31   A    
C29   C34   A    
C8    H21   S    
C36   O25   S    
C5    O24   S    
C23   O23   S    
C21   C26   A    
O2    C1    A    
C26   C27   S    
C21   C22   A    
C37   O16   A    
C35   H18   S    
O24   H16   S    
O18   V4    S    
C34   C35   S    
C5    C6    S    
C31   H15   S    
O3    C4    A    
O1    V2    S    
C24   H5    S    
C1    C22   S    
O6    V2    S    
O9    V2    S    
C3    C17   S    
C7    C39   S    
C25   C26   A    
C21   C28   S    
O2    V1    S    
C25   C38   S    
C23   C24   A    
C14   C40   S    
C27   C28   S    
C28   H8    S    
C9    H1    S    
C33   C34   A    
O1    C2    A    
C17   C18   A    
C28   H14   S    
C2    C30   S    
V4    O20   S    
O5    V1    S    
O8    C3    A    
C33   C37   S    
O16   V4    S    
C18   C19   S    
O7    V2    S    
C31   C32   A    
C16   C17   A    
O3    V1    S    
V1    O10   S    
C20   H12   S    
O11   V4    S    
C35   H17   S    
C19   H3    S    
C11   C12   S    
O23   H13   S    
C11   H23   S    
O4    V1    S    
C8    C9    S    
C29   C30   A    
C9    C12   S    
C14   C15   A    
C10   C11   S    
O19   V4    S    
C9    C10   S    
C20   O22   S    
