data_mof_unit_40854.cif
_audit_creation_date              2013-03-05T16:41:26-0500
_audit_creation_method            fapswitch 2.2
_symmetry_space_group_name_H-M    P1
_symmetry_Int_Tables_number       1
_space_group_crystal_system       triclinic
_cell_length_a                    10.777255
_cell_length_b                    10.67829
_cell_length_c                    9.862677
_cell_angle_alpha                 89.931009
_cell_angle_beta                  103.892128
_cell_angle_gamma                 90.068507
_cell_volume                      1101.82175163

loop_
_atom_site_label
_atom_site_type_symbol
_atom_site_description
_atom_site_fract_x
_atom_site_fract_y
_atom_site_fract_z
_atom_type_partial_charge
O1    O     O_R   0.500020 0.316790 0.614700 -0.617164
O2    O     O_R   0.500000 0.316760 0.385350 -0.597920
C1    C     C_R   0.503779 0.259914 0.501073 0.909351
O3    O     O_R   0.317820 0.500020 0.571850 -0.619731
O4    O     O_R   0.317800 0.499980 0.342510 -0.606691
C2    C     C_R   0.258933 0.504038 0.441812 0.967701
Zn1   Zn    Zn3+2 0.500010 0.500020 0.653140 0.948632
Zn2   Zn    Zn3+2 0.499990 0.499980 0.346860 0.967240
O5    O     O_R   0.500000 0.683240 0.614650 -0.625375
O6    O     O_R   0.499980 0.683210 0.385300 -0.627864
O7    O     O_R   0.682200 0.500020 0.657490 -0.613554
O8    O     O_R   0.682180 0.499980 0.428150 -0.619864
C3    C     C_R   0.504046 0.740059 0.500992 0.875394
C4    C     C_R   0.741139 0.504242 0.558091 0.933607
H1    H     H_    0.876055 0.561432 0.379456 0.186821
H2    H     H_    0.123422 0.568989 0.616976 0.180222
C5    C     C_2   0.122325 0.519661 0.408590 -0.343925
C6    C     C_2   0.067892 0.551832 0.511078 -0.165174
H3    H     H_    0.933956 0.509072 0.697184 0.155078
C7    C     C_2   0.877747 0.521233 0.590595 -0.360458
C8    C     C_2   0.931726 0.549981 0.486483 -0.141221
H4    H     H_    0.066383 0.502845 0.302767 0.163261
C9    C     C_R   0.523853 0.063641 0.629370 0.109434
C10   C     C_R   0.524202 0.128546 0.506985 -0.110048
C11   C     C_R   0.549466 0.064954 0.392139 -0.152709
H5    H     H_    0.560258 0.114134 0.299506 0.199055
C12   C     C_R   0.549581 0.935435 0.392062 -0.200599
H6    H     H_    0.560179 0.886595 0.299265 0.172614
C13   C     C_R   0.524671 0.871399 0.506972 -0.102497
C14   C     C_R   0.524289 0.935913 0.629461 0.112451
C15   C     C_3   0.433389 0.928209 0.722394 -0.441559
C16   C     C_3   0.432585 0.070153 0.721870 -0.428366
H7    H     H_    0.339724 0.886246 0.669578 0.207207
H8    H     H_    0.478916 0.887540 0.826263 0.207275
H9    H     H_    0.338537 0.110613 0.668139 0.204339
H10   H     H_    0.477332 0.111598 0.825470 0.228981
C17   C     C_R   0.442292 0.405155 0.056507 0.164471
N1    N     N_R   0.499160 0.499140 0.142600 -0.131249
C18   C     C_R   0.566936 0.587133 0.089432 -0.128875
H11   H     H_    0.618975 0.658910 0.157319 0.144620
C19   C     C_R   0.567018 0.587091 0.945467 -0.122960
H12   H     H_    0.619109 0.658827 0.904711 0.146961
N2    N     N_R   0.499160 0.499180 0.856960 -0.102152
C20   C     C_R   0.441518 0.405542 0.913566 0.181199
C21   C     C_3   0.303108 0.371347 0.871855 -0.575307
C22   C     C_3   0.304256 0.370732 0.026468 0.102720
H13   H     H_    0.243234 0.447594 0.813459 0.188372
H14   H     H_    0.286982 0.278204 0.820725 0.228638
H15   H     H_    0.243226 0.444347 0.057094 0.121178
N3    N     N_R   0.284560 0.246281 0.080036 0.242777
O9    O     O_R   0.351443 0.150586 0.057048 -0.424025
O10   O     O_R   0.202035 0.231569 0.155731 -0.390313

loop_
_geom_bond_atom_site_label_1
_geom_bond_atom_site_label_2
_geom_bond_distance
_ccdc_geom_bond_type
O4    Zn2   1.953652 S    
N3    O10   1.300483 A    
N2    C20   1.364219 A    
C15   H7    1.112706 S    
C10   C11   1.403080 A    
C17   N1    1.361805 A    
C5    H4    1.087687 S    
Zn1   N2    2.012439 S    
C11   C12   1.383055 A    
C6    C8    1.428912 S    
C19   H12   1.081719 S    
C22   N3    1.463459 S    
H3    C7    1.087667 S    
Zn2   O8    1.934483 S    
C9    C16   1.495278 S    
C17   C20   1.407808 A    
C5    C6    1.330398 D    
C17   C22   1.491076 S    
C15   H8    1.112143 S    
C18   C19   1.420097 A    
H2    C6    1.087485 S    
C21   C22   1.521987 S    
C20   C21   1.494006 S    
Zn1   O7    1.953650 S    
C19   N2    1.368150 A    
C22   H15   1.113096 S    
C1    C10   1.419166 S    
C14   C15   1.495783 S    
Zn2   N1    2.012451 S    
O3    Zn1   1.934483 S    
C16   H10   1.111943 S    
O3    C2    1.287850 A    
O8    C4    1.287358 A    
O2    C1    1.284074 A    
C21   H13   1.110257 S    
O4    C2    1.289224 A    
O7    C4    1.290512 A    
C12   C13   1.402803 A    
C9    C10   1.391925 A    
C13   C14   1.392275 A    
C18   H11   1.081747 S    
C9    C14   1.363936 A    
C4    C7    1.440862 S    
H1    C8    1.088540 S    
N1    C18   1.368391 A    
C7    C8    1.331423 D    
Zn2   O6    1.993427 S    
C21   H14   1.110154 S    
C3    C13   1.418807 S    
C12   H6    1.083579 S    
Zn1   O5    1.992510 S    
C2    C5    1.439284 S    
O5    C3    1.283893 A    
N3    O9    1.302291 A    
C11   H5    1.083381 S    
O1    Zn1   1.993428 S    
O2    Zn2   1.992512 S    
C16   H9    1.112390 S    
C15   C16   1.515749 S    
O1    C1    1.284486 A    
O6    C3    1.284514 A    
