data_mof_unit_39101.cif
_audit_creation_date              2012-12-11T14:14:36-0500
_audit_creation_method            fapswitch 2.2
_symmetry_space_group_name_H-M    P1
_symmetry_Int_Tables_number       1
_space_group_crystal_system       triclinic
_cell_length_a                    24.481556
_cell_length_b                    17.334963
_cell_length_c                    15.549306
_cell_angle_alpha                 89.79128
_cell_angle_beta                  128.963743
_cell_angle_gamma                 90.334897
_cell_volume                      5130.86426175

loop_
_atom_site_label
_atom_site_type_symbol
_atom_type_description
_atom_site_fract_x
_atom_site_fract_y
_atom_site_fract_z
_atom_type_partial_charge
C1    C     C_R   0.335142 0.387972 0.203732 -0.157675
C2    C     C_R   0.680983 0.614074 0.494691 0.134886
C3    C     C_R   0.839153 0.159252 0.504356 0.131055
C4    C     C_R   0.180983 0.114073 0.494691 0.134886
C5    C     C_R   0.375897 0.671534 0.187837 0.091648
C6    C     C_R   0.628923 0.667389 0.819653 0.094895
C7    C     C_R   0.875898 0.171536 0.187840 0.091648
C8    C     C_R   0.128924 0.167386 0.819657 0.094895
C9    C     C_2   0.729239 0.654020 0.404636 -0.105940
C10   C     C_2   0.337508 0.777697 0.582776 -0.110513
C11   C     C_2   0.229239 0.154019 0.404636 -0.105940
C12   C     C_R   0.664735 0.386917 0.794365 -0.143709
C13   C     C_2   0.837508 0.277696 0.582776 -0.110513
C14   C     C_2   0.739647 0.627710 0.494821 -0.186785
C15   C     C_2   0.302010 0.721961 0.506407 -0.186286
C16   C     C_2   0.239648 0.127708 0.494820 -0.186786
C17   C     C_2   0.802010 0.221961 0.506408 -0.186286
C18   C     C_2   0.279845 0.206307 0.413604 -0.109711
C19   C     C_2   0.799658 0.339272 0.588114 -0.113368
C20   C     C_2   0.779845 0.706306 0.413604 -0.109710
C21   C     C_2   0.299659 0.839271 0.588114 -0.113368
C22   C     C_2   0.322734 0.250597 0.503732 -0.175051
C23   C     C_R   0.835142 0.887972 0.203731 -0.157676
C24   C     C_2   0.737477 0.361826 0.495965 -0.183991
C25   C     C_2   0.822736 0.750595 0.503733 -0.175049
C26   C     C_2   0.237477 0.861825 0.495965 -0.183991
C27   C     C_2   0.691581 0.336141 0.971843 -0.098545
C28   C     C_2   0.310036 0.335732 0.028390 -0.101511
C29   C     C_2   0.191582 0.836143 0.971844 -0.098544
C30   C     C_2   0.810036 0.835733 0.028390 -0.101513
C31   C     C_2   0.761855 0.340875 0.030302 -0.198133
C32   C     C_2   0.239706 0.341385 0.968128 -0.193842
C33   C     C_2   0.261856 0.840875 0.030302 -0.198131
C34   C     C_R   0.164736 0.886918 0.794366 -0.143707
C35   C     C_2   0.739707 0.841386 0.968126 -0.193842
C36   C     C_2   0.348359 0.740041 0.117489 -0.246461
C37   C     C_2   0.657555 0.735733 0.890145 -0.251197
C38   C     C_2   0.848360 0.240043 0.117491 -0.246459
C39   C     C_2   0.157557 0.235730 0.890149 -0.251197
C40   C     C_R   0.613464 0.397897 0.407463 -0.129736
C41   C     C_R   0.407779 0.361688 0.593206 -0.129414
C42   C     C_R   0.113465 0.897897 0.407463 -0.129736
C43   C     C_R   0.907780 0.861688 0.593206 -0.129414
C44   C     C_2   0.309564 0.789915 0.123800 -0.093263
C45   C     C_R   0.399040 0.625755 0.594781 -0.116328
C46   C     C_2   0.692201 0.788333 0.877525 -0.100522
C47   C     C_2   0.809564 0.289916 0.123801 -0.093265
C48   C     C_2   0.192200 0.288332 0.877527 -0.100523
C49   C     C_R   0.687486 0.397741 0.591490 -0.114624
C50   C     C_R   0.333202 0.361296 0.408082 -0.117993
C51   C     C_R   0.187486 0.897741 0.591490 -0.114626
C52   C     C_R   0.833203 0.861295 0.408082 -0.117991
C53   C     C_R   0.575871 0.388642 0.798947 -0.089502
C54   C     C_R   0.425483 0.387728 0.202798 -0.071927
C55   C     C_R   0.075871 0.888643 0.798949 -0.089503
C56   C     C_R   0.611960 0.601525 0.405177 -0.114753
C57   C     C_R   0.925483 0.887728 0.202798 -0.071927
C58   C     C_R   0.355955 0.365260 0.142770 0.074580
C59   C     C_R   0.644922 0.365126 0.857149 0.075518
C60   C     C_R   0.855955 0.865261 0.142769 0.074580
C61   C     C_R   0.144922 0.865127 0.857150 0.075518
C62   C     C_R   0.681657 0.382937 0.498971 0.130654
C63   C     C_R   0.354457 0.320389 0.501128 0.131910
C64   C     C_R   0.181657 0.882937 0.498972 0.130654
C65   C     C_R   0.854459 0.820388 0.501128 0.131909
C66   C     C_R   0.322592 0.624875 0.411073 -0.151049
C67   C     C_R   0.899041 0.125756 0.594781 -0.116327
C68   C     C_R   0.687619 0.598719 0.587439 -0.158106
C69   C     C_R   0.822591 0.124875 0.411073 -0.151048
C70   C     C_R   0.187619 0.098717 0.587439 -0.158107
C71   C     C_R   0.438511 0.635564 0.231430 -0.166010
C72   C     C_R   0.565925 0.631802 0.776501 -0.170816
C73   C     C_R   0.938511 0.135565 0.231432 -0.166012
C74   C     C_R   0.065926 0.131800 0.776504 -0.170816
C75   C     C_R   0.659056 0.628145 0.780894 0.151201
C76   C     C_R   0.342529 0.629869 0.220323 0.150852
C77   C     C_R   0.159056 0.128144 0.780896 0.151200
C78   C     C_R   0.111960 0.101525 0.405177 -0.114752
C79   C     C_R   0.842530 0.129870 0.220325 0.150858
C80   C     C_2   0.659403 0.298557 0.016754 0.988666
C81   C     C_2   0.342765 0.296221 0.986019 0.988317
C82   C     C_2   0.159405 0.798562 0.016758 0.988668
C83   C     C_2   0.842766 0.796220 0.986020 0.988319
C84   C     C_3   0.736610 0.628126 0.837782 -0.426507
C85   C     C_3   0.766767 0.546412 0.865255 -0.291599
C86   C     C_3   0.845120 0.547705 0.922277 -0.877369
C87   C     C_3   0.263280 0.626475 0.150438 -0.435895
C88   C     C_3   0.234793 0.545791 0.142786 -0.289475
C89   C     C_R   0.339153 0.659252 0.504356 0.131056
C90   C     C_3   0.156164 0.547915 0.083672 -0.865134
C91   C     C_3   0.236610 0.128127 0.837778 -0.426508
C92   C     C_3   0.266769 0.046414 0.865253 -0.291591
C93   C     C_3   0.345119 0.047709 0.922255 -0.877375
C94   C     C_3   0.763280 0.126476 0.150439 -0.435906
C95   C     C_3   0.734793 0.045790 0.142781 -0.289472
C96   C     C_3   0.656164 0.047913 0.083666 -0.865085
H1    H     H_    0.282704 0.386480 0.177917 0.085348
H2    H     H_    0.817470 0.354728 0.669649 0.119867
H3    H     H_    0.772411 0.718394 0.338327 0.122737
H4    H     H_    0.317470 0.854728 0.669649 0.119867
H5    H     H_    0.329828 0.241148 0.579131 0.135491
H6    H     H_    0.722773 0.350120 0.415142 0.146766
H7    H     H_    0.829832 0.741146 0.579133 0.135490
H8    H     H_    0.222773 0.850120 0.415142 0.146765
H9    H     H_    0.304612 0.783648 0.188029 0.181310
H10   H     H_    0.694329 0.783361 0.810151 0.186421
H11   H     H_    0.804611 0.283648 0.188028 0.181311
H12   H     H_    0.716359 0.383922 0.817016 0.089188
H13   H     H_    0.194327 0.283361 0.810151 0.186422
H14   H     H_    0.783961 0.370340 0.996785 0.138802
H15   H     H_    0.217181 0.372553 0.999355 0.138417
H16   H     H_    0.283962 0.870339 0.996784 0.138798
H17   H     H_    0.717181 0.872555 0.999353 0.138416
H18   H     H_    0.355115 0.746249 0.055079 0.147911
H19   H     H_    0.653910 0.740656 0.956065 0.147327
H20   H     H_    0.855117 0.246251 0.055083 0.147911
H21   H     H_    0.153914 0.240652 0.956071 0.147328
H22   H     H_    0.593625 0.401569 0.322737 0.100367
H23   H     H_    0.782703 0.886481 0.177916 0.085349
H24   H     H_    0.434854 0.347078 0.678848 0.114255
H25   H     H_    0.093625 0.901569 0.322737 0.100366
H26   H     H_    0.934855 0.847077 0.678848 0.114256
H27   H     H_    0.735146 0.401898 0.676124 0.081167
H28   H     H_    0.290548 0.347507 0.322912 0.091276
H29   H     H_    0.235146 0.901897 0.676124 0.081170
H30   H     H_    0.790550 0.847506 0.322911 0.091276
H31   H     H_    0.547142 0.390858 0.830429 0.105827
H32   H     H_    0.455986 0.388409 0.174308 0.108704
H33   H     H_    0.047143 0.890860 0.830430 0.105830
H34   H     H_    0.216359 0.883923 0.817017 0.089186
H35   H     H_    0.955987 0.888409 0.174309 0.108702
H36   H     H_    0.273671 0.630484 0.329653 0.119421
H37   H     H_    0.737303 0.587102 0.666713 0.112328
H38   H     H_    0.773669 0.130481 0.329654 0.119418
H39   H     H_    0.237303 0.087099 0.666712 0.112330
H40   H     H_    0.475304 0.650253 0.217419 0.112167
H41   H     H_    0.533204 0.643738 0.798887 0.104986
H42   H     H_    0.975304 0.150254 0.217421 0.112168
H43   H     H_    0.033205 0.143735 0.798890 0.104986
H44   H     H_    0.420900 0.632670 0.679870 0.089319
H45   H     H_    0.791744 0.627798 0.574775 0.134184
H46   H     H_    0.590996 0.595171 0.320227 0.082031
H47   H     H_    0.920901 0.132672 0.679870 0.089319
H48   H     H_    0.090996 0.095171 0.320227 0.082031
H49   H     H_    0.677986 0.649892 0.323717 0.116797
H50   H     H_    0.393965 0.774082 0.648043 0.127229
H51   H     H_    0.177986 0.149891 0.323717 0.116798
H52   H     H_    0.893965 0.274082 0.648043 0.127229
H53   H     H_    0.659967 0.283976 0.146124 0.316404
H54   H     H_    0.341559 0.275434 0.857248 0.320115
H55   H     H_    0.159971 0.783983 0.146129 0.316403
H56   H     H_    0.245415 0.723415 0.441919 0.139155
H57   H     H_    0.841561 0.775433 0.857251 0.320113
H58   H     H_    0.854497 0.575014 0.867826 0.257733
H59   H     H_    0.874327 0.580282 0.001242 0.289614
H60   H     H_    0.865264 0.487710 0.940595 0.236930
H61   H     H_    0.758847 0.518245 0.921057 0.207516
H62   H     H_    0.739399 0.511599 0.788779 0.194780
H63   H     H_    0.746669 0.660657 0.787692 0.196446
H64   H     H_    0.765186 0.659166 0.917692 0.210753
H65   H     H_    0.145670 0.584044 0.130688 0.262894
H66   H     H_    0.127196 0.571777 0.998941 0.282915
H67   H     H_    0.291745 0.127797 0.574774 0.134184
H68   H     H_    0.136749 0.488490 0.077344 0.236151
H69   H     H_    0.243554 0.508485 0.094664 0.202799
H70   H     H_    0.262062 0.520446 0.226165 0.203993
H71   H     H_    0.245103 0.670017 0.178998 0.195791
H72   H     H_    0.239542 0.643857 0.064474 0.206886
H73   H     H_    0.354483 0.074995 0.867775 0.257712
H74   H     H_    0.374333 0.080309 0.001203 0.289627
H75   H     H_    0.365267 0.987716 0.940601 0.236938
H76   H     H_    0.258859 0.018251 0.921070 0.207515
H77   H     H_    0.239395 0.011597 0.788781 0.194779
H78   H     H_    0.745415 0.223414 0.441919 0.139155
H79   H     H_    0.246665 0.160658 0.787685 0.196453
H80   H     H_    0.265187 0.159168 0.917687 0.210748
H81   H     H_    0.645672 0.084021 0.130705 0.262876
H82   H     H_    0.627198 0.071800 0.998946 0.282923
H83   H     H_    0.636743 0.988482 0.077302 0.236140
H84   H     H_    0.743555 0.008488 0.094657 0.202797
H85   H     H_    0.762063 0.020443 0.226159 0.203990
H86   H     H_    0.745103 0.170016 0.179001 0.195794
H87   H     H_    0.739543 0.143862 0.064476 0.206881
H88   H     H_    0.272412 0.218393 0.338328 0.122738
N1    N     N_R   0.389060 0.424180 0.294540 -0.041896
N2    N     N_R   0.374530 0.423490 0.443400 -0.047645
N3    N     N_R   0.125470 0.923490 0.556600 -0.043776
N4    N     N_R   0.874530 0.923490 0.443400 -0.047645
N5    N     N_R   0.555250 0.423100 0.705420 -0.045490
N6    N     N_R   0.444750 0.423100 0.294580 -0.046615
N7    N     N_R   0.055250 0.923100 0.705420 -0.045490
N8    N     N_R   0.944750 0.923100 0.294580 -0.046615
N9    N     N_R   0.375210 0.577180 0.443400 -0.045775
N10   N     N_R   0.624790 0.577180 0.556600 -0.041578
N11   N     N_R   0.875210 0.077180 0.443400 -0.045775
N12   N     N_R   0.610940 0.424180 0.705460 -0.043288
N13   N     N_R   0.124790 0.077180 0.556600 -0.041578
N14   N     N_R   0.445430 0.577570 0.294580 -0.054895
N15   N     N_R   0.554570 0.577570 0.705420 -0.052890
N16   N     N_R   0.945430 0.077570 0.294580 -0.054895
N17   N     N_R   0.054570 0.077570 0.705420 -0.052890
N18   N     N_R   0.611620 0.576500 0.705460 -0.058440
N19   N     N_R   0.388380 0.576500 0.294540 -0.057455
N20   N     N_R   0.111620 0.076500 0.705460 -0.058441
N21   N     N_R   0.888380 0.076500 0.294540 -0.057455
N22   N     N_R   0.421010 0.576890 0.556640 -0.041593
N23   N     N_R   0.889060 0.924180 0.294540 -0.041896
N24   N     N_R   0.578990 0.576890 0.443360 -0.041767
N25   N     N_R   0.921010 0.076890 0.556640 -0.041594
N26   N     N_R   0.078990 0.076890 0.443360 -0.041767
N27   N     N_R   0.110940 0.924180 0.705460 -0.043289
N28   N     N_R   0.579670 0.423790 0.443360 -0.040854
N29   N     N_R   0.420330 0.423790 0.556640 -0.044191
N30   N     N_R   0.079670 0.923790 0.443360 -0.040854
N31   N     N_R   0.920330 0.923790 0.556640 -0.044191
N32   N     N_R   0.625470 0.423490 0.556600 -0.043776
Ni1   Ni    Ni4+2 0.383200 0.500680 0.370150 0.206604
Ni2   Ni    Ni4+2 0.616800 0.500680 0.629850 0.204531
Ni3   Ni    Ni4+2 0.883200 0.000680 0.370150 0.206604
Ni4   Ni    Ni4+2 0.116800 0.000680 0.629850 0.204531
Ni5   Ni    Ni4+2 0.512440 0.500680 0.370150 0.208450
Ni6   Ni    Ni4+2 0.487560 0.500680 0.629850 0.213460
Ni7   Ni    Ni4+2 0.012440 0.000680 0.370150 0.208450
Ni8   Ni    Ni4+2 0.987560 0.000680 0.629850 0.213459
O1    O     O_2   0.607662 0.257196 0.957087 -0.654936
O2    O     O_R   0.686693 0.312495 0.125772 -0.825351
O3    O     O_2   0.395598 0.257394 0.048684 -0.655293
O4    O     O_R   0.314445 0.305019 0.875590 -0.821290
O5    O     O_2   0.107662 0.757203 0.957091 -0.654932
O6    O     O_R   0.186696 0.812500 0.125776 -0.825352
O7    O     O_2   0.895597 0.757392 0.048686 -0.655286
O8    O     O_R   0.814448 0.805019 0.875592 -0.821290

loop_
_geom_bond_atom_site_label_1
_geom_bond_atom_site_label_2
_ccdc_geom_bond_type
C40   H22   S    
C87   C88   S    
N2    N29   A    
C11   C18   S    
C69   H38   S    
H53   O2    S    
C32   H15   S    
C12   N12   A    
C79   C94   S    
C23   N23   A    
C95   C96   S    
C2    C56   A    
C21   C26   D    
C6    C75   A    
C67   H47   S    
N31   Ni8   S    
N11   Ni3   S    
C53   C59   A    
C76   N19   A    
N1    N6    A    
C7    C73   A    
C44   H9    S    
C6    C72   A    
N27   Ni4   S    
C49   N32   A    
C93   H73   S    
N16   N21   A    
C22   H5    S    
N1    Ni1   S    
C30   C35   D    
N20   Ni4   S    
C68   H37   S    
C3    C69   A    
N32   Ni2   S    
N11   N25   A    
C2    C68   A    
C10   C15   D    
C23   H23   S    
C75   C84   S    
H55   O6    S    
C20   C25   D    
C49   H27   S    
C5    C36   S    
C29   C33   D    
C69   N11   A    
C40   C62   A    
C52   N4    A    
N29   Ni6   S    
C55   C61   A    
C30   C83   S    
C86   H60   S    
C26   C64   S    
N13   N26   A    
C53   H31   S    
C26   H8    S    
C22   C63   S    
C75   N18   A    
C12   C59   A    
C19   H2    S    
N21   Ni3   S    
N28   N32   A    
C55   H33   S    
C30   C60   S    
N15   N18   A    
C24   C62   S    
H57   O8    S    
C67   N25   A    
C49   C62   A    
C8    C39   S    
C80   O1    D    
N13   Ni4   S    
C45   C89   A    
C78   N26   A    
C73   H42   S    
N3    Ni4   S    
C56   H46   S    
C48   H13   S    
C82   O6    S    
N3    N30   A    
C36   H18   S    
C10   C21   S    
C31   C47   S    
C50   C63   A    
C32   C48   S    
C85   H61   S    
C4    C70   A    
C15   H56   S    
N4    N31   A    
C66   C89   A    
C66   H36   S    
N28   Ni5   S    
C16   H67   S    
C84   H64   S    
C23   C60   A    
N2    Ni1   S    
C29   C61   S    
C93   H74   S    
H54   O4    S    
C13   C19   S    
C81   O4    S    
C27   C31   D    
C51   H29   S    
C28   C32   D    
N14   Ni5   S    
C25   C65   S    
C84   C85   S    
C57   N8    A    
N10   Ni2   S    
C27   C80   S    
C34   N27   A    
N6    Ni5   S    
C1    H1    S    
C71   H40   S    
C12   H12   S    
C21   H4    S    
N19   Ni1   S    
N5    Ni6   S    
C25   H7    S    
C57   C60   A    
C90   H65   S    
N24   Ni5   S    
C39   H21   S    
C35   H17   S    
C54   H32   S    
C45   H44   S    
C90   H68   S    
C55   N7    A    
C4    C16   S    
N9    Ni1   S    
C9    C14   D    
C45   N22   A    
C4    C78   A    
C42   N30   A    
C84   H63   S    
C78   H48   S    
C15   C89   S    
C38   H20   S    
C11   C16   D    
C9    C20   S    
C87   H72   S    
C56   N24   A    
C18   H88   S    
C43   C65   A    
C95   H85   S    
C8    C74   A    
C50   H28   S    
C6    C37   S    
C91   H79   S    
C86   H59   S    
C76   C87   S    
C43   H26   S    
C38   C47   D    
C10   H50   S    
C72   H41   S    
C82   O5    D    
C90   H66   S    
C70   N13   A    
C47   H11   S    
C8    C77   A    
C96   H81   S    
N8    N23   A    
C36   C44   D    
C94   H87   S    
C41   C63   A    
C50   N2    A    
C77   N20   A    
C42   C64   A    
C91   C92   S    
C66   N9    A    
C17   H78   S    
C71   N14   A    
C7    C79   A    
C54   C58   A    
N4    Ni3   S    
C33   H16   S    
C77   C91   S    
C52   H30   S    
N9    N22   A    
C54   N6    A    
C81   O3    D    
C28   C81   S    
C18   C22   D    
N16   Ni7   S    
N23   Ni3   S    
C57   H35   S    
C3    C67   A    
C51   C64   A    
N8    Ni7   S    
C88   C90   S    
C85   C86   S    
C96   H83   S    
N12   Ni2   S    
C7    C38   S    
C37   H19   S    
C74   N17   A    
C28   C58   S    
C92   H77   S    
C87   H71   S    
N10   N24   A    
C74   H43   S    
C40   N28   A    
C88   H70   S    
N17   Ni8   S    
C13   C17   D    
N26   Ni7   S    
C96   H82   S    
C1    N1    A    
N18   Ni2   S    
C5    C76   A    
C19   C24   D    
C86   H58   S    
C29   C82   S    
C5    C71   A    
C27   C59   S    
C1    C58   A    
C72   N15   A    
N5    N12   A    
C11   H51   S    
C70   H39   S    
C20   H3    S    
C83   O7    D    
N22   Ni6   S    
C46   H10   S    
C41   N29   A    
C9    H49   S    
C92   C93   S    
N17   N20   A    
C31   H14   S    
C91   H80   S    
C3    C17   S    
C24   H6    S    
C34   C61   A    
C41   H24   S    
C94   C95   S    
C2    C14   S    
C33   C44   S    
C14   H45   S    
C73   N16   A    
C51   N3    A    
N30   Ni7   S    
N15   Ni6   S    
C43   N31   A    
C95   H84   S    
C34   H34   S    
C92   H76   S    
C88   H69   S    
C85   H62   S    
N14   N19   A    
N25   Ni8   S    
C83   O8    S    
C39   C48   D    
C68   N10   A    
C94   H86   S    
C13   H52   S    
C80   O2    S    
C37   C46   D    
C35   C46   S    
C53   N5    A    
N7    Ni8   S    
C52   C65   A    
C42   H25   S    
N7    N27   A    
C79   N21   A    
C93   H75   S    
