data_mof_unit_43605.cif
_audit_creation_date              2012-12-10T18:12:43-0500
_audit_creation_method            fapswitch 2.2
_symmetry_space_group_name_H-M    P1
_symmetry_Int_Tables_number       1
_space_group_crystal_system       triclinic
_cell_length_a                    12.655442
_cell_length_b                    13.043303
_cell_length_c                    15.693784
_cell_angle_alpha                 92.082442
_cell_angle_beta                  103.960015
_cell_angle_gamma                 80.151657
_cell_volume                      2476.95986002

loop_
_atom_site_label
_atom_site_type_symbol
_atom_type_description
_atom_site_fract_x
_atom_site_fract_y
_atom_site_fract_z
_atom_type_partial_charge
C1    C     C_R   0.436545 0.692441 0.487639 0.863376
C2    C     C_R   0.598629 0.194124 0.513228 -0.132436
C3    C     C_R   0.288133 0.851499 0.491483 0.152316
C4    C     C_R   0.502399 0.500207 0.662108 0.888365
C5    C     C_R   0.255373 0.961090 0.481358 0.199528
C6    C     C_R   0.332787 0.021423 0.471827 -0.287662
C7    C     C_R   0.439973 0.975750 0.467026 0.083546
C8    C     C_R   0.460990 0.868974 0.451076 0.044897
C9    C     C_R   0.527535 0.032860 0.478172 0.045068
C10   C     C_R   0.629587 0.986263 0.460641 0.040322
C11   C     C_R   0.638747 0.886827 0.424100 -0.235178
C12   C     C_3   0.506602 0.500543 0.918752 0.139854
C13   C     C_R   0.554158 0.829508 0.417556 -0.176210
C14   C     C_R   0.517587 0.133625 0.510845 -0.256684
C15   C     C_R   0.702759 0.145537 0.504237 -0.306748
C16   C     C_R   0.562450 0.307427 0.512152 0.884766
C17   C     C_R   0.391973 0.804774 0.473526 -0.195335
C18   C     C_R   0.072735 0.421214 0.336095 -0.295713
C19   C     C_R   0.803529 0.613183 0.617048 0.026516
C20   C     C_R   0.908592 0.638935 0.644749 -0.267446
C21   C     C_R   0.987511 0.604199 0.597388 -0.185382
C22   C     C_R   0.960752 0.545002 0.520852 -0.009022
C23   C     C_3   0.476756 0.408532 0.020060 -0.270646
C24   C     C_R   0.851957 0.521574 0.493835 0.131599
C25   C     C_R   0.038443 0.503909 0.471314 -0.025610
C26   C     C_R   0.999026 0.466928 0.385474 0.129014
C27   C     C_R   0.886884 0.464881 0.354195 -0.300152
C28   C     C_R   0.497103 0.501162 0.337931 0.880714
C29   C     C_R   0.826596 0.460088 0.417203 0.204072
C30   C     C_R   0.153283 0.493551 0.504122 -0.055608
C31   C     C_R   0.185037 0.409087 0.373435 0.014980
C32   C     C_3   0.421905 0.578626 0.013209 -0.124011
C33   C     C_3   0.525278 0.592552 0.981164 -0.225837
C34   C     C_3   0.496017 0.500810 0.082346 0.141761
C35   C     C_1   0.507760 0.500352 0.752294 -0.183981
C36   C     C_1   0.492337 0.500934 0.248002 -0.191262
C37   C     C_3   0.403240 0.486655 0.949118 -0.218367
C38   C     C_3   0.217903 0.788509 0.528522 -0.391766
C39   C     C_3   0.271456 0.758773 0.624533 -0.870131
C40   C     C_3   0.141427 0.018340 0.484791 -0.441375
C41   C     C_3   0.055436 0.000394 0.401317 -0.818399
C42   C     C_3   0.813293 0.349075 0.429087 -0.339032
C43   C     C_3   0.727320 0.308341 0.354789 -0.813912
C44   C     C_3   0.715553 0.285199 0.047287 0.071606
C45   C     C_3   0.578999 0.424480 0.988897 0.558892
C46   C     C_3   0.836180 0.300760 0.074839 -0.336073
C47   C     C_3   0.900471 0.231881 0.153283 -0.986198
C48   C     C_3   0.876808 0.930522 0.547100 0.068839
C49   C     C_3   0.922992 0.995549 0.626626 -0.369816
C50   C     C_3   0.000749 0.926831 0.700095 -0.966016
C51   C     C_3   0.599769 0.515237 0.052451 -0.254563
C52   C     C_1   0.509410 0.500260 0.828129 -0.024609
C53   C     C_1   0.492049 0.500925 0.172519 -0.060110
C54   C     C_R   0.719867 0.040586 0.480545 0.495262
H1    H     H_    0.544656 0.667501 0.963058 0.150154
H2    H     H_    0.356883 0.642049 0.025636 0.138029
H3    H     H_    0.067751 0.626343 0.620327 0.134441
H4    H     H_    0.928992 0.685178 0.703192 0.146299
H5    H     H_    0.679730 0.526143 0.096892 0.135695
H6    H     H_    0.457878 0.333285 0.038015 0.138906
H7    H     H_    0.323169 0.475687 0.904848 0.150925
H8    H     H_    0.770931 0.187124 0.515216 0.171123
H9    H     H_    0.712391 0.851841 0.403321 0.178759
H10   H     H_    0.354068 0.710266 0.632116 0.260249
H11   H     H_    0.280378 0.830132 0.664612 0.251715
H12   H     H_    0.444819 0.168254 0.532398 0.171114
H13   H     H_    0.218837 0.714184 0.650465 0.233452
H14   H     H_    0.134588 0.831373 0.526899 0.195671
H15   H     H_    0.199617 0.719835 0.487809 0.228992
H16   H     H_    0.080759 0.023567 0.342743 0.253545
H17   H     H_    0.044916 0.917536 0.394998 0.253658
H18   H     H_    0.974884 0.048922 0.402937 0.285158
H19   H     H_    0.117897 0.996537 0.544298 0.210571
H20   H     H_    0.140402 0.103730 0.490559 0.201877
H21   H     H_    0.722074 0.343052 0.290177 0.233197
H22   H     H_    0.750179 0.222713 0.349287 0.239161
H23   H     H_    0.307225 0.104757 0.466567 0.146367
H24   H     H_    0.644357 0.323646 0.367801 0.259481
H25   H     H_    0.893944 0.297613 0.431311 0.177736
H26   H     H_    0.802074 0.338541 0.495055 0.207477
H27   H     H_    0.713007 0.201941 0.030876 0.166790
H28   H     H_    0.676916 0.302389 0.104260 0.117603
H29   H     H_    0.875636 0.281446 0.018908 0.237010
H30   H     H_    0.839902 0.383530 0.092566 0.208560
H31   H     H_    0.864795 0.251949 0.210995 0.267618
H32   H     H_    0.987878 0.243778 0.170669 0.262624
H33   H     H_    0.898400 0.148556 0.136959 0.270686
H34   H     H_    0.564012 0.753087 0.388410 0.171924
H35   H     H_    0.946090 0.876616 0.529582 0.172976
H36   H     H_    0.822173 0.880343 0.564738 0.139488
H37   H     H_    0.967953 0.052918 0.606520 0.226987
H38   H     H_    0.853871 0.039200 0.652293 0.217797
H39   H     H_    0.955909 0.871335 0.722994 0.262388
H40   H     H_    0.033132 0.976120 0.756249 0.267935
H41   H     H_    0.071529 0.882784 0.676829 0.267562
H42   H     H_    0.243149 0.376912 0.335066 0.138723
H43   H     H_    0.859971 0.431233 0.290086 0.163024
H44   H     H_    0.043832 0.392641 0.270361 0.147597
H45   H     H_    0.189452 0.524220 0.567133 0.136122
H46   H     H_    0.742536 0.639607 0.654322 0.140903
N1    N     N_R   0.222180 0.444680 0.455580 -0.104903
N2    N     N_R   0.776980 0.554790 0.543960 -0.126478
O1    O     O_R   0.366730 0.627160 0.478790 -0.604279
O2    O     O_3   0.823807 0.994310 0.472687 -0.673435
O3    O     O_R   0.544830 0.662520 0.507160 -0.614042
O4    O     O_R   0.410960 0.482330 0.609040 -0.613893
O5    O     O_R   0.589060 0.517690 0.637410 -0.615736
O6    O     O_R   0.455170 0.337480 0.492840 -0.610939
O7    O     O_R   0.633270 0.372840 0.521210 -0.618493
O8    O     O_R   0.410940 0.482310 0.362590 -0.617440
O9    O     O_R   0.589040 0.517670 0.390960 -0.599165
O10   O     O_3   0.660911 0.344693 0.970741 -0.649670
Zn1   Zn    Zn3+2 0.381080 0.476390 0.481050 0.929491
Zn2   Zn    Zn3+2 0.618920 0.523610 0.518950 0.930913

loop_
_geom_bond_atom_site_label_1
_geom_bond_atom_site_label_2
_ccdc_geom_bond_type
C33   H1    S    
C42   H26   S    
C8    C13   A    
C23   C45   S    
C29   C42   S    
C27   C29   A    
N1    Zn1   S    
C19   C20   A    
C18   C26   A    
C45   O10   S    
C7    C8    A    
C43   H24   S    
C39   H10   S    
C26   C27   A    
C47   H31   S    
C54   O2    S    
O1    Zn1   S    
C44   H28   S    
C38   C39   S    
C19   N2    A    
C50   H41   S    
C45   C51   S    
C31   H42   S    
C48   O2    S    
C25   C30   A    
C40   H19   S    
C30   N1    A    
C12   C37   S    
C24   C29   A    
C36   C53   T    
C27   H43   S    
C3    C38   S    
C22   C25   A    
C2    C16   S    
C9    C10   A    
C1    O1    A    
C41   H17   S    
C38   H15   S    
C42   H25   S    
C48   H36   S    
C21   C22   A    
C39   H11   S    
C49   H37   S    
C2    C14   A    
C12   C52   S    
C44   C46   S    
C16   O7    A    
C28   O9    A    
C43   H21   S    
C23   H6    S    
C4    O5    A    
O4    Zn1   S    
C47   H32   S    
O3    Zn2   S    
C44   H27   S    
C50   H40   S    
C6    H23   S    
C28   O8    A    
C25   C26   A    
C23   C37   S    
C4    O4    A    
C30   H45   S    
C34   C51   S    
C32   C34   S    
O6    Zn1   S    
C9    C14   A    
C15   C54   A    
O5    Zn2   S    
C21   H3    S    
N2    Zn2   S    
C23   C34   S    
C14   H12   S    
C32   C37   S    
C20   C21   A    
C2    C15   A    
O8    Zn1   S    
O7    Zn2   S    
C41   H18   S    
C46   H30   S    
C44   O10   S    
C48   C49   S    
C38   H14   S    
C48   H35   S    
C22   C24   A    
C51   H5    S    
C42   C43   S    
C49   H38   S    
C20   H4    S    
C31   N1    A    
C43   H22   S    
C7    C9    A    
C46   C47   S    
C40   C41   S    
C39   H13   S    
C12   C45   S    
C3    C5    A    
C37   H7    S    
C19   H46   S    
C50   H39   S    
C6    C7    A    
C33   C51   S    
C11   H9    S    
C8    C17   A    
C32   C33   S    
C11   C13   A    
C5    C6    A    
C13   H34   S    
C15   H8    S    
C40   H20   S    
C3    C17   A    
O9    Zn2   S    
C24   N2    A    
C10   C54   A    
C4    C35   S    
C10   C11   A    
C16   O6    A    
C46   H29   S    
C1    C17   S    
C28   C36   S    
C34   C53   S    
C49   C50   S    
C5    C40   S    
C35   C52   T    
C18   C31   A    
C18   H44   S    
C12   C33   S    
C32   H2    S    
C1    O3    A    
C41   H16   S    
C47   H33   S    
