data_mof_unit_42763.cif
_audit_creation_date              2012-12-10T18:04:32-0500
_audit_creation_method            fapswitch 2.2
_symmetry_space_group_name_H-M    P1
_symmetry_Int_Tables_number       1
_space_group_crystal_system       triclinic
_cell_length_a                    19.458805
_cell_length_b                    17.664255
_cell_length_c                    12.649086
_cell_angle_alpha                 90.126914
_cell_angle_beta                  99.416465
_cell_angle_gamma                 89.979897
_cell_volume                      4289.21433397

loop_
_atom_site_label
_atom_site_type_symbol
_atom_type_description
_atom_site_fract_x
_atom_site_fract_y
_atom_site_fract_z
_atom_type_partial_charge
C1    C     C_R   0.408433 0.099596 0.441921 0.849039
C2    C     C_R   0.411673 0.896723 0.444130 0.838401
C3    C     C_R   0.908436 0.599600 0.441923 0.849047
C4    C     C_R   0.911680 0.396715 0.444135 0.838435
C5    C     C_R   0.744911 0.216370 0.538515 0.077250
C6    C     C_R   0.713464 0.748534 0.516366 0.081800
C7    C     C_R   0.244896 0.716383 0.538495 0.077276
C8    C     C_R   0.213465 0.248532 0.516371 0.081798
C9    C     C_R   0.782405 0.211227 0.644455 0.174818
C10   C     C_R   0.693001 0.689315 0.580397 0.179808
C11   C     C_R   0.282421 0.711190 0.644397 0.174798
C12   C     C_R   0.193026 0.189330 0.580443 0.179806
C13   C     C_R   0.349816 0.739952 0.667598 -0.254776
C14   C     C_R   0.221479 0.117346 0.575311 -0.256874
C15   C     C_R   0.849792 0.240010 0.667687 -0.254776
C16   C     C_R   0.721452 0.617331 0.575251 -0.256863
C17   C     C_R   0.378110 0.777974 0.588993 -0.197001
C18   C     C_R   0.272835 0.105111 0.512949 -0.207708
C19   C     C_R   0.878106 0.278005 0.589075 -0.196976
C20   C     C_R   0.772828 0.605110 0.512917 -0.207716
C21   C     C_R   0.676810 0.189794 0.518427 -0.259608
C22   C     C_R   0.685915 0.820378 0.525578 -0.249900
C23   C     C_R   0.176793 0.689813 0.518440 -0.259596
C24   C     C_R   0.185909 0.320374 0.525561 -0.249896
C25   C     C_R   0.686134 0.143909 0.700181 -0.204678
C26   C     C_R   0.611817 0.773711 0.646987 -0.200329
C27   C     C_R   0.186166 0.643860 0.700147 -0.204687
C28   C     C_R   0.111855 0.273738 0.647038 -0.200352
C29   C     C_R   0.362201 0.836225 0.409448 -0.112011
C30   C     C_R   0.356269 0.156948 0.405158 -0.111057
C31   C     C_R   0.862234 0.336184 0.409469 -0.112082
C32   C     C_R   0.856282 0.656964 0.405169 -0.111047
C33   C     C_R   0.643307 0.010226 0.134361 -0.310237
C34   C     C_R   0.143307 0.510223 0.134361 -0.310223
C35   C     C_R   0.378497 0.004788 0.761001 0.040434
C36   C     C_R   0.878497 0.504791 0.761001 0.040424
C37   C     C_R   0.352971 0.016210 0.855549 -0.283905
C38   C     C_R   0.852971 0.516209 0.855549 -0.283905
C39   C     C_R   0.589206 0.897874 0.556324 0.846570
C40   C     C_R   0.590806 0.100415 0.557520 0.861977
C41   C     C_R   0.089208 0.397875 0.556325 0.846566
C42   C     C_R   0.090807 0.600413 0.557521 0.861961
C43   C     C_R   0.399545 0.019165 0.951117 -0.121006
C44   C     C_R   0.899545 0.519160 0.951118 -0.121020
C45   C     C_R   0.471700 0.006437 0.952759 0.036363
C46   C     C_R   0.971700 0.506432 0.952759 0.036361
C47   C     C_R   0.495276 0.001540 0.853616 0.212651
C48   C     C_R   0.995276 0.501537 0.853617 0.212646
C49   C     C_R   0.521530 0.002542 0.047639 -0.042391
C50   C     C_R   0.021530 0.502537 0.047639 -0.042395
C51   C     C_R   0.593712 0.006525 0.041239 0.128015
C52   C     C_R   0.093711 0.506520 0.041239 0.128009
C53   C     C_R   0.615509 0.005750 0.941950 -0.267926
C54   C     C_R   0.115509 0.505745 0.941949 -0.267911
C55   C     C_R   0.566762 0.000870 0.849394 -0.210116
C56   C     C_R   0.066762 0.500866 0.849394 -0.210114
C57   C     C_R   0.502854 0.993731 0.149065 0.495594
C58   C     C_R   0.002854 0.493727 0.149066 0.495574
C59   C     C_R   0.620986 0.008764 0.232757 -0.071460
C60   C     C_R   0.120986 0.508763 0.232757 -0.071450
C61   C     C_R   0.752146 0.176204 0.725106 -0.199519
C62   C     C_R   0.643260 0.702825 0.647010 -0.200224
C63   C     C_R   0.252185 0.676138 0.725044 -0.199524
C64   C     C_R   0.143306 0.202856 0.647082 -0.200232
C65   C     C_R   0.649553 0.149150 0.595492 -0.047314
C66   C     C_R   0.632169 0.831644 0.583370 -0.046406
C67   C     C_R   0.149558 0.649142 0.595493 -0.047300
C68   C     C_R   0.132178 0.331652 0.583376 -0.046425
C69   C     C_R   0.330848 0.832933 0.301433 -0.181447
C70   C     C_R   0.370497 0.210484 0.329845 -0.194246
C71   C     C_R   0.830923 0.332817 0.301422 -0.181400
C72   C     C_R   0.870527 0.710515 0.329883 -0.194238
C73   C     C_R   0.274411 0.785548 0.269791 -0.151833
C74   C     C_R   0.328804 0.274154 0.309161 -0.147598
C75   C     C_R   0.774516 0.285384 0.269766 -0.151815
C76   C     C_R   0.828839 0.774192 0.309207 -0.147593
C77   C     C_R   0.245874 0.745265 0.346348 -0.195512
C78   C     C_R   0.275794 0.287422 0.368411 -0.185851
C79   C     C_R   0.745959 0.245135 0.346336 -0.195488
C80   C     C_R   0.775820 0.787450 0.368444 -0.185838
C81   C     C_R   0.275882 0.749310 0.456254 0.083856
C82   C     C_R   0.261596 0.234579 0.446370 0.087040
C83   C     C_R   0.775922 0.249258 0.456271 0.083850
C84   C     C_R   0.761608 0.734594 0.446380 0.087039
C85   C     C_R   0.339466 0.787903 0.485154 0.085506
C86   C     C_R   0.296976 0.164822 0.454646 0.093004
C87   C     C_R   0.839489 0.287886 0.485195 0.085478
C88   C     C_R   0.796982 0.664832 0.454643 0.092993
H1    H     H_    0.665403 0.112000 0.760791 0.150636
H2    H     H_    0.569471 0.781996 0.691755 0.152546
H3    H     H_    0.165451 0.611928 0.760744 0.150614
H4    H     H_    0.069525 0.282034 0.691831 0.152570
H5    H     H_    0.670420 0.007430 0.935828 0.151086
H6    H     H_    0.170419 0.507426 0.935828 0.151081
H7    H     H_    0.698455 0.014718 0.130999 0.154370
H8    H     H_    0.198455 0.514714 0.130998 0.154378
H9    H     H_    0.343128 0.003308 0.685769 0.137278
H10   H     H_    0.843129 0.503317 0.685768 0.137293
H11   H     H_    0.377865 0.035330 0.020880 0.190065
H12   H     H_    0.877865 0.535321 0.020881 0.190069
H13   H     H_    0.297764 0.024716 0.854547 0.151833
H14   H     H_    0.797764 0.524717 0.854547 0.151844
H15   H     H_    0.586307 0.998542 0.775368 0.209704
H16   H     H_    0.086306 0.498541 0.775368 0.209699
H17   H     H_    0.380202 0.734321 0.747021 0.150949
H18   H     H_    0.204879 0.070785 0.620787 0.142878
H19   H     H_    0.880157 0.234415 0.747141 0.150941
H20   H     H_    0.704835 0.570759 0.620698 0.142878
H21   H     H_    0.780516 0.171301 0.805997 0.137314
H22   H     H_    0.626726 0.657891 0.695365 0.136962
H23   H     H_    0.280578 0.671199 0.805904 0.137336
H24   H     H_    0.126795 0.157937 0.695472 0.136972
H25   H     H_    0.644289 0.197576 0.441519 0.148433
H26   H     H_    0.703365 0.868510 0.484736 0.142322
H27   H     H_    0.144252 0.697617 0.441565 0.148396
H28   H     H_    0.203343 0.368495 0.484687 0.142344
H29   H     H_    0.348600 0.868629 0.241858 0.196048
H30   H     H_    0.415173 0.204367 0.289441 0.156550
H31   H     H_    0.848688 0.368486 0.241826 0.196083
H32   H     H_    0.915208 0.704403 0.289492 0.156537
H33   H     H_    0.701659 0.209854 0.316985 0.134315
H34   H     H_    0.745775 0.838400 0.349640 0.134107
H35   H     H_    0.201548 0.710027 0.317003 0.134326
H36   H     H_    0.245746 0.338368 0.349600 0.134108
H37   H     H_    0.250851 0.782419 0.186206 0.147612
H38   H     H_    0.339431 0.315016 0.250240 0.142251
H39   H     H_    0.750996 0.282190 0.186156 0.147575
H40   H     H_    0.839476 0.815063 0.250303 0.142244
H41   H     H_    0.430912 0.798639 0.610054 0.168219
H42   H     H_    0.292873 0.048192 0.509516 0.157251
H43   H     H_    0.930902 0.298683 0.610161 0.168264
H44   H     H_    0.792868 0.548192 0.509478 0.157249
H45   H     H_    0.658281 0.013130 0.305990 0.153361
H46   H     H_    0.158280 0.513130 0.305989 0.153371
N1    N     N_R   0.552340 0.000000 0.237260 -0.139404
N2    N     N_R   0.052340 0.500000 0.237260 -0.139404
N3    N     N_R   0.448170 0.000000 0.762060 -0.132707
N4    N     N_R   0.948170 0.500000 0.762060 -0.132713
O1    O     O_R   0.448200 0.076800 0.373930 -0.643842
O2    O     O_R   0.448200 0.923200 0.373930 -0.594020
O3    O     O_R   0.948200 0.576800 0.373930 -0.643831
O4    O     O_R   0.948200 0.423200 0.373930 -0.594012
O5    O     O_R   0.414750 0.076790 0.542400 -0.603693
O6    O     O_R   0.414750 0.923210 0.542400 -0.624408
O7    O     O_R   0.914750 0.576790 0.542400 -0.603691
O8    O     O_R   0.914750 0.423210 0.542400 -0.624421
O9    O     O_R   0.585240 0.923200 0.457600 -0.601410
O10   O     O_R   0.585240 0.076800 0.457600 -0.618346
O11   O     O_R   0.085240 0.423200 0.457600 -0.601422
O12   O     O_R   0.085240 0.576800 0.457600 -0.618336
O13   O     O_R   0.551780 0.923190 0.626070 -0.643211
O14   O     O_R   0.551780 0.076810 0.626070 -0.625292
O15   O     O_R   0.051780 0.423190 0.626070 -0.643230
O16   O     O_R   0.051780 0.576810 0.626070 -0.625285
Zn1   Zn    Zn3+2 0.522330 0.000000 0.387520 0.940773
Zn2   Zn    Zn3+2 0.022330 0.500000 0.387520 0.940774
Zn3   Zn    Zn3+2 0.477660 0.000000 0.612480 0.924618
Zn4   Zn    Zn3+2 0.977660 0.500000 0.612480 0.924606
O17   O     O_3   0.436941 0.971010 0.159441 -0.810837
H47   H     H_    0.423923 0.999184 0.220343 0.364462
O18   O     O_3   0.936942 0.471005 0.159445 -0.810842
H48   H     H_    0.923921 0.499187 0.220335 0.364468

loop_
_geom_bond_atom_site_label_1
_geom_bond_atom_site_label_2
_ccdc_geom_bond_type
C83   C87   A    
C55   H15   S    
C2    O6    A    
C14   C18   A    
C3    O3    A    
C72   C76   A    
C61   H21   S    
O18   H48   S    
N1    Zn1   S    
C32   C72   A    
C80   H34   S    
C15   C19   A    
C79   H33   S    
C18   C86   A    
C2    C29   S    
C9    C61   A    
O13   Zn3   S    
C28   C68   A    
O11   Zn2   S    
C34   H8    S    
O16   Zn4   S    
C11   C63   A    
C4    O4    A    
C12   C64   A    
C73   H37   S    
C64   H24   S    
C41   O11   A    
C23   C67   A    
C6    C22   A    
C39   O13   A    
C11   C13   A    
C49   C57   A    
C40   O14   A    
C45   C47   A    
C15   H19   S    
O15   Zn4   S    
C78   C82   A    
C22   C66   A    
C34   C52   A    
C6    C84   A    
C52   C54   A    
C49   C51   A    
C70   C74   A    
C50   C52   A    
C27   H3    S    
O10   Zn1   S    
O1    Zn1   S    
C8    C12   A    
C30   C86   A    
C78   H36   S    
C60   N2    A    
C41   O15   A    
C1    O1    A    
C80   C84   A    
C21   C65   A    
C31   C71   A    
C57   O17   S    
C33   C59   A    
O12   Zn2   S    
C34   C60   A    
C47   N3    A    
C10   C62   A    
C20   H44   S    
C33   H7    S    
C30   C70   A    
C44   C46   A    
C38   C44   A    
O5    Zn3   S    
C41   C68   S    
C29   C69   A    
C53   C55   A    
C19   H43   S    
C46   C48   A    
C71   C75   A    
C31   C87   A    
C40   O10   A    
C53   H5    S    
C26   C66   A    
C76   C80   A    
C25   C65   A    
C56   H16   S    
C13   H17   S    
C63   H23   S    
C16   H20   S    
C25   H1    S    
C58   N2    A    
C17   C85   A    
C82   C86   A    
C17   H41   S    
C59   H45   S    
C51   C53   A    
C50   C58   A    
C37   C43   A    
C7    C11   A    
O3    Zn2   S    
C5    C9    A    
C1    O5    A    
N4    Zn4   S    
O17   H47   S    
C62   H22   S    
C45   C49   A    
C16   C20   A    
C4    O8    A    
C72   H32   S    
C28   H4    S    
C25   C61   A    
C69   C73   A    
C43   C45   A    
C27   C63   A    
C28   C64   A    
C21   H25   S    
C7    C81   A    
C12   C14   A    
C3    O7    A    
C40   C65   S    
C42   C67   S    
C76   H40   S    
C39   C66   S    
C8    C82   A    
C18   H42   S    
C33   C51   A    
C60   H46   S    
O9    Zn1   S    
C35   C37   A    
C47   C55   A    
C48   C56   A    
O14   Zn3   S    
C42   O16   A    
C29   C85   A    
C59   N1    A    
C84   C88   A    
C43   H11   S    
C54   C56   A    
C6    C10   A    
C5    C83   A    
C24   H28   S    
O8    Zn4   S    
C48   N4    A    
C26   H2    S    
C46   C50   A    
C19   C87   A    
N3    Zn3   S    
C71   H31   S    
C2    O2    A    
C36   C38   A    
C26   C62   A    
C38   H14   S    
C10   C16   A    
C35   N3    A    
C37   H13   S    
O7    Zn4   S    
C44   H12   S    
C74   H38   S    
C75   C79   A    
C70   H30   S    
C7    C23   A    
C20   C88   A    
C69   H29   S    
C1    C30   S    
C8    C24   A    
C75   H39   S    
N2    Zn2   S    
C9    C15   A    
C3    C32   S    
C42   O12   A    
C54   H6    S    
C4    C31   S    
C27   C67   A    
C24   C68   A    
O2    Zn1   S    
C23   H27   S    
C13   C17   A    
C79   C83   A    
C22   H26   S    
C5    C21   A    
C77   C81   A    
C74   C78   A    
C14   H18   S    
C39   O9    A    
C73   C77   A    
C57   N1    A    
C36   H10   S    
O4    Zn2   S    
O6    Zn3   S    
C35   H9    S    
C58   O18   S    
C36   N4    A    
C81   C85   A    
C77   H35   S    
C32   C88   A    
