data_mof_unit_8580.cif
_audit_creation_date              2012-12-10T18:42:33-0500
_audit_creation_method            fapswitch 2.2
_symmetry_space_group_name_H-M    P1
_symmetry_Int_Tables_number       1
_space_group_crystal_system       triclinic
_cell_length_a                    8.586359
_cell_length_b                    10.634786
_cell_length_c                    9.864175
_cell_angle_alpha                 89.860378
_cell_angle_beta                  98.673763
_cell_angle_gamma                 90.423963
_cell_volume                      890.411297997

loop_
_atom_site_label
_atom_site_type_symbol
_atom_type_description
_atom_site_fract_x
_atom_site_fract_y
_atom_site_fract_z
_atom_type_partial_charge
C1    C     C_R   0.499302 0.260599 0.500039 0.921466
C2    C     C_R   0.642617 0.067127 0.544305 0.144680
C3    C     C_R   0.501329 0.871985 0.499539 -0.123516
C4    C     C_R   0.498671 0.128015 0.500461 -0.123527
C5    C     C_R   0.600492 0.576496 0.084818 -0.070098
C6    C     C_R   0.399508 0.423504 0.915182 -0.070098
C7    C     C_R   0.600438 0.576473 0.941070 -0.066659
C8    C     C_R   0.399561 0.423527 0.058929 -0.066660
C9    C     C_3   0.202228 0.133935 0.413124 -0.888428
C10   C     C_3   0.797768 0.866065 0.586889 -0.888407
C11   C     C_3   0.208549 0.855294 0.410615 -0.889900
C12   C     C_R   0.500697 0.739401 0.499960 0.921458
C13   C     C_3   0.791463 0.144710 0.589368 -0.889866
C14   C     C_R   0.201145 0.500591 0.464090 0.947059
C15   C     C_R   0.798855 0.499410 0.535910 0.947060
C16   C     C_2   0.035962 0.500544 0.444809 -0.383350
C17   C     C_2   0.964038 0.499459 0.555191 -0.383351
C18   C     C_R   0.355663 0.063979 0.456600 0.148241
C19   C     C_R   0.644336 0.936022 0.543404 0.148229
C20   C     C_R   0.357387 0.932875 0.455687 0.144678
H1    H     H_    0.974019 0.501291 0.340120 0.182239
H2    H     H_    0.787021 0.762650 0.578988 0.228149
H3    H     H_    0.885255 0.894476 0.520344 0.240676
H4    H     H_    0.844159 0.887910 0.695561 0.244074
H5    H     H_    0.225266 0.794887 0.322426 0.249199
H6    H     H_    0.183777 0.794584 0.496731 0.232985
H7    H     H_    0.101503 0.911055 0.377264 0.243179
H8    H     H_    0.816213 0.205439 0.503255 0.232980
H9    H     H_    0.774765 0.205099 0.677579 0.249192
H10   H     H_    0.898520 0.088953 0.622680 0.243169
H11   H     H_    0.025981 0.498711 0.659880 0.182239
H12   H     H_    0.680933 0.637712 0.149502 0.131048
H13   H     H_    0.319066 0.362288 0.850498 0.131048
H14   H     H_    0.680799 0.637695 0.897091 0.131696
H15   H     H_    0.319201 0.362305 0.102909 0.131696
H16   H     H_    0.212956 0.237344 0.421097 0.228141
H17   H     H_    0.155878 0.112141 0.304434 0.244075
H18   H     H_    0.114718 0.105479 0.479623 0.240681
N1    N     N_R   0.499960 0.499970 0.857200 -0.082000
N2    N     N_R   0.500040 0.500030 0.142800 -0.082001
O1    O     O_R   0.499990 0.316750 0.614620 -0.620510
O2    O     O_R   0.500010 0.683250 0.385380 -0.620512
O3    O     O_R   0.499990 0.316780 0.385290 -0.616505
O4    O     O_R   0.500010 0.683220 0.614710 -0.616510
O5    O     O_R   0.271750 0.499990 0.587840 -0.614646
O6    O     O_R   0.728250 0.500010 0.412160 -0.614644
O7    O     O_R   0.271750 0.500010 0.358510 -0.630069
O8    O     O_R   0.728250 0.499990 0.641490 -0.630074
Zn1   Zn    Zn3+2 0.500000 0.499980 0.653120 0.940997
Zn2   Zn    Zn3+2 0.500000 0.500020 0.346880 0.940998

loop_
_geom_bond_atom_site_label_1
_geom_bond_atom_site_label_2
_ccdc_geom_bond_type
O4    Zn1   S    
C9    H16   S    
C2    C4    A    
C13   H8    S    
C3    C19   A    
C14   O7    A    
O5    Zn1   S    
C10   H3    S    
C14   O5    A    
O6    Zn2   S    
C15   O6    A    
C6    H13   S    
C11   H7    S    
C10   C19   S    
C5    H12   S    
C4    C18   A    
C1    C4    S    
C9    H17   S    
C3    C20   A    
C12   O4    A    
C10   H2    S    
C16   H1    S    
C15   O8    A    
O2    Zn2   S    
N2    Zn2   S    
C6    C8    A    
C13   H9    S    
C9    H18   S    
N1    Zn1   S    
O7    Zn2   S    
C18   C20   A    
C17   H11   S    
C7    H14   S    
C14   C16   S    
C11   C20   S    
C11   H5    S    
O3    Zn2   S    
C9    C18   S    
C13   H10   S    
C15   C17   S    
C5    N2    A    
O1    Zn1   S    
C5    C7    A    
C2    C13   S    
C7    N1    A    
C6    N1    A    
O8    Zn1   S    
C12   O2    A    
C3    C12   S    
C8    N2    A    
C11   H6    S    
C10   H4    S    
C2    C19   A    
C1    O3    A    
C1    O1    A    
C16   C17   D    
C8    H15   S    
