data_mof_unit_10786.cif
_audit_creation_date              2012-12-10T20:27:14-0500
_audit_creation_method            fapswitch 2.2
_symmetry_space_group_name_H-M    P1
_symmetry_Int_Tables_number       1
_space_group_crystal_system       triclinic
_cell_length_a                    10.602802
_cell_length_b                    10.69509
_cell_length_c                    9.86583
_cell_angle_alpha                 90.355858
_cell_angle_beta                  103.564783
_cell_angle_gamma                 90.144326
_cell_volume                      1087.52699539

loop_
_atom_site_label
_atom_site_type_symbol
_atom_type_description
_atom_site_fract_x
_atom_site_fract_y
_atom_site_fract_z
_atom_type_partial_charge
C1    C     C_R   0.497844 0.259957 0.499242 0.884507
C2    C     C_R   0.595943 0.557737 0.096514 -0.099024
C3    C     C_R   0.596440 0.556936 0.952787 -0.154756
C4    C     C_R   0.257631 0.506069 0.442485 0.838168
C5    C     C_R   0.397215 0.451243 0.902149 0.223097
C6    C     C_3   0.349170 0.320144 0.879492 -0.478814
C7    C     C_3   0.355352 0.315613 0.034701 -0.149888
C8    C     C_R   0.496306 0.739971 0.499639 0.878564
C9    C     C_R   0.742126 0.506047 0.557739 0.950005
C10   C     C_2   0.117710 0.527850 0.412009 0.198758
C11   C     C_2   0.068166 0.590966 0.506228 0.414892
C12   C     C_R   0.482383 0.128204 0.496658 -0.113995
C13   C     C_2   0.880015 0.532025 0.589084 -0.411583
C14   C     C_2   0.928799 0.587028 0.491212 -0.201155
C15   C     C_R   0.501159 0.064715 0.622285 0.098036
C16   C     C_R   0.440464 0.063532 0.370113 -0.220147
C17   C     C_R   0.438935 0.934153 0.370510 -0.203129
C18   C     C_R   0.478040 0.871349 0.497750 -0.137615
C19   C     C_R   0.496313 0.937162 0.623288 0.172843
C20   C     C_3   0.604846 0.929751 0.751385 -0.133251
C21   C     C_3   0.612595 0.071326 0.747282 -0.467093
C22   C     C_R   0.397932 0.449824 0.045161 0.160216
H1    H     H_    0.867385 0.612927 0.390860 0.190937
H2    H     H_    0.414648 0.884124 0.271929 0.178063
H3    H     H_    0.692475 0.879758 0.735894 0.146143
H4    H     H_    0.587187 0.119018 0.837535 0.211738
H5    H     H_    0.240767 0.295727 0.172701 0.200088
H6    H     H_    0.166633 0.371258 0.026081 0.198205
H7    H     H_    0.092272 0.691820 0.674977 0.335955
H8    H     H_    0.088227 0.432284 0.239561 0.329899
H9    H     H_    0.638414 0.886747 0.957590 0.185527
H10   H     H_    0.527925 0.794638 0.853925 0.222413
H11   H     H_    0.703137 0.105957 0.721537 0.179925
H12   H     H_    0.674360 0.602958 0.170703 0.151088
H13   H     H_    0.675465 0.601178 0.918811 0.147610
H14   H     H_    0.249371 0.315550 0.811683 0.209348
H15   H     H_    0.419705 0.256943 0.847322 0.198067
H16   H     H_    0.430503 0.250744 0.092476 0.176942
H17   H     H_    0.941380 0.505425 0.689143 0.164327
H18   H     H_    0.415877 0.111805 0.271562 0.167248
N1    N     N_R   0.499160 0.499140 0.142600 -0.114850
N2    N     N_R   0.499160 0.499180 0.856960 -0.103334
N3    N     N_3   0.227896 0.296459 0.064420 -0.436201
N4    N     N_3   0.558861 0.887242 0.871797 -0.428881
O1    O     O_R   0.500020 0.316790 0.614700 -0.618768
O2    O     O_3   0.035670 0.479771 0.292699 -0.804008
O3    O     O_R   0.500000 0.316760 0.385350 -0.623355
O4    O     O_R   0.317820 0.500020 0.571850 -0.556029
O5    O     O_R   0.317800 0.499980 0.342510 -0.634579
O6    O     O_R   0.500000 0.683240 0.614650 -0.611824
O7    O     O_R   0.499980 0.683210 0.385300 -0.623889
O8    O     O_R   0.682200 0.500020 0.657490 -0.619842
O9    O     O_R   0.682180 0.499980 0.428150 -0.598676
O10   O     O_3   0.147739 0.648864 0.621145 -0.776251
Zn1   Zn    Zn3+2 0.500010 0.500020 0.653140 0.964636
Zn2   Zn    Zn3+2 0.499990 0.499980 0.346860 0.943693

loop_
_geom_bond_atom_site_label_1
_geom_bond_atom_site_label_2
_ccdc_geom_bond_type
C14   H1    S    
C10   O2    S    
O4    Zn1   S    
C21   H4    S    
O8    Zn1   S    
N1    Zn2   S    
C6    C7    S    
C7    N3    S    
N2    Zn1   S    
O5    Zn2   S    
H6    N3    S    
C19   C20   S    
C12   C15   A    
C3    H13   S    
C4    O5    A    
C5    N2    A    
H7    O10   S    
C2    H12   S    
C2    C3    A    
H10   N4    S    
C6    H15   S    
C3    N2    A    
C13   C14   D    
C15   C19   A    
C1    C12   S    
C8    O7    A    
C1    O1    A    
C16   C17   A    
C9    O8    A    
C16   H18   S    
C12   C16   A    
C11   O10   S    
C22   N1    A    
C20   N4    S    
C7    H16   S    
C6    H14   S    
C17   C18   A    
C8    O6    A    
C4    O4    A    
C5    C6    S    
C11   C14   S    
C13   H17   S    
C17   H2    S    
C21   H11   S    
H9    N4    S    
C2    N1    A    
C4    C10   S    
C7    C22   S    
H5    N3    S    
C15   C21   S    
C9    O9    A    
C20   C21   S    
O1    Zn1   S    
C18   C19   A    
C10   C11   D    
O9    Zn2   S    
C9    C13   S    
C1    O3    A    
H8    O2    S    
C8    C18   S    
C5    C22   A    
O6    Zn1   S    
O3    Zn2   S    
C20   H3    S    
O7    Zn2   S    
