data_mof_unit_7796.cif
_audit_creation_date              2012-12-11T14:10:18-0500
_audit_creation_method            fapswitch 2.2
_symmetry_space_group_name_H-M    P1
_symmetry_Int_Tables_number       1
_space_group_crystal_system       triclinic
_cell_length_a                    27.613371
_cell_length_b                    27.613313
_cell_length_c                    27.613326
_cell_angle_alpha                 89.996367
_cell_angle_beta                  89.995657
_cell_angle_gamma                 89.997044
_cell_volume                      21055.0686165

loop_
_atom_site_label
_atom_site_type_symbol
_atom_type_description
_atom_site_fract_x
_atom_site_fract_y
_atom_site_fract_z
_atom_type_partial_charge
C1    C     C_R   0.786830 0.270991 0.275589 0.075284
C2    C     C_R   0.212660 0.275139 0.270845 0.078458
C3    C     C_R   0.330626 0.284191 0.855467 0.186157
C4    C     C_R   0.642846 0.177758 0.292648 0.193203
C5    C     C_R   0.330095 0.855476 0.715588 0.190448
C6    C     C_R   0.642246 0.292891 0.821384 0.194277
C7    C     C_R   0.330660 0.715927 0.144534 0.191167
C8    C     C_R   0.293426 0.357146 0.820955 0.190309
C9    C     C_R   0.713449 0.673249 0.142204 0.192978
C10   C     C_R   0.818877 0.358427 0.705246 0.164204
C11   C     C_R   0.142396 0.672391 0.286090 0.190446
C12   C     C_R   0.702194 0.358454 0.184119 0.165668
C13   C     C_R   0.728647 0.213972 0.722601 0.100032
C14   C     C_R   0.285563 0.671487 0.856788 0.190504
C15   C     C_R   0.179777 0.356864 0.294439 0.190146
C16   C     C_R   0.857353 0.673104 0.713505 0.192485
C17   C     C_R   0.704895 0.640743 0.818204 0.165139
C18   C     C_R   0.283963 0.331094 0.144539 0.187294
C19   C     C_R   0.183738 0.640813 0.702761 0.164086
C20   C     C_R   0.855494 0.330604 0.284191 0.186094
C21   C     C_R   0.292595 0.642870 0.177688 0.193094
C22   C     C_R   0.715389 0.329578 0.855863 0.190257
C23   C     C_R   0.821519 0.642284 0.292784 0.194137
C24   C     C_R   0.275534 0.786864 0.270970 0.075636
C25   C     C_R   0.144442 0.330543 0.715884 0.191092
C26   C     C_R   0.848834 0.324456 0.385622 -0.278119
C27   C     C_R   0.116256 0.684424 0.640544 -0.293583
C28   C     C_R   0.674166 0.847008 0.386674 -0.278085
C29   C     C_R   0.315238 0.116331 0.639935 -0.293965
C30   C     C_R   0.155707 0.671479 0.386734 -0.279616
C31   C     C_R   0.882825 0.314928 0.639234 -0.293982
C32   C     C_R   0.325320 0.151836 0.385396 -0.277926
C33   C     C_R   0.684605 0.883105 0.640120 -0.293880
C34   C     C_R   0.845127 0.672536 0.612782 -0.272977
C35   C     C_R   0.212946 0.270488 0.724110 0.080882
C36   C     C_R   0.118318 0.314012 0.363061 -0.231492
C37   C     C_R   0.671041 0.156150 0.612928 -0.271196
C38   C     C_R   0.314136 0.881518 0.362840 -0.228977
C39   C     C_R   0.151389 0.325018 0.614466 -0.271891
C40   C     C_R   0.881592 0.685626 0.362277 -0.229088
C41   C     C_R   0.324646 0.848658 0.614178 -0.273382
C42   C     C_R   0.686000 0.118575 0.362994 -0.230684
C43   C     C_R   0.385559 0.849051 0.324285 -0.277935
C44   C     C_R   0.640372 0.116340 0.684535 -0.293567
C45   C     C_R   0.386551 0.674607 0.847549 -0.277968
C46   C     C_R   0.786451 0.723583 0.270636 0.077174
C47   C     C_R   0.639983 0.315269 0.116305 -0.294004
C48   C     C_R   0.386743 0.155673 0.671516 -0.279487
C49   C     C_R   0.639243 0.882850 0.314924 -0.293973
C50   C     C_R   0.385395 0.325322 0.151840 -0.277923
C51   C     C_R   0.640130 0.684601 0.883110 -0.293880
C52   C     C_R   0.612793 0.845196 0.672595 -0.272996
C53   C     C_R   0.363061 0.118320 0.314014 -0.231486
C54   C     C_R   0.612928 0.671056 0.156129 -0.271315
C55   C     C_R   0.362715 0.314179 0.881610 -0.228755
C56   C     C_R   0.614494 0.151286 0.324934 -0.271971
C57   C     C_R   0.270581 0.786519 0.723711 0.077649
C58   C     C_R   0.362609 0.881328 0.685751 -0.229869
C59   C     C_R   0.613986 0.325222 0.847944 -0.273349
C60   C     C_R   0.363061 0.686012 0.118638 -0.230973
C61   C     C_R   0.324451 0.385621 0.848840 -0.278073
C62   C     C_R   0.684540 0.640371 0.116343 -0.293593
C63   C     C_R   0.846997 0.386682 0.674164 -0.278018
C64   C     C_R   0.116297 0.639957 0.315239 -0.294009
C65   C     C_R   0.671401 0.386763 0.155802 -0.279523
C66   C     C_R   0.314809 0.639048 0.882766 -0.293909
C67   C     C_R   0.151834 0.385393 0.325317 -0.277924
C68   C     C_R   0.724129 0.212930 0.270475 0.080903
C69   C     C_R   0.883122 0.640152 0.684590 -0.293906
C70   C     C_R   0.672572 0.612791 0.845167 -0.273020
C71   C     C_R   0.314013 0.363057 0.118318 -0.231486
C72   C     C_R   0.156596 0.612866 0.670643 -0.271003
C73   C     C_R   0.881632 0.362699 0.314179 -0.228616
C74   C     C_R   0.324884 0.614512 0.151225 -0.271885
C75   C     C_R   0.685604 0.362179 0.881684 -0.228832
C76   C     C_R   0.848068 0.614013 0.325118 -0.273301
C77   C     C_R   0.118547 0.362957 0.685980 -0.230692
C78   C     C_R   0.877725 0.360206 0.364602 0.083527
C79   C     C_R   0.276547 0.728625 0.786400 0.095882
C80   C     C_R   0.123797 0.634378 0.638797 0.111877
C81   C     C_R   0.639890 0.877471 0.365256 0.117738
C82   C     C_R   0.365389 0.123253 0.639122 0.117695
C83   C     C_R   0.123253 0.639116 0.365385 0.117705
C84   C     C_R   0.877458 0.365261 0.639887 0.117715
C85   C     C_R   0.360643 0.122449 0.364431 0.084137
C86   C     C_R   0.634398 0.876611 0.639379 0.113189
C87   C     C_R   0.876590 0.639369 0.634389 0.113143
C88   C     C_R   0.122446 0.364428 0.360640 0.084136
C89   C     C_R   0.638893 0.123647 0.634446 0.112127
C90   C     C_R   0.728403 0.276546 0.213593 0.099623
C91   C     C_R   0.364563 0.877771 0.360190 0.083663
C92   C     C_R   0.122599 0.360708 0.635545 0.079844
C93   C     C_R   0.877159 0.635212 0.360529 0.079476
C94   C     C_R   0.360466 0.877294 0.635319 0.080023
C95   C     C_R   0.635563 0.122572 0.360691 0.079920
C96   C     C_R   0.365165 0.639994 0.877659 0.117773
C97   C     C_R   0.639095 0.365409 0.123295 0.117670
C98   C     C_R   0.364429 0.360642 0.122450 0.084134
C99   C     C_R   0.639372 0.634396 0.876599 0.113198
C100  C     C_R   0.634449 0.638896 0.123642 0.112196
C101  C     C_R   0.275141 0.270841 0.212661 0.078451
C102  C     C_R   0.360209 0.364602 0.877720 0.083546
C103  C     C_R   0.635196 0.360536 0.877142 0.079329
C104  C     C_R   0.360696 0.635573 0.122571 0.080030
C105  C     C_R   0.823097 0.296871 0.305865 -0.030923
C106  C     C_R   0.178006 0.691856 0.703318 0.019380
C107  C     C_R   0.703415 0.822553 0.307186 0.027987
C108  C     C_R   0.307346 0.178258 0.702411 0.025781
C109  C     C_R   0.178252 0.702402 0.307337 0.025782
C110  C     C_R   0.822530 0.307197 0.703412 0.027958
C111  C     C_R   0.297445 0.177044 0.305551 -0.033153
C112  C     C_R   0.214054 0.722525 0.728611 0.099931
C113  C     C_R   0.728768 0.722376 0.785740 0.096034
C114  C     C_R   0.691914 0.822552 0.704156 0.023433
C115  C     C_R   0.822524 0.704145 0.691897 0.023426
C116  C     C_R   0.177044 0.305547 0.297446 -0.033148
C117  C     C_R   0.703428 0.177815 0.691972 0.019499
C118  C     C_R   0.305795 0.823149 0.296861 -0.031029
C119  C     C_R   0.176199 0.296245 0.694120 -0.040219
C120  C     C_R   0.823497 0.693571 0.295921 -0.036942
C121  C     C_R   0.295874 0.823656 0.693771 -0.036970
C122  C     C_R   0.694152 0.176158 0.296221 -0.040213
C123  C     C_R   0.307033 0.703518 0.822785 0.027662
C124  C     C_R   0.722595 0.728656 0.213972 0.099878
C125  C     C_R   0.702379 0.307377 0.178309 0.025861
C126  C     C_R   0.305549 0.297443 0.177046 -0.033147
C127  C     C_R   0.704153 0.691912 0.822542 0.023443
C128  C     C_R   0.691971 0.703438 0.177809 0.019573
C129  C     C_R   0.296875 0.305864 0.823090 -0.030936
C130  C     C_R   0.693534 0.295916 0.823485 -0.036975
C131  C     C_R   0.296229 0.694174 0.176156 -0.040195
C132  C     C_R   0.394916 0.096600 0.396043 0.075945
C133  C     C_R   0.603449 0.902827 0.604935 0.073021
C134  C     C_R   0.903440 0.394723 0.396132 0.075702
C135  C     C_R   0.270985 0.275588 0.786827 0.075318
C136  C     C_R   0.097313 0.603444 0.604677 0.073047
C137  C     C_R   0.605286 0.903357 0.396360 0.074200
C138  C     C_R   0.396434 0.096966 0.604914 0.074205
C139  C     C_R   0.096965 0.604911 0.396431 0.074203
C140  C     C_R   0.903351 0.396362 0.605285 0.074195
C141  C     C_R   0.394933 0.903125 0.603810 0.074853
C142  C     C_R   0.603948 0.096751 0.395011 0.075081
C143  C     C_R   0.902817 0.604929 0.603445 0.073005
C144  C     C_R   0.096597 0.396041 0.394913 0.075941
C145  C     C_R   0.604727 0.097236 0.603481 0.073075
C146  C     C_R   0.723560 0.270639 0.786450 0.076878
C147  C     C_R   0.396114 0.903463 0.394712 0.075706
C148  C     C_R   0.096763 0.395019 0.603939 0.075083
C149  C     C_R   0.903054 0.603760 0.394974 0.074811
C150  C     C_R   0.396042 0.394915 0.096600 0.075938
C151  C     C_R   0.604930 0.603448 0.902818 0.073004
C152  C     C_R   0.396313 0.605344 0.903452 0.074236
C153  C     C_R   0.604899 0.396445 0.096988 0.074184
C154  C     C_R   0.603754 0.394980 0.903044 0.074802
C155  C     C_R   0.395013 0.603951 0.096751 0.075096
C156  C     C_R   0.603484 0.604730 0.097231 0.073084
C157  C     C_R   0.270460 0.724145 0.212920 0.080925
C158  C     C_R   0.394724 0.396133 0.903437 0.075713
C159  C     C_3   0.741929 0.280746 0.391976 -0.889522
C160  C     C_3   0.107872 0.779464 0.719312 -0.913389
C161  C     C_3   0.714865 0.738399 0.390781 -0.896727
C162  C     C_3   0.219404 0.107780 0.717153 -0.921039
C163  C     C_3   0.266610 0.707977 0.386121 -0.895420
C164  C     C_3   0.890196 0.216472 0.713464 -0.920305
C165  C     C_3   0.282933 0.259634 0.390180 -0.885899
C166  C     C_3   0.781504 0.890731 0.716919 -0.913047
C167  C     C_3   0.805795 0.779613 0.598080 -0.918195
C168  C     C_R   0.440477 0.078776 0.384983 -0.134131
C169  C     C_3   0.111317 0.209088 0.369861 -0.940198
C170  C     C_3   0.776058 0.198061 0.595758 -0.916955
C171  C     C_3   0.209256 0.888971 0.369263 -0.938622
C172  C     C_3   0.183562 0.215660 0.602970 -0.918766
C173  C     C_3   0.890242 0.790497 0.366984 -0.938548
C174  C     C_3   0.214498 0.816827 0.604055 -0.919998
C175  C     C_3   0.790960 0.112372 0.369968 -0.940059
C176  C     C_3   0.392229 0.742373 0.280184 -0.889241
C177  C     C_3   0.718605 0.108030 0.780016 -0.913490
C178  C     C_3   0.391394 0.716154 0.739394 -0.896027
C179  C     C_R   0.557881 0.920405 0.614745 -0.134314
C180  C     C_3   0.717341 0.219558 0.107723 -0.921010
C181  C     C_3   0.386222 0.266546 0.708052 -0.895413
C182  C     C_3   0.713508 0.890231 0.216486 -0.920372
C183  C     C_3   0.390172 0.282944 0.259642 -0.885914
C184  C     C_3   0.716977 0.781466 0.890746 -0.913051
C185  C     C_3   0.598189 0.806015 0.779753 -0.918138
C186  C     C_3   0.369851 0.111308 0.209091 -0.940240
C187  C     C_3   0.595887 0.776172 0.197935 -0.916933
C188  C     C_3   0.368487 0.209332 0.889821 -0.938771
C189  C     C_3   0.603231 0.183237 0.215440 -0.918665
C190  C     C_R   0.921249 0.440327 0.384996 -0.134250
C191  C     C_3   0.368847 0.888221 0.790700 -0.938551
C192  C     C_3   0.602687 0.215769 0.814571 -0.920755
C193  C     C_3   0.370390 0.790985 0.112892 -0.940105
C194  C     C_3   0.280724 0.391998 0.741949 -0.889517
C195  C     C_3   0.780013 0.718631 0.108043 -0.913468
C196  C     C_3   0.738385 0.390798 0.714851 -0.896844
C197  C     C_3   0.107728 0.717254 0.219464 -0.920996
C198  C     C_3   0.707738 0.386029 0.266769 -0.895560
C199  C     C_3   0.215900 0.712718 0.890004 -0.920356
C200  C     C_3   0.259633 0.390177 0.282932 -0.885924
C201  C     C_R   0.079744 0.557900 0.614648 -0.134772
C202  C     C_3   0.890762 0.717032 0.781423 -0.913079
C203  C     C_3   0.779731 0.598201 0.805947 -0.918101
C204  C     C_3   0.209090 0.369835 0.111296 -0.940190
C205  C     C_3   0.199293 0.595137 0.775150 -0.917086
C206  C     C_3   0.890015 0.368337 0.209342 -0.938749
C207  C     C_3   0.215359 0.603286 0.182995 -0.918546
C208  C     C_3   0.790422 0.366262 0.891084 -0.938671
C209  C     C_3   0.814989 0.602862 0.215570 -0.920613
C210  C     C_3   0.112250 0.369830 0.790943 -0.939979
C211  C     C_R   0.559772 0.921242 0.385012 -0.130787
C212  C     C_R   0.728587 0.786272 0.276647 0.095884
C213  C     C_R   0.442038 0.079529 0.614767 -0.136262
C214  C     C_R   0.078890 0.559562 0.385046 -0.131094
C215  C     C_R   0.920737 0.442023 0.614918 -0.135420
C216  C     C_R   0.440436 0.921105 0.614969 -0.134862
C217  C     C_R   0.558250 0.079269 0.385135 -0.129366
C218  C     C_R   0.921002 0.559604 0.614910 -0.131693
C219  C     C_R   0.079210 0.441762 0.385088 -0.131062
C220  C     C_R   0.559483 0.078993 0.614923 -0.132066
C221  C     C_R   0.441846 0.920850 0.385034 -0.130533
C222  C     C_R   0.078828 0.440516 0.615011 -0.134939
C223  C     C_R   0.276525 0.213570 0.728417 0.099592
C224  C     C_R   0.920609 0.558100 0.385165 -0.129356
C225  C     C_R   0.384983 0.440477 0.078777 -0.134117
C226  C     C_R   0.614743 0.557881 0.920401 -0.134319
C227  C     C_R   0.384994 0.921253 0.440330 -0.134145
C228  C     C_R   0.614675 0.079688 0.557922 -0.134706
C229  C     C_R   0.384994 0.559798 0.921287 -0.130777
C230  C     C_R   0.614760 0.442045 0.079544 -0.136317
C231  C     C_R   0.385048 0.078891 0.559564 -0.131088
C232  C     C_R   0.614919 0.920741 0.442021 -0.135425
C233  C     C_R   0.614956 0.440447 0.921076 -0.134943
C234  C     C_R   0.213547 0.728420 0.276509 0.099536
C235  C     C_R   0.385134 0.558253 0.079267 -0.129332
C236  C     C_R   0.614911 0.921007 0.559605 -0.131678
C237  C     C_R   0.385089 0.079211 0.441763 -0.131058
C238  C     C_R   0.614924 0.559485 0.078990 -0.132082
C239  C     C_R   0.385044 0.441861 0.920826 -0.130578
C240  C     C_R   0.615012 0.078826 0.440515 -0.134876
C241  C     C_R   0.385138 0.920667 0.558135 -0.129211
C242  C     C_R   0.078774 0.384982 0.440476 -0.134143
C243  C     C_R   0.920398 0.614741 0.557878 -0.134350
C244  C     C_R   0.440328 0.384997 0.921247 -0.134271
C245  C     C_R   0.786250 0.276661 0.728589 0.095862
C246  C     C_R   0.557925 0.614676 0.079685 -0.134710
C247  C     C_R   0.921239 0.385013 0.559772 -0.130825
C248  C     C_R   0.079528 0.614767 0.442035 -0.136317
C249  C     C_R   0.559557 0.385051 0.078901 -0.131094
C250  C     C_R   0.441993 0.614950 0.920808 -0.135294
C251  C     C_R   0.921078 0.614957 0.440446 -0.134930
C252  C     C_R   0.079280 0.385140 0.558244 -0.129394
C253  C     C_R   0.559601 0.614909 0.921000 -0.131613
C254  C     C_R   0.441762 0.385088 0.079211 -0.131061
C255  C     C_R   0.079028 0.614908 0.559461 -0.132136
C256  C     C_R   0.270843 0.212659 0.275143 0.078456
C257  C     C_R   0.920829 0.385042 0.441859 -0.130582
C258  C     C_R   0.440518 0.615012 0.078827 -0.134869
C259  C     C_R   0.558095 0.385169 0.920599 -0.129382
C260  C     C_R   0.820948 0.293432 0.357146 0.190365
C261  C     C_R   0.142145 0.713304 0.673424 0.192940
C262  C     C_R   0.705249 0.818893 0.358416 0.164234
C263  C     C_R   0.286090 0.142433 0.672368 0.190462
C264  C     C_R   0.184011 0.702280 0.358421 0.165724
C265  C     C_R   0.856814 0.285725 0.671686 0.190430
C266  C     C_R   0.294440 0.179777 0.356868 0.190139
C267  C     C_R   0.722374 0.785746 0.728768 0.096043
C268  C     C_R   0.713525 0.857341 0.673070 0.192497
C269  C     C_R   0.818154 0.704854 0.640731 0.165133
C270  C     C_R   0.144541 0.283961 0.331101 0.187295
C271  C     C_R   0.703181 0.183251 0.640890 0.164214
C272  C     C_R   0.284134 0.855364 0.330777 0.186178
C273  C     C_R   0.177875 0.292741 0.642813 0.193192
C274  C     C_R   0.855751 0.715419 0.329706 0.190237
C275  C     C_R   0.292288 0.822171 0.642489 0.193876
C276  C     C_R   0.715911 0.144460 0.330577 0.191118
C277  C     C_R   0.357073 0.821185 0.293250 0.190055
C278  C     C_R   0.785733 0.728765 0.722365 0.096087
C279  C     C_R   0.673245 0.142203 0.713446 0.192956
C280  C     C_R   0.358274 0.705719 0.819483 0.164092
C281  C     C_R   0.672417 0.286129 0.142413 0.190409
C282  C     C_R   0.358434 0.183979 0.702319 0.165621
C283  C     C_R   0.671697 0.856845 0.285718 0.190423
C284  C     C_R   0.356866 0.294442 0.179782 0.190146
C285  C     C_R   0.673084 0.713520 0.857348 0.192512
C286  C     C_R   0.640744 0.818232 0.704917 0.165154
C287  C     C_R   0.331099 0.144540 0.283964 0.187302
C288  C     C_R   0.640887 0.703203 0.183226 0.164223
H1    H     H_    0.845627 0.322198 0.424669 0.129571
H2    H     H_    0.093901 0.298586 0.389445 0.137614
H3    H     H_    0.745428 0.309939 0.419464 0.241152
H4    H     H_    0.116301 0.777819 0.644927 0.167011
H5    H     H_    0.103602 0.819444 0.718754 0.246479
H6    H     H_    0.129133 0.769634 0.751989 0.256788
H7    H     H_    0.071405 0.762560 0.721503 0.248060
H8    H     H_    0.752487 0.799199 0.412836 0.170211
H9    H     H_    0.742653 0.713499 0.405783 0.248093
H10   H     H_    0.700951 0.722563 0.356507 0.255604
H11   H     H_    0.684661 0.741639 0.417194 0.242457
H12   H     H_    0.221759 0.117268 0.642943 0.167665
H13   H     H_    0.670236 0.161800 0.574085 0.131759
H14   H     H_    0.179407 0.103751 0.716232 0.247721
H15   H     H_    0.229109 0.128460 0.750234 0.254090
H16   H     H_    0.236089 0.071186 0.718886 0.248840
H17   H     H_    0.208389 0.745750 0.414165 0.169712
H18   H     H_    0.293156 0.734194 0.401118 0.250061
H19   H     H_    0.264171 0.676306 0.410845 0.242991
H20   H     H_    0.279926 0.695796 0.350158 0.253099
H21   H     H_    0.878988 0.221522 0.639573 0.167267
H22   H     H_    0.892808 0.176412 0.711175 0.248127
H23   H     H_    0.870604 0.225796 0.747315 0.254638
H24   H     H_    0.298656 0.905549 0.389537 0.137081
H25   H     H_    0.927374 0.231837 0.714855 0.248824
H26   H     H_    0.245929 0.197911 0.410792 0.167535
H27   H     H_    0.254434 0.283931 0.404835 0.249047
H28   H     H_    0.297341 0.276076 0.356391 0.253001
H29   H     H_    0.312615 0.256573 0.417192 0.240925
H30   H     H_    0.778013 0.881142 0.642692 0.166825
H31   H     H_    0.821550 0.894025 0.715400 0.246887
H32   H     H_    0.771919 0.870182 0.750125 0.257077
H33   H     H_    0.765518 0.927620 0.718932 0.248089
H34   H     H_    0.763880 0.718074 0.591258 0.168065
H35   H     H_    0.154626 0.322862 0.575413 0.130031
H36   H     H_    0.776786 0.803545 0.583844 0.242744
H37   H     H_    0.831309 0.770977 0.568160 0.241658
H38   H     H_    0.825530 0.799267 0.627123 0.264817
H39   H     H_    0.135749 0.216352 0.298254 0.167238
H40   H     H_    0.115201 0.169194 0.366657 0.250455
H41   H     H_    0.072332 0.218401 0.366430 0.246240
H42   H     H_    0.125323 0.219994 0.405964 0.253753
H43   H     H_    0.713950 0.239634 0.593258 0.168847
H44   H     H_    0.799339 0.227889 0.582150 0.243794
H45   H     H_    0.766419 0.174054 0.564918 0.240860
H46   H     H_    0.905858 0.701225 0.388693 0.137754
H47   H     H_    0.796843 0.176973 0.623009 0.264039
H48   H     H_    0.216305 0.863208 0.298156 0.167966
H49   H     H_    0.169350 0.885234 0.366026 0.251112
H50   H     H_    0.218768 0.927856 0.365282 0.246192
H51   H     H_    0.219993 0.875436 0.405596 0.253550
H52   H     H_    0.228750 0.274121 0.591503 0.167346
H53   H     H_    0.210148 0.190010 0.587104 0.241498
H54   H     H_    0.156199 0.224802 0.574893 0.240843
H55   H     H_    0.165341 0.197724 0.634054 0.265555
H56   H     H_    0.863659 0.782834 0.296240 0.170334
H57   H     H_    0.322442 0.845556 0.575118 0.129698
H58   H     H_    0.886896 0.830391 0.363200 0.251045
H59   H     H_    0.928991 0.780510 0.362834 0.247280
H60   H     H_    0.876882 0.780431 0.403573 0.253078
H61   H     H_    0.272981 0.772260 0.590460 0.166397
H62   H     H_    0.188683 0.790423 0.588160 0.241343
H63   H     H_    0.222929 0.844831 0.576386 0.241457
H64   H     H_    0.197078 0.834286 0.635859 0.265926
H65   H     H_    0.783692 0.135867 0.298028 0.169585
H66   H     H_    0.830829 0.116510 0.366775 0.250487
H67   H     H_    0.781944 0.073277 0.367065 0.247122
H68   H     H_    0.701560 0.094617 0.389715 0.137954
H69   H     H_    0.779885 0.126802 0.405854 0.253327
H70   H     H_    0.410218 0.804960 0.243303 0.168088
H71   H     H_    0.406882 0.718759 0.251116 0.247355
H72   H     H_    0.359260 0.724874 0.295228 0.255683
H73   H     H_    0.419853 0.745923 0.309242 0.241033
H74   H     H_    0.644268 0.116858 0.777953 0.167028
H75   H     H_    0.717825 0.103978 0.820014 0.246526
H76   H     H_    0.751441 0.129068 0.770234 0.256744
H77   H     H_    0.720687 0.071462 0.763317 0.248116
H78   H     H_    0.412390 0.753642 0.800648 0.170408
H79   H     H_    0.424607 0.845964 0.321896 0.129491
H80   H     H_    0.406328 0.744261 0.714812 0.248162
H81   H     H_    0.357448 0.701936 0.723127 0.255564
H82   H     H_    0.418124 0.686243 0.742736 0.242167
H83   H     H_    0.643117 0.221791 0.117123 0.167667
H84   H     H_    0.716483 0.179565 0.103636 0.247726
H85   H     H_    0.750383 0.229281 0.128456 0.254088
H86   H     H_    0.719095 0.236298 0.071155 0.248848
H87   H     H_    0.414163 0.208289 0.745844 0.169734
H88   H     H_    0.350288 0.279894 0.695821 0.253047
H89   H     H_    0.401208 0.293077 0.734291 0.250087
H90   H     H_    0.616606 0.089889 0.701104 0.123104
H91   H     H_    0.410987 0.264085 0.676415 0.243016
H92   H     H_    0.639611 0.879061 0.221517 0.167268
H93   H     H_    0.711229 0.892862 0.176426 0.248132
H94   H     H_    0.747347 0.870618 0.225807 0.254649
H95   H     H_    0.714919 0.927403 0.231867 0.248841
H96   H     H_    0.410793 0.245938 0.197924 0.167533
H97   H     H_    0.404826 0.254448 0.283943 0.249047
H98   H     H_    0.356379 0.297349 0.276081 0.253003
H99   H     H_    0.417181 0.312628 0.256581 0.240927
H100  H     H_    0.642745 0.778008 0.881195 0.166821
H101  H     H_    0.425577 0.675791 0.843558 0.129359
H102  H     H_    0.715474 0.821512 0.894063 0.246885
H103  H     H_    0.750169 0.771882 0.870175 0.257081
H104  H     H_    0.719004 0.765460 0.927626 0.248085
H105  H     H_    0.591197 0.764054 0.718265 0.168057
H106  H     H_    0.583916 0.777057 0.803724 0.242698
H107  H     H_    0.568318 0.831593 0.771138 0.241644
H108  H     H_    0.627304 0.825697 0.799355 0.264851
H109  H     H_    0.298248 0.135749 0.216358 0.167236
H110  H     H_    0.366645 0.115189 0.169197 0.250460
H111  H     H_    0.366417 0.072325 0.218408 0.246227
H112  H     H_    0.089590 0.700967 0.617001 0.123189
H113  H     H_    0.616171 0.298830 0.089820 0.122452
H114  H     H_    0.405956 0.125312 0.219992 0.253761
H115  H     H_    0.593143 0.714070 0.239499 0.168847
H116  H     H_    0.582229 0.799470 0.227727 0.243769
H117  H     H_    0.565107 0.766602 0.173824 0.240873
H118  H     H_    0.623245 0.796911 0.176939 0.264101
H119  H     H_    0.297760 0.216460 0.863125 0.168087
H120  H     H_    0.365087 0.169416 0.886335 0.251102
H121  H     H_    0.364114 0.219146 0.928589 0.246357
H122  H     H_    0.405028 0.219778 0.876623 0.253509
H123  H     H_    0.591413 0.228435 0.273823 0.167321
H124  H     H_    0.425613 0.161153 0.671049 0.130048
H125  H     H_    0.587311 0.209734 0.189734 0.241448
H126  H     H_    0.575257 0.155748 0.224524 0.240866
H127  H     H_    0.634446 0.165150 0.197597 0.265588
H128  H     H_    0.297262 0.863770 0.783270 0.170116
H129  H     H_    0.365444 0.884305 0.830575 0.250958
H130  H     H_    0.365582 0.927226 0.781406 0.246980
H131  H     H_    0.404954 0.874099 0.779953 0.253152
H132  H     H_    0.590825 0.274905 0.770372 0.166587
H133  H     H_    0.587137 0.190353 0.787579 0.241792
H134  H     H_    0.574455 0.224326 0.841968 0.241414
H135  H     H_    0.614057 0.907893 0.298280 0.122005
H136  H     H_    0.633838 0.197822 0.832662 0.265747
H137  H     H_    0.298239 0.783752 0.135797 0.169522
H138  H     H_    0.367278 0.830844 0.117182 0.250439
H139  H     H_    0.367737 0.782148 0.073738 0.247019
H140  H     H_    0.406142 0.779744 0.127524 0.253365
H141  H     H_    0.243756 0.410435 0.804354 0.168005
H142  H     H_    0.251789 0.406688 0.718197 0.247328
H143  H     H_    0.295649 0.358880 0.724632 0.255682
H144  H     H_    0.309909 0.419494 0.745453 0.241168
H145  H     H_    0.777954 0.644292 0.116834 0.167038
H146  H     H_    0.424431 0.323329 0.155376 0.129491
H147  H     H_    0.820011 0.717855 0.103983 0.246515
H148  H     H_    0.770236 0.751458 0.129097 0.256740
H149  H     H_    0.763307 0.720731 0.071480 0.248101
H150  H     H_    0.799180 0.412850 0.752479 0.170182
H151  H     H_    0.713482 0.405803 0.742636 0.248090
H152  H     H_    0.722547 0.356525 0.700936 0.255625
H153  H     H_    0.741631 0.417210 0.684648 0.242484
H154  H     H_    0.117142 0.643035 0.221764 0.167667
H155  H     H_    0.103660 0.716361 0.179470 0.247717
H156  H     H_    0.128448 0.750309 0.229169 0.254088
H157  H     H_    0.615655 0.701311 0.908811 0.122801
H158  H     H_    0.071151 0.719012 0.236186 0.248825
H159  H     H_    0.745536 0.414235 0.208642 0.169710
H160  H     H_    0.733897 0.401019 0.293376 0.250094
H161  H     H_    0.676033 0.410709 0.264332 0.243077
H162  H     H_    0.695592 0.350025 0.280006 0.253033
H163  H     H_    0.221431 0.638906 0.878495 0.167204
H164  H     H_    0.175841 0.710185 0.892401 0.248144
H165  H     H_    0.225128 0.746707 0.870608 0.254637
H166  H     H_    0.231066 0.714034 0.927266 0.248816
H167  H     H_    0.197912 0.410787 0.245927 0.167531
H168  H     H_    0.573849 0.840262 0.672536 0.130756
H169  H     H_    0.283932 0.404830 0.254434 0.249050
H170  H     H_    0.276075 0.356388 0.297342 0.253005
H171  H     H_    0.256571 0.417189 0.312613 0.240923
H172  H     H_    0.881223 0.642796 0.778000 0.166831
H173  H     H_    0.894090 0.715547 0.821468 0.246894
H174  H     H_    0.870182 0.750215 0.771830 0.257090
H175  H     H_    0.927637 0.719059 0.765405 0.248069
H176  H     H_    0.718222 0.591195 0.764020 0.168057
H177  H     H_    0.803693 0.583940 0.776975 0.242713
H178  H     H_    0.771135 0.568322 0.831523 0.241679
H179  H     H_    0.389445 0.093903 0.298588 0.137607
H180  H     H_    0.799335 0.627317 0.825625 0.264833
H181  H     H_    0.216358 0.298237 0.135751 0.167241
H182  H     H_    0.169196 0.366625 0.115173 0.250463
H183  H     H_    0.218413 0.366395 0.072314 0.246240
H184  H     H_    0.219987 0.405944 0.125294 0.253754
H185  H     H_    0.240620 0.593642 0.712846 0.168882
H186  H     H_    0.229358 0.581718 0.798234 0.244036
H187  H     H_    0.175650 0.564077 0.765321 0.240801
H188  H     H_    0.177919 0.621942 0.796220 0.263921
H189  H     H_    0.863078 0.297708 0.216468 0.168122
H190  H     H_    0.574082 0.670266 0.161762 0.131713
H191  H     H_    0.886586 0.364908 0.169424 0.251121
H192  H     H_    0.928753 0.363862 0.219225 0.246394
H193  H     H_    0.876905 0.404926 0.219728 0.253495
H194  H     H_    0.273648 0.591418 0.228299 0.167305
H195  H     H_    0.189609 0.587329 0.209428 0.241368
H196  H     H_    0.224487 0.575345 0.155487 0.240849
H197  H     H_    0.197547 0.634525 0.164919 0.265610
H198  H     H_    0.782729 0.295919 0.863544 0.170476
H199  H     H_    0.830321 0.362327 0.887990 0.251055
H200  H     H_    0.780126 0.361710 0.929709 0.247465
H201  H     H_    0.389318 0.298703 0.905750 0.137084
H202  H     H_    0.780637 0.403053 0.878078 0.253036
H203  H     H_    0.770666 0.590786 0.274571 0.166567
H204  H     H_    0.788104 0.587253 0.190077 0.241698
H205  H     H_    0.842459 0.574709 0.224148 0.241411
H206  H     H_    0.833013 0.634099 0.197703 0.265772
H207  H     H_    0.135828 0.297922 0.783628 0.169579
H208  H     H_    0.116361 0.366605 0.830812 0.250489
H209  H     H_    0.073164 0.366894 0.781896 0.247125
H210  H     H_    0.126650 0.405742 0.779911 0.253331
H211  H     H_    0.575440 0.154471 0.322723 0.129951
H212  H     H_    0.675076 0.842792 0.425685 0.129487
H213  H     H_    0.389298 0.905285 0.701360 0.137799
H214  H     H_    0.574935 0.323451 0.844441 0.130187
H215  H     H_    0.389819 0.701578 0.094724 0.137985
H216  H     H_    0.322185 0.424669 0.845643 0.129556
H217  H     H_    0.701112 0.616601 0.089899 0.123089
H218  H     H_    0.842787 0.425694 0.675076 0.129481
H219  H     H_    0.089846 0.616107 0.298801 0.122418
H220  H     H_    0.670866 0.425624 0.161337 0.130078
H221  H     H_    0.298161 0.613618 0.907559 0.121896
H222  H     H_    0.155367 0.424429 0.323319 0.129486
H223  H     H_    0.298793 0.089907 0.616060 0.122405
H224  H     H_    0.908843 0.615698 0.701300 0.122838
H225  H     H_    0.672500 0.573849 0.840222 0.130791
H226  H     H_    0.298587 0.389439 0.093899 0.137612
H227  H     H_    0.162436 0.574055 0.669602 0.132012
H228  H     H_    0.905779 0.389296 0.298705 0.137059
H229  H     H_    0.322625 0.575457 0.154367 0.129919
H230  H     H_    0.701194 0.388534 0.906021 0.137736
H231  H     H_    0.844643 0.574960 0.323262 0.130122
H232  H     H_    0.094539 0.389633 0.701542 0.137980
H233  H     H_    0.457638 0.079082 0.349844 0.086583
H234  H     H_    0.161211 0.670989 0.425600 0.130058
H235  H     H_    0.540154 0.920356 0.649616 0.093112
H236  H     H_    0.920966 0.457398 0.349814 0.086528
H237  H     H_    0.080005 0.540212 0.649539 0.093807
H238  H     H_    0.542863 0.920929 0.349745 0.087168
H239  H     H_    0.459757 0.079669 0.649642 0.091672
H240  H     H_    0.079250 0.542620 0.349794 0.087775
H241  H     H_    0.920891 0.459789 0.649768 0.090596
H242  H     H_    0.457462 0.920851 0.650168 0.086772
H243  H     H_    0.540659 0.079058 0.350198 0.090835
H244  H     H_    0.920669 0.542755 0.650206 0.087794
H245  H     H_    0.907863 0.298281 0.614044 0.122020
H246  H     H_    0.079046 0.459408 0.350174 0.089280
H247  H     H_    0.542605 0.079304 0.650206 0.088130
H248  H     H_    0.459571 0.921114 0.350161 0.088905
H249  H     H_    0.079040 0.457598 0.650181 0.086759
H250  H     H_    0.920767 0.540431 0.350266 0.091118
H251  H     H_    0.349844 0.457638 0.079083 0.086589
H252  H     H_    0.649614 0.540155 0.920348 0.093136
H253  H     H_    0.349818 0.920966 0.457415 0.086478
H254  H     H_    0.649567 0.079902 0.540238 0.093639
H255  H     H_    0.349730 0.542885 0.920996 0.087075
H256  H     H_    0.323323 0.155370 0.424432 0.129487
H257  H     H_    0.649634 0.459765 0.079699 0.091732
H258  H     H_    0.349795 0.079251 0.542622 0.087750
H259  H     H_    0.649769 0.920896 0.459787 0.090592
H260  H     H_    0.650168 0.457448 0.920811 0.086936
H261  H     H_    0.350197 0.540663 0.079052 0.090807
H262  H     H_    0.650207 0.920675 0.542755 0.087773
H263  H     H_    0.350175 0.079047 0.459409 0.089269
H264  H     H_    0.650207 0.542608 0.079299 0.088139
H265  H     H_    0.350175 0.459593 0.921066 0.088997
H266  H     H_    0.650180 0.079040 0.457603 0.086726
H267  H     H_    0.701318 0.908792 0.615631 0.122819
H268  H     H_    0.350237 0.920882 0.540473 0.090859
H269  H     H_    0.079078 0.349843 0.457635 0.086588
H270  H     H_    0.920342 0.649612 0.540150 0.093143
H271  H     H_    0.457397 0.349814 0.920964 0.086528
H272  H     H_    0.540241 0.649568 0.079897 0.093618
H273  H     H_    0.920927 0.349745 0.542865 0.087172
H274  H     H_    0.079669 0.649644 0.459750 0.091692
H275  H     H_    0.542616 0.349798 0.079265 0.087788
H276  H     H_    0.459755 0.649802 0.921022 0.090377
H277  H     H_    0.920814 0.650166 0.457452 0.086905
H278  H     H_    0.840160 0.672438 0.573843 0.130823
H279  H     H_    0.079081 0.350204 0.540651 0.090879
H280  H     H_    0.542745 0.650202 0.920660 0.087765
H281  H     H_    0.459406 0.350174 0.079046 0.089281
H282  H     H_    0.079353 0.650193 0.542587 0.088231
H283  H     H_    0.921073 0.350171 0.459587 0.089003
H284  H     H_    0.457611 0.650177 0.079043 0.086696
H285  H     H_    0.540425 0.350271 0.920746 0.091179
H286  H     H_    0.804323 0.243774 0.410442 0.168019
H287  H     H_    0.718170 0.251818 0.406669 0.247330
H288  H     H_    0.724624 0.295663 0.358849 0.255715
N1    N     N_R   0.764301 0.230756 0.292465 -0.085928
N2    N     N_R   0.706321 0.231127 0.762863 -0.075426
N3    N     N_2   0.331406 0.232550 0.860950 -0.097370
N4    N     N_2   0.618955 0.208218 0.258683 -0.102512
N5    N     N_2   0.330871 0.860761 0.767233 -0.096707
N6    N     N_2   0.618375 0.259453 0.790337 -0.102957
N7    N     N_2   0.331718 0.767575 0.139420 -0.096257
N8    N     N_2   0.260581 0.380799 0.789025 -0.098322
N9    N     N_2   0.764129 0.675188 0.132662 -0.104996
N10   N     N_2   0.785331 0.382072 0.736446 -0.099522
N11   N     N_2   0.132793 0.674094 0.235417 -0.103790
N12   N     N_2   0.730998 0.381737 0.219997 -0.099779
N13   N     N_R   0.292995 0.768890 0.763696 -0.092167
N14   N     N_2   0.234525 0.670954 0.864427 -0.105354
N15   N     N_2   0.212438 0.380490 0.262283 -0.098624
N16   N     N_2   0.866037 0.674101 0.764370 -0.106051
N17   N     N_2   0.735799 0.617003 0.784540 -0.104569
N18   N     N_2   0.232357 0.331846 0.138916 -0.096578
N19   N     N_2   0.219022 0.617346 0.732024 -0.104109
N20   N     N_2   0.860996 0.331363 0.232550 -0.097403
N21   N     N_2   0.258560 0.618979 0.208070 -0.102499
N22   N     N_2   0.766999 0.329755 0.861659 -0.097012
N23   N     N_2   0.790609 0.618412 0.259222 -0.102949
N24   N     N_R   0.706412 0.236326 0.231095 -0.074213
N25   N     N_2   0.139210 0.331463 0.767526 -0.096381
N26   N     N_R   0.293562 0.236133 0.768458 -0.091518
N27   N     N_R   0.705681 0.768450 0.237131 -0.079833
N28   N     N_R   0.292635 0.230886 0.235135 -0.084697
N29   N     N_R   0.705820 0.762241 0.768565 -0.081439
N30   N     N_R   0.230766 0.292479 0.764283 -0.085916
N31   N     N_R   0.762858 0.706333 0.231131 -0.075480
N32   N     N_R   0.763481 0.293150 0.768803 -0.092620
N33   N     N_R   0.231175 0.762838 0.706350 -0.075723
N34   N     N_R   0.231076 0.706420 0.236304 -0.074240
N35   N     N_R   0.768443 0.293588 0.236155 -0.091575
N36   N     N_R   0.237139 0.705634 0.768453 -0.079748
N37   N     N_R   0.235134 0.292632 0.230888 -0.084699
N38   N     N_R   0.768558 0.705817 0.762230 -0.081454
N39   N     N_R   0.456710 0.054070 0.423820 -0.040017
N40   N     N_R   0.543290 0.945930 0.576180 -0.040067
N41   N     N_R   0.945930 0.456710 0.423820 -0.040030
N42   N     N_R   0.054070 0.543290 0.576180 -0.040069
N43   N     N_R   0.543290 0.945930 0.423820 -0.040302
N44   N     N_R   0.768803 0.763510 0.293133 -0.092456
N45   N     N_R   0.456710 0.054070 0.576180 -0.039811
N46   N     N_R   0.054070 0.543290 0.423820 -0.040269
N47   N     N_R   0.945930 0.456710 0.576180 -0.039812
N48   N     N_R   0.456710 0.945930 0.576180 -0.039736
N49   N     N_R   0.543290 0.054070 0.423820 -0.040520
N50   N     N_R   0.945930 0.543290 0.576180 -0.040000
N51   N     N_R   0.054070 0.456710 0.423820 -0.040303
N52   N     N_R   0.543290 0.054070 0.576180 -0.039950
N53   N     N_R   0.456710 0.945930 0.423820 -0.040334
N54   N     N_R   0.054070 0.456710 0.576180 -0.039711
N55   N     N_R   0.236323 0.231092 0.706408 -0.074178
N56   N     N_R   0.945930 0.543290 0.423820 -0.040545
N57   N     N_R   0.423820 0.456710 0.054070 -0.040018
N58   N     N_R   0.576180 0.543290 0.945930 -0.040070
N59   N     N_R   0.423820 0.945930 0.456710 -0.040041
N60   N     N_R   0.576180 0.054070 0.543290 -0.040062
N61   N     N_R   0.423820 0.543290 0.945930 -0.040301
N62   N     N_R   0.576180 0.456710 0.054070 -0.039811
N63   N     N_R   0.423820 0.054070 0.543290 -0.040273
N64   N     N_R   0.576180 0.945930 0.456710 -0.039814
N65   N     N_R   0.576180 0.456710 0.945930 -0.039732
N66   N     N_R   0.236091 0.768470 0.293546 -0.091386
N67   N     N_R   0.423820 0.543290 0.054070 -0.040518
N68   N     N_R   0.576180 0.945930 0.543290 -0.040000
N69   N     N_R   0.423820 0.054070 0.456710 -0.040305
N70   N     N_R   0.576180 0.543290 0.054070 -0.039945
N71   N     N_R   0.423820 0.456710 0.945930 -0.040333
N72   N     N_R   0.576180 0.054070 0.456710 -0.039717
N73   N     N_R   0.423820 0.945930 0.543290 -0.040549
N74   N     N_R   0.054070 0.423820 0.456710 -0.040016
N75   N     N_R   0.945930 0.576180 0.543290 -0.040065
N76   N     N_R   0.456710 0.423820 0.945930 -0.040030
N77   N     N_R   0.768436 0.237138 0.705687 -0.079810
N78   N     N_R   0.543290 0.576180 0.054070 -0.040061
N79   N     N_R   0.945930 0.423820 0.543290 -0.040300
N80   N     N_R   0.054070 0.576180 0.456710 -0.039806
N81   N     N_R   0.543290 0.423820 0.054070 -0.040270
N82   N     N_R   0.456710 0.576180 0.945930 -0.039813
N83   N     N_R   0.945930 0.576180 0.456710 -0.039733
N84   N     N_R   0.054070 0.423820 0.543290 -0.040515
N85   N     N_R   0.543290 0.576180 0.945930 -0.040011
N86   N     N_R   0.456710 0.423820 0.054070 -0.040303
N87   N     N_R   0.054070 0.576180 0.543290 -0.039949
N88   N     N_R   0.230887 0.235132 0.292637 -0.084697
N89   N     N_R   0.945930 0.423820 0.456710 -0.040330
N90   N     N_R   0.456710 0.576180 0.054070 -0.039718
N91   N     N_R   0.543290 0.423820 0.945930 -0.040548
N92   N     N_2   0.789006 0.260595 0.380797 -0.098307
N93   N     N_2   0.132362 0.763925 0.675671 -0.104864
N94   N     N_2   0.736454 0.785349 0.382058 -0.099432
N95   N     N_2   0.235409 0.132872 0.674027 -0.103850
N96   N     N_2   0.219815 0.731169 0.381712 -0.099657
N97   N     N_2   0.864709 0.234724 0.671482 -0.105322
N98   N     N_2   0.262285 0.212438 0.380495 -0.098624
N99   N     N_R   0.762231 0.768562 0.705813 -0.081436
N100  N     N_2   0.764397 0.865988 0.674020 -0.106044
N101  N     N_2   0.784439 0.735705 0.616998 -0.104558
N102  N     N_2   0.138922 0.232354 0.331859 -0.096576
N103  N     N_2   0.732806 0.218188 0.617356 -0.104126
N104  N     N_2   0.232485 0.860693 0.331735 -0.097348
N105  N     N_2   0.208448 0.258875 0.618924 -0.102494
N106  N     N_2   0.861421 0.767038 0.330023 -0.096970
N107  N     N_2   0.258173 0.791880 0.618607 -0.102994
N108  N     N_2   0.767557 0.139273 0.331551 -0.096359
N109  N     N_2   0.380726 0.789450 0.260216 -0.098218
N110  N     N_R   0.292427 0.764330 0.230746 -0.085861
N111  N     N_2   0.675174 0.132667 0.764127 -0.105071
N112  N     N_2   0.381935 0.737367 0.786372 -0.099111
N113  N     N_2   0.674162 0.235463 0.132786 -0.103859
N114  N     N_2   0.381736 0.219754 0.731235 -0.099742
N115  N     N_2   0.671509 0.864760 0.234721 -0.105365
N116  N     N_2   0.380492 0.262291 0.212447 -0.098624
N117  N     N_2   0.674059 0.764387 0.866017 -0.106031
N118  N     N_2   0.617002 0.784584 0.735836 -0.104554
N119  N     N_2   0.331855 0.138920 0.232357 -0.096573
N120  N     N_2   0.617339 0.732873 0.218115 -0.104129
Ni1   Ni    Ni4+2 0.500000 1.000000 0.424470 0.209936
Ni2   Ni    Ni4+2 1.000000 0.575530 0.500000 0.211073
Ni3   Ni    Ni4+2 0.500000 0.424470 0.000000 0.209893
Ni4   Ni    Ni4+2 0.500000 0.575530 0.000000 0.211103
Ni5   Ni    Ni4+2 0.500000 1.000000 0.575530 0.211102
Ni6   Ni    Ni4+2 1.000000 0.500000 0.424470 0.209892
Ni7   Ni    Ni4+2 1.000000 0.500000 0.575530 0.211128
Ni8   Ni    Ni4+2 0.424470 0.500000 0.000000 0.209958
Ni9   Ni    Ni4+2 0.575530 0.500000 0.000000 0.211088
Ni10  Ni    Ni4+2 0.424470 1.000000 0.500000 0.209882
Ni11  Ni    Ni4+2 0.575530 1.000000 0.500000 0.211124
Ni12  Ni    Ni4+2 1.000000 0.424470 0.500000 0.209953

loop_
_geom_bond_atom_site_label_1
_geom_bond_atom_site_label_2
_ccdc_geom_bond_type
N52   Ni5   S    
C68   N1    A    
C130  C146  S    
C140  C247  A    
C182  H94   S    
C90   N35   A    
C35   N55   A    
C10   C63   A    
C40   C93   A    
C17   C127  A    
C206  H193  S    
C267  N99   A    
C27   H112  S    
C214  H240  S    
C164  H23   S    
C201  H237  S    
N67   Ni8   S    
C265  N97   S    
C254  N86   A    
C239  N71   A    
H128  N5    S    
C221  N53   A    
H4    N93   S    
N81   Ni3   S    
C22   C75   A    
C157  N110  A    
C207  H195  S    
C184  H104  S    
C167  H38   S    
C199  H165  S    
C243  H270  S    
C202  H175  S    
C242  N74   A    
C187  N120  S    
C150  C254  A    
C44   C279  A    
C31   C265  A    
C193  H140  S    
C174  H64   S    
C171  H50   S    
C248  H274  S    
C262  N94   S    
C215  H241  S    
C193  N7    S    
C135  N26   A    
C93   C149  S    
C288  N120  S    
C46   N44   A    
C189  H125  S    
C204  H184  S    
C198  H162  S    
C42   C276  A    
C90   N24   A    
C159  N92   S    
C209  H204  S    
C150  C225  A    
C3    C129  A    
C171  N104  S    
C4    C56   A    
C75   C103  A    
H21   N97   S    
C40   C274  A    
C175  H66   S    
N48   N73   A    
C71   C98   A    
C242  H269  S    
H30   N100  S    
C148  C252  A    
C9    C128  A    
C208  H199  S    
C42   C95   A    
C33   H267  S    
N58   N85   A    
H203  N23   S    
C229  H255  S    
C72   H227  S    
C227  N59   A    
C180  H86   S    
C65   H220  S    
C226  N58   A    
C173  H60   S    
C203  H177  S    
C221  H248  S    
C107  C212  S    
C169  H42   S    
C159  H288  S    
H39   N102  S    
C239  H265  S    
H115  N120  S    
C81   C137  S    
C47   H113  S    
C202  N16   S    
C77   H232  S    
N56   Ni6   S    
C146  N2    A    
C13   C117  S    
C41   C94   A    
C259  H285  S    
C180  H85   S    
C275  N107  S    
C4    C122  A    
H17   N96   S    
C195  H147  S    
C71   H226  S    
C78   C134  S    
C101  N28   A    
C199  H164  S    
H65   N108  S    
C144  C219  A    
H8    N94   S    
C211  N43   A    
C122  C276  A    
C281  N113  S    
C263  N95   S    
C237  N69   A    
C16   C115  A    
C206  N20   S    
C235  N67   A    
C164  H25   S    
C98   C150  S    
C18   C71   A    
C135  N30   A    
C236  H262  S    
H92   N115  S    
C101  N37   A    
N52   N60   A    
C107  C262  A    
C163  N96   S    
C238  H264  S    
N41   Ni6   S    
H194  N21   S    
C199  N14   S    
C3    N3    S    
C200  H169  S    
C178  H82   S    
C202  H173  S    
C219  H246  S    
C245  N77   A    
C196  H151  S    
C120  C274  A    
H96   N116  S    
C176  H73   S    
C174  H62   S    
C166  H33   S    
C63   C84   A    
N54   N84   A    
C48   H124  S    
C75   H230  S    
C246  H272  S    
C29   C82   A    
C266  N98   S    
C11   N11   S    
C143  C218  A    
C191  H131  S    
C286  N118  S    
N62   Ni9   S    
C165  H27   S    
N89   Ni12  S    
C253  N85   A    
C157  N34   A    
C218  N50   A    
C52   C86   A    
C251  N83   A    
C20   C73   A    
N61   Ni8   S    
C34   C87   A    
C189  H127  S    
C241  N73   A    
C205  H186  S    
H56   N106  S    
C172  H53   S    
C19   C106  A    
C209  H206  S    
C185  H107  S    
N56   N83   A    
C82   C138  S    
C176  N109  S    
C50   C284  A    
C8    C129  A    
C234  N66   A    
C36   C270  A    
C208  N22   S    
C247  H273  S    
C16   N16   S    
C169  H41   S    
C110  C265  A    
C1    C105  S    
C253  H280  S    
N87   Ni2   S    
C138  C213  A    
H100  N117  S    
C10   N10   S    
C127  C285  A    
C269  N101  S    
N39   Ni1   S    
C206  H191  S    
C53   H179  S    
C24   N110  A    
C187  H116  S    
C102  C158  S    
C91   C147  S    
C36   C88   A    
C89   C145  S    
C284  N116  S    
C26   C78   A    
C5    C58   A    
C260  N92   S    
N43   N64   A    
C277  N109  S    
C250  N82   A    
C52   C286  A    
C40   H46   S    
C236  N68   A    
C164  H22   S    
C32   C85   A    
C139  C214  A    
C204  N18   S    
H26   N98   S    
C208  H202  S    
C163  H20   S    
C223  N26   A    
N57   N86   A    
H61   N107  S    
C5    N5    S    
C179  N40   A    
C129  C135  S    
C3    C55   A    
N70   Ni9   S    
C21   C131  A    
C210  H209  S    
N45   Ni5   S    
C244  N76   A    
C251  H277  S    
H78   N112  S    
C241  H268  S    
C171  H51   S    
C256  N28   A    
C248  N80   A    
C173  N106  S    
C14   N14   S    
C181  H88   S    
C15   C67   A    
C252  N84   A    
C197  H156  S    
C200  H171  S    
C209  N23   S    
C2    C116  S    
H189  N20   S    
C137  C232  A    
N67   N90   A    
C161  H10   S    
C136  C201  A    
C117  C271  A    
N62   N81   A    
C196  H153  S    
C118  C272  A    
C58   H213  S    
N71   Ni8   S    
C21   N21   S    
C194  H143  S    
C50   C98   A    
C184  N117  S    
C33   C268  A    
C57   N13   A    
C175  H67   S    
C174  N107  S    
C249  H275  S    
C27   C80   A    
N63   Ni10  S    
H119  N3    S    
N86   Ni3   S    
C191  H129  S    
H12   N95   S    
C147  C227  A    
C172  N105  S    
C114  C286  A    
C112  N33   A    
C280  N112  S    
H48   N104  S    
C31   C84   A    
C144  C242  A    
C109  C264  A    
C133  C236  A    
C186  H114  S    
C205  H188  S    
C162  H14   S    
C172  H55   S    
C103  C154  S    
C43   C277  A    
H137  N7    S    
N49   Ni1   S    
C162  N95   S    
C220  N52   A    
C46   C120  S    
C170  H47   S    
C192  H136  S    
N50   N75   A    
C170  N103  S    
H141  N8    S    
C250  H276  S    
H163  N14   S    
C285  N117  S    
C95   C142  S    
C110  C245  S    
C50   H146  S    
C125  C281  A    
H154  N11   S    
C49   H135  S    
C177  H76   S    
C227  H253  S    
C143  C243  A    
C54   H190  S    
C216  N48   A    
C70   C99   A    
C115  C278  S    
C74   C104  A    
C183  N116  S    
C186  H110  S    
N73   Ni10  S    
C233  N65   A    
C212  N44   A    
C176  H71   S    
C7    C131  A    
C6    C59   A    
C62   H217  S    
C224  H250  S    
C219  N51   A    
C278  N38   A    
C167  N101  S    
N65   Ni9   S    
C115  C269  A    
C34   H278  S    
C270  N102  S    
C146  N32   A    
N43   Ni1   S    
C25   N25   S    
C47   C97   A    
C151  C253  A    
C59   C103  A    
C53   C85   A    
C167  H37   S    
C198  H160  S    
C113  N38   A    
C72   C80   A    
C156  C246  A    
C160  H5    S    
C18   C126  A    
C39   C273  A    
C145  C220  A    
C55   H201  S    
C222  H249  S    
N40   Ni5   S    
C273  N105  S    
C104  C155  S    
C164  N97   S    
C171  H49   S    
C249  N81   A    
C205  N19   S    
C162  H16   S    
C26   C260  A    
H52   N105  S    
C188  H121  S    
C207  H197  S    
H105  N118  S    
C37   C271  A    
C60   C104  A    
C38   C272  A    
C186  H111  S    
C22   C130  A    
C44   C89   A    
C188  N3    S    
H109  N119  S    
C210  H208  S    
C60   H215  S    
C229  N61   A    
N47   Ni7   S    
C192  N6    S    
C92   C148  S    
C64   H219  S    
C231  N63   A    
C136  C255  A    
C170  H44   S    
N64   Ni11  S    
C213  H239  S    
N57   Ni8   S    
C83   C139  S    
C233  H260  S    
C181  H89   S    
C142  C240  A    
C55   C102  A    
C67   C88   A    
C208  H200  S    
N82   Ni4   S    
C56   H211  S    
N61   N82   A    
C187  H117  S    
C132  C237  A    
C7    N7    S    
C173  H59   S    
C116  C270  A    
C203  H180  S    
C11   C109  A    
C56   C95   A    
C54   C288  A    
C113  C127  S    
C159  H287  S    
N46   Ni6   S    
C105  C260  A    
C170  H45   S    
C49   C81   A    
C30   C83   A    
C131  C157  S    
C203  N17   S    
C47   C281  A    
C140  C215  A    
C287  N119  S    
N48   Ni5   S    
C39   H35   S    
N45   N63   A    
C254  H281  S    
C15   N15   S    
C46   N31   A    
C25   C119  A    
N69   Ni10  S    
C32   H256  S    
C126  C284  A    
N68   Ni11  S    
C1    N1    A    
N50   Ni7   S    
C149  C224  A    
C97   C153  S    
N75   Ni2   S    
C167  H36   S    
C23   C76   A    
C45   H101  S    
C69   C87   A    
C6    C130  A    
C158  C239  A    
C124  C128  S    
C183  H98   S    
C181  N114  S    
C100  C156  S    
C175  N108  S    
C217  N49   A    
C23   N23   S    
C246  N78   A    
C278  N99   A    
C113  N29   A    
C9    N9    S    
C272  N104  S    
C180  H84   S    
C19   N19   S    
C139  C248  A    
C141  C216  A    
C152  C250  A    
C59   H214  S    
C13   N2    A    
C225  H251  S    
C198  N12   S    
N71   N76   A    
C31   H245  S    
C226  H252  S    
H159  N12   S    
C228  H254  S    
C207  H196  S    
C184  H103  S    
C182  N115  S    
C199  H166  S    
C200  H170  S    
C202  H174  S    
C160  H7    S    
C68   C122  S    
C4    N4    S    
C108  C223  S    
C123  C280  A    
C196  H152  S    
C106  C112  S    
H123  N4    S    
C28   H212  S    
C2    N37   A    
C156  C238  A    
H150  N10   S    
N90   Ni4   S    
C38   C91   A    
C49   C283  A    
C141  C241  A    
C174  H63   S    
C257  N89   A    
C64   C83   A    
C76   C93   A    
C191  H130  S    
C51   C99   A    
N54   Ni7   S    
C86   C133  S    
C168  H233  S    
C53   C287  A    
C232  H259  S    
C62   C100  A    
C124  N27   A    
C38   H24   S    
C189  H126  S    
C168  N39   A    
N46   N80   A    
C222  N54   A    
C189  N4    S    
C128  C288  A    
C201  N42   A    
N72   Ni11  S    
C198  H161  S    
C172  H54   S    
C185  N118  S    
C196  N10   S    
C209  H205  S    
C185  H106  S    
C20   N20   S    
C68   N24   A    
C187  H118  S    
N53   N59   A    
C279  N111  S    
N58   Ni9   S    
C39   C92   A    
C48   C82   A    
N65   N91   A    
C20   C105  A    
C181  H91   S    
C35   N30   A    
C111  C256  S    
C155  C258  A    
C231  H258  S    
N42   N87   A    
C237  H263  S    
C180  N113  S    
N76   Ni3   S    
C51   C285  A    
C70   H225  S    
C107  C283  A    
C206  H192  S    
C186  N119  S    
C118  C277  A    
H43   N103  S    
H74   N111  S    
C234  N34   A    
C203  H178  S    
C52   H168  S    
N78   Ni4   S    
C12   C65   A    
C261  N93   S    
C80   C136  S    
C37   C89   A    
C255  N87   A    
C169  N102  S    
C267  N29   A    
C163  H18   S    
N91   Ni3   S    
N53   Ni1   S    
C114  C267  S    
C43   H79   S    
C230  H257  S    
C28   C262  A    
N79   Ni12  S    
C154  C233  A    
C214  N46   A    
C90   C125  S    
C224  N56   A    
C10   C110  A    
C200  N15   S    
C213  N45   A    
C195  H148  S    
C274  N106  S    
C58   C94   A    
C159  H3    S    
C215  N47   A    
C112  N36   A    
C24   N66   A    
C151  C226  A    
C161  N94   S    
C210  H210  S    
N85   Ni4   S    
C258  N90   A    
C160  N93   S    
N40   N68   A    
C111  C287  A    
C15   C116  A    
C230  N62   A    
C194  N8    S    
C154  C259  A    
C1    N35   A    
H145  N9    S    
C96   C152  S    
C149  C251  A    
C165  H29   S    
C235  H261  S    
C77   C92   A    
C195  N9    S    
C212  N27   A    
C42   H68   S    
C268  N100  S    
C182  H95   S    
C197  H155  S    
C26   H1    S    
C35   C119  S    
C66   H221  S    
C178  H81   S    
C161  H9    S    
C255  H282  S    
C220  H247  S    
C259  N91   A    
H185  N19   S    
N80   Ni2   S    
C36   H2    S    
C194  H144  S    
H83   N113  S    
C137  C211  A    
C25   C77   A    
C138  C231  A    
C276  N108  S    
C76   H231  S    
C193  H139  S    
C114  C268  A    
C85   C132  S    
C134  C257  A    
C165  H28   S    
N70   N78   A    
C37   H13   S    
C27   C261  A    
C5    C121  A    
C108  C263  A    
C67   H222  S    
C217  H243  S    
C148  C222  A    
C205  H187  S    
C218  H244  S    
C162  H15   S    
C29   C263  A    
C79   N13   A    
N51   Ni6   S    
N84   Ni12  S    
C185  H108  S    
C165  N98   S    
C228  N60   A    
N49   N72   A    
H286  N92   S    
C73   C78   A    
C34   C269  A    
C32   C266  A    
C192  H133  S    
C175  H69   S    
C13   N77   A    
H34   N101  S    
C247  N79   A    
C17   N17   S    
C232  N64   A    
N47   N79   A    
C8    C61   A    
C223  N55   A    
C109  C234  S    
C22   N22   S    
C17   C70   A    
C177  H75   S    
H181  N18   S    
C54   C100  A    
C19   C72   A    
N42   Ni7   S    
C44   H90   S    
C183  H99   S    
C29   H223  S    
N83   Ni2   S    
C2    N88   A    
C145  C228  A    
C8    N8    S    
C216  H242  S    
C9    C62   A    
C176  H72   S    
C74   H229  S    
C79   N36   A    
C207  N21   S    
C63   H218  S    
C252  H279  S    
C178  N112  S    
C11   C64   A    
C23   C120  A    
C48   C282  A    
C66   C96   A    
C133  C179  A    
C245  N32   A    
C158  C244  A    
H207  N25   S    
C190  H236  S    
C79   C123  S    
C21   C74   A    
C106  C261  A    
C43   C91   A    
C69   H224  S    
H70   N109  S    
C179  H235  S    
C197  H158  S    
C41   H57   S    
C33   C86   A    
C121  C275  A    
C142  C217  A    
C160  H6    S    
C119  C273  A    
C153  C249  A    
C204  H183  S    
N51   N74   A    
C155  C235  A    
C193  H138  S    
C45   C280  A    
C57   N33   A    
C166  H31   S    
C166  N100  S    
C101  C126  S    
C14   C66   A    
C73   H228  S    
N59   Ni10  S    
C61   H216  S    
C240  N72   A    
H132  N6    S    
C7    C60   A    
C197  N11   S    
C166  H32   S    
C182  H93   S    
C188  H122  S    
C153  C230  A    
N41   N89   A    
C161  H11   S    
C204  H182  S    
C184  H102  S    
C12   C125  A    
C108  C282  A    
C192  H134  S    
C152  C229  A    
C256  N88   A    
C6    N6    S    
C194  H142  S    
C14   C123  A    
C244  H271  S    
C28   C81   A    
C94   C141  S    
H198  N22   S    
C12   N12   S    
C99   C151  S    
C16   C69   A    
C132  C168  A    
C111  C266  A    
C283  N115  S    
C147  C221  A    
C211  H238  S    
C30   H234  S    
H87   N114  S    
N74   Ni12  S    
C24   C118  S    
C51   H157  S    
C124  N31   A    
C134  C190  A    
C178  H80   S    
C61   C102  A    
N39   N69   A    
C65   C97   A    
C117  C279  A    
C190  N41   A    
C173  H58   S    
C264  N96   S    
C271  N103  S    
C210  N25   S    
C240  H266  S    
C169  H40   S    
N60   Ni11  S    
H167  N15   S    
C18   N18   S    
C243  N75   A    
C258  H284  S    
C282  N114  S    
C257  H283  S    
C163  H19   S    
C30   C264  A    
C238  N70   A    
C41   C275  A    
C57   C121  S    
C191  N5    S    
C177  N111  S    
C84   C140  S    
C177  H77   S    
C188  H120  S    
C225  N57   A    
C195  H149  S    
C87   C143  S    
C45   C96   A    
C88   C144  S    
H172  N16   S    
H176  N17   S    
C183  H97   S    
