data_mof_unit_55036.cif
_audit_creation_date              2012-12-11T21:12:26-0500
_audit_creation_method            fapswitch 2.2
_symmetry_space_group_name_H-M    P1
_symmetry_Int_Tables_number       1
_space_group_crystal_system       triclinic
_cell_length_a                    8.642474
_cell_length_b                    18.72264
_cell_length_c                    26.702196
_cell_angle_alpha                 99.937082
_cell_angle_beta                  92.699226
_cell_angle_gamma                 86.848231
_cell_volume                      4246.31613542

loop_
_atom_site_label
_atom_site_type_symbol
_atom_type_description
_atom_site_fract_x
_atom_site_fract_y
_atom_site_fract_z
_atom_type_partial_charge
Ba1   Ba    Ba6+2 0.160810 0.465630 0.521640 1.846171
Ba2   Ba    Ba6+2 0.649380 0.534380 0.478400 1.836798
C1    C     C_3   0.450773 0.196579 0.667529 -0.150905
C2    C     C_R   0.042947 0.090825 0.438420 -0.062601
C3    C     C_R   0.172128 0.945719 0.445898 -0.020714
C4    C     C_3   0.001012 0.225359 0.655292 0.895881
C5    C     C_R   0.017061 0.967577 0.457396 0.036871
C6    C     C_R   0.231686 0.876364 0.449379 -0.052531
C7    C     C_R   0.140561 0.824783 0.464230 -0.038220
C8    C     C_R   0.990440 0.846876 0.480561 -0.018517
C9    C     C_R   0.925599 0.917630 0.475355 0.043378
C10   C     C_R   0.198139 0.753155 0.465818 -0.048012
C11   C     C_R   0.104911 0.704357 0.483695 -0.284004
C12   C     C_3   0.413535 0.265792 0.645431 0.665667
C13   C     C_R   0.966174 0.728110 0.508231 0.044276
C14   C     C_R   0.912279 0.802604 0.508408 -0.119070
C15   C     C_R   0.810284 0.063019 0.476904 0.069815
C16   C     C_3   0.070064 0.208535 0.707750 0.192452
C17   C     C_R   0.763244 0.138791 0.484436 0.073430
C18   C     C_R   0.859996 0.189982 0.469636 0.003438
C19   C     C_R   0.996068 0.163530 0.445592 -0.030483
C20   C     C_R   0.796588 0.840064 0.539588 0.434242
C21   C     C_R   0.700554 0.889680 0.517319 -0.085207
C22   C     C_R   0.773577 0.938932 0.492204 0.007745
C23   C     C_3   0.502665 0.312981 0.397411 0.306839
C24   C     C_R   0.714605 0.012003 0.492366 0.065965
C25   C     C_R   0.567759 0.037556 0.510923 -0.086653
C26   C     C_R   0.622345 0.163311 0.508028 0.026046
C27   C     C_R   0.523980 0.111403 0.519173 -0.087698
C28   C     C_3   0.869834 0.697365 0.655612 0.944691
C29   C     C_R   0.584648 0.238983 0.520089 0.001772
C30   C     C_R   0.685522 0.288878 0.506772 -0.233373
C31   C     C_R   0.821231 0.265991 0.480386 0.027876
C32   C     C_R   0.179815 0.472675 0.162533 0.684028
C33   C     C_R   0.294313 0.588303 0.184985 0.681008
C34   C     C_3   0.557949 0.235887 0.374997 -0.310026
C35   C     C_2   0.084463 0.567309 0.275609 -0.062497
C36   C     C_3   0.068087 0.572635 0.331976 -0.085221
C37   C     C_1   0.287064 0.482474 0.330978 -0.101683
C38   C     C_2   0.316487 0.485274 0.282290 0.328188
C39   C     C_2   0.204912 0.528553 0.252379 0.196359
C40   C     C_3   0.985725 0.722068 0.700160 -0.194637
C41   C     C_R   0.285887 0.528704 0.096616 -0.091068
C42   C     C_R   0.216033 0.469564 0.111267 -0.050847
C43   C     C_R   0.186903 0.408210 0.074522 -0.009961
C44   C     C_R   0.321226 0.589452 0.133444 -0.042282
C45   C     C_3   0.875225 0.726875 0.365831 0.336239
C46   C     C_2   0.156681 0.511473 0.352392 -0.229494
C47   C     C_2   0.624637 0.452410 0.634521 -0.174564
C48   C     C_R   0.383026 0.454661 0.962644 -0.009640
C49   C     C_R   0.405860 0.586416 0.976577 -0.083679
C50   C     C_R   0.425137 0.517868 0.945054 0.022444
C51   C     C_R   0.417914 0.386682 0.933293 -0.124593
C52   C     C_3   0.042751 0.321250 0.359010 0.687723
C53   C     C_R   0.489476 0.379333 0.886866 0.441885
C54   C     C_R   0.524414 0.442947 0.867499 -0.102707
C55   C     C_R   0.484825 0.512286 0.895787 -0.181246
C56   C     C_3   0.855617 0.796123 0.342834 0.340965
C57   C     C_R   0.510946 0.575816 0.875751 -0.146281
C58   C     C_R   0.550292 0.567399 0.823649 0.682365
C59   C     C_R   0.600164 0.440233 0.821474 0.690808
C60   C     C_2   0.743568 0.447406 0.721967 0.090719
C61   C     C_3   0.734209 0.409697 0.666804 0.041007
C62   C     C_1   0.521043 0.504319 0.655498 0.160852
C63   C     C_2   0.502237 0.517238 0.705734 0.043552
C64   C     C_3   0.133508 0.247954 0.353703 -0.329792
C65   C     C_2   0.622441 0.490378 0.742199 0.253723
C66   C     C_R   0.313057 0.460836 0.010335 0.041114
C67   C     C_3   0.369031 0.737513 0.356284 0.263379
C68   C     C_R   0.324120 0.526269 0.045147 0.069533
C69   C     C_R   0.379001 0.588249 0.029190 0.059932
C70   C     C_R   0.237250 0.403238 0.025167 -0.080777
C71   C     C_R   0.388917 0.648367 0.118131 -0.019748
C72   C     C_R   0.415805 0.649815 0.954561 0.302079
C73   C     C_R   0.487024 0.644939 0.907257 0.386608
C74   C     C_R   0.416882 0.647764 0.066939 -0.008597
C75   C     C_3   0.315140 0.682150 0.587994 0.312811
C76   C     C_3   0.269744 0.762218 0.605072 -0.214574
C77   C     C_3   0.421612 0.770446 0.311781 0.351318
C78   C     C_R   0.957155 0.039740 0.456690 0.037147
H1    H     H_    0.116439 0.365775 0.377090 -0.103408
H2    H     H_    0.250956 0.760618 0.365901 0.007809
H3    H     H_    0.363752 0.677761 0.343940 -0.022499
H4    H     H_    0.348730 0.751488 0.277573 0.123031
H5    H     H_    0.542453 0.751720 0.303256 0.098747
H6    H     H_    0.150089 0.649342 0.483797 0.045278
H7    H     H_    0.352452 0.864969 0.441959 0.151881
H8    H     H_    0.412368 0.127220 0.535142 0.120036
H9    H     H_    0.253877 0.981795 0.435937 0.081081
H10   H     H_    0.590105 0.903659 0.534417 0.088955
H11   H     H_    0.397087 0.337861 0.947643 0.139133
H12   H     H_    0.211406 0.245954 0.387395 0.048966
H13   H     H_    0.421726 0.695036 0.145780 0.156022
H14   H     H_    0.395559 0.544374 0.720567 0.085555
H15   H     H_    0.621096 0.434268 0.593745 0.031596
H16   H     H_    0.189596 0.222011 0.714310 0.084586
H17   H     H_    0.210647 0.387350 0.754521 0.368480
H18   H     H_    0.014677 0.779407 0.702382 0.164069
H19   H     H_    0.937609 0.716840 0.737187 0.144020
H20   H     H_    0.096818 0.689203 0.695654 0.097967
H21   H     H_    0.222660 0.341127 0.276975 0.324464
H22   H     H_    0.210438 0.239536 0.320950 0.147090
H23   H     H_    0.396612 0.676688 0.556551 0.075234
H24   H     H_    0.053106 0.202720 0.347826 0.115390
H25   H     H_    0.208763 0.653463 0.574058 -0.024265
H26   H     H_    0.216495 0.770253 0.642613 0.159663
H27   H     H_    0.369663 0.796872 0.608348 0.178645
H28   H     H_    0.424322 0.311482 0.428977 0.003110
H29   H     H_    0.651713 0.237308 0.348207 0.185090
H30   H     H_    0.602376 0.206395 0.405546 0.005918
H31   H     H_    0.461756 0.205299 0.354175 0.132945
H32   H     H_    0.512355 0.157582 0.638381 0.153000
H33   H     H_    0.014544 0.246758 0.738946 0.059046
H34   H     H_    0.353307 0.165735 0.673549 0.131793
H35   H     H_    0.836458 0.739215 0.405559 -0.027143
H36   H     H_    0.001271 0.711425 0.366515 -0.117224
H37   H     H_    0.934503 0.836927 0.363702 -0.010007
H38   H     H_    0.807476 0.716970 0.207712 0.368305
H39   H     H_    0.215068 0.067263 0.576549 0.361177
H40   H     H_    0.496860 0.955656 0.377225 0.350683
H41   H     H_    0.074678 0.199141 0.435158 0.093733
H42   H     H_    0.700676 0.978741 0.620899 0.368283
H43   H     H_    0.652858 0.346193 0.514276 0.022285
H44   H     H_    0.149856 0.076841 0.419099 0.076139
H45   H     H_    0.187372 0.781782 0.577029 0.071910
H46   H     H_    0.747017 0.259529 0.738671 0.388414
H47   H     H_    0.484291 0.001651 0.520237 0.068989
H48   H     H_    0.654691 0.462801 0.203379 0.383724
H49   H     H_    0.130363 0.362515 0.084293 0.156422
H50   H     H_    0.834757 0.428959 0.746704 0.115304
H51   H     H_    0.721876 0.218404 0.831865 0.375313
H52   H     H_    0.212560 0.354271 0.998798 0.107217
H53   H     H_    0.005327 0.599145 0.254401 0.139678
H54   H     H_    0.146597 0.802696 0.938137 0.394986
H55   H     H_    0.948258 0.146033 0.795853 0.346365
H56   H     H_    0.521050 0.286960 0.636480 0.053200
H57   H     H_    0.772007 0.744797 0.853427 0.387537
H58   H     H_    0.476441 0.692569 0.057592 0.146167
H59   H     H_    0.111753 0.492999 0.385019 0.060704
H60   H     H_    0.643749 0.862568 0.710751 0.401640
H61   H     H_    0.816569 0.528488 0.590786 0.342428
H62   H     H_    0.515611 0.207473 0.704482 0.192994
H63   H     H_    0.605950 0.343389 0.412752 0.040490
H64   H     H_    0.735868 0.819045 0.347333 0.089483
N1    N     N_R   0.226131 0.529939 0.198999 -0.426473
N2    N     N_R   0.594955 0.499991 0.796941 -0.457777
O1    O     O_2   0.106080 0.324280 0.466820 -0.476747
O2    O     O_2   0.747466 0.532675 0.323808 -0.345587
O3    O     O_3   0.784689 0.671932 0.338099 -0.560561
O4    O     O_3   0.859130 0.413620 0.470620 -0.480680
O5    O     O_3   0.459240 0.537930 0.559910 -0.487727
O6    O     O_2   0.583120 0.462390 0.379940 -0.395945
O7    O     O_3   0.422154 0.344021 0.359005 -0.621167
O8    O     O_2   0.507934 0.756238 0.495343 -0.488198
O9    O     O_3   0.475745 0.752272 0.397712 -0.581205
O10   O     O_2   0.109626 0.423949 0.174951 -0.484491
O11   O     O_2   0.672061 0.384835 0.803455 -0.481010
O12   O     O_3   0.385408 0.653682 0.629176 -0.550184
O13   O     O_2   0.333512 0.638728 0.217546 -0.578325
O14   O     O_2   0.541543 0.619538 0.801706 -0.463102
O15   O     O_3   0.376230 0.370290 0.556910 -0.459855
O16   O     O_2   0.278197 0.247645 0.505940 -0.451943
O17   O     O_3   0.906019 0.320871 0.385758 -0.643201
O18   O     O_3   0.317461 0.250112 0.601463 -0.547658
O19   O     O_2   0.227190 0.537650 0.620070 -0.418912
O20   O     O_3   0.971110 0.406970 0.583250 -0.452715
O21   O     O_2   0.031844 0.431006 0.675949 -0.365459
O22   O     O_2   0.485827 0.362172 0.724268 -0.313758
O23   O     O_3   0.052626 0.294361 0.645741 -0.547369
O24   O     O_2   0.312679 0.402057 0.659270 -0.306580
O25   O     O_3   0.203434 0.342268 0.729069 -0.522665
O26   O     O_2   0.859576 0.283951 0.275439 -0.184138
O27   O     O_2   0.920620 0.411578 0.297118 -0.267868
O28   O     O_3   0.132961 0.319790 0.256582 -0.423660
O29   O     O_2   0.893179 0.852113 0.258471 -0.176427
O30   O     O_2   0.058846 0.745333 0.270276 -0.319448
O31   O     O_3   0.769741 0.726287 0.242805 -0.498455
O32   O     O_2   0.923201 0.102770 0.586779 -0.211324
O33   O     O_2   0.062309 0.194035 0.556040 -0.288794
O34   O     O_2   0.704230 0.675760 0.533200 -0.416233
O35   O     O_3   0.214464 0.106362 0.606729 -0.532932
O36   O     O_2   0.462399 0.894158 0.277637 -0.196821
O37   O     O_2   0.236602 0.891835 0.329358 -0.265204
O38   O     O_3   0.509414 0.902333 0.375143 -0.570680
O39   O     O_2   0.960561 0.842212 0.629407 -0.252939
O40   O     O_2   0.972534 0.946476 0.588392 -0.247235
O41   O     O_3   0.718471 0.931109 0.632132 -0.414766
O42   O     O_2   0.739387 0.236649 0.609650 -0.437922
O43   O     O_2   0.765096 0.148710 0.668164 -0.259628
O44   O     O_3   0.743108 0.285027 0.709052 -0.583350
O45   O     O_3   0.951180 0.586390 0.529420 -0.491104
O46   O     O_2   0.411733 0.379280 0.207218 -0.243574
O47   O     O_2   0.583191 0.397466 0.282532 -0.187544
O48   O     O_3   0.574285 0.493502 0.223282 -0.503212
O49   O     O_2   0.450416 0.235164 0.881051 -0.243145
O50   O     O_2   0.450354 0.281629 0.801154 -0.222307
O51   O     O_3   0.713346 0.268566 0.851098 -0.467863
O52   O     O_2   0.158707 0.706278 0.003727 -0.268251
O53   O     O_2   0.376721 0.785787 0.008829 -0.209177
O54   O     O_3   0.214476 0.760346 0.924049 -0.429584
O55   O     O_2   0.207821 0.101135 0.751811 -0.223443
O56   O     O_3   0.434080 0.629720 0.443130 -0.478847
O57   O     O_2   0.037263 0.060570 0.678433 -0.089012
O58   O     O_3   0.911304 0.119487 0.762484 -0.432596
O59   O     O_2   0.462555 0.757786 0.856518 -0.166323
O60   O     O_2   0.598666 0.778497 0.939964 -0.189313
O61   O     O_3   0.741540 0.700573 0.865433 -0.469844
O62   O     O_2   0.634128 0.772229 0.615129 -0.319146
O63   O     O_2   0.577815 0.726289 0.692527 -0.233411
O64   O     O_3   0.744613 0.836841 0.701928 -0.433472
O65   O     O_2   0.982549 0.566319 0.668643 -0.331013
O66   O     O_2   0.737077 0.608584 0.704988 -0.328836
O67   O     O_3   0.944826 0.702416 0.610465 -0.678821
O68   O     O_3   0.744785 0.568676 0.605648 -0.593707
O69   O     O_3   0.351080 0.462080 0.440130 -0.507175
O70   O     O_3   0.839200 0.593040 0.416790 -0.498491
P1    P     P_3+3 0.929380 0.335110 0.452880 0.974652
P2    P     P_3+3 0.398530 0.559060 0.613740 1.147589
P3    P     P_3+3 0.933329 0.375878 0.640154 1.164892
P4    P     P_3+3 0.880940 0.664900 0.547160 1.110698
P5    P     P_3+3 0.860678 0.588684 0.351856 1.088291
P6    P     P_3+3 0.397125 0.275938 0.548104 1.032740
P7    P     P_3+3 0.408923 0.438497 0.376692 1.031988
P8    P     P_3+3 0.401310 0.723189 0.450272 0.939151
S1    S     S_3+6 0.349190 0.343374 0.689969 -0.069449
S2    S     S_3+6 0.289939 0.727329 0.975089 0.012835
S3    S     S_3+6 0.059568 0.119052 0.723857 0.072087
S4    S     S_3+6 0.570140 0.723885 0.892646 0.068672
S5    S     S_3+6 0.699114 0.757625 0.665444 0.013740
S6    S     S_3+6 0.833333 0.607200 0.659757 -0.118639
S7    S     S_3+6 0.984028 0.335338 0.295933 0.007312
S8    S     S_3+6 0.899298 0.780582 0.276945 -0.003278
S9    S     S_3+6 0.049303 0.155772 0.600252 0.020133
S10   S     S_3+6 0.404186 0.867515 0.322933 -0.036543
S11   S     S_3+6 0.867704 0.889481 0.598500 0.020682
S12   S     S_3+6 0.803710 0.223115 0.660067 -0.149806
S13   S     S_3+6 0.474353 0.435435 0.249231 -0.004664
S14   S     S_3+6 0.521630 0.288669 0.854034 0.008372

loop_
_geom_bond_atom_site_label_1
_geom_bond_atom_site_label_2
_ccdc_geom_bond_type
Ba2   O4    S    
Ba2   P4    S    
C53   C54   A    
C43   H49   S    
O41   S11   S    
C47   C61   S    
O65   S6    D    
C57   C73   A    
C25   C27   A    
C16   H16   S    
C64   H22   S    
O49   S14   D    
H42   O41   S    
C17   C18   A    
Ba2   O56   S    
C49   C72   A    
C71   H13   S    
O33   S9    D    
O31   S8    S    
O57   S3    D    
O9    P8    S    
H60   O64   S    
O50   S14   D    
C75   C76   S    
C45   H35   S    
C10   C11   A    
C24   C25   A    
C35   C36   S    
O3    P5    S    
C60   C65   D    
C67   H3    S    
C15   C24   A    
C28   S5    S    
C26   C27   A    
H51   O51   S    
H48   O48   S    
O7    P7    S    
C59   O11   D    
C40   H18   S    
C59   N2    Am   
H39   O35   S    
C77   H4    S    
C32   N1    Am   
C55   C57   A    
C13   C14   A    
O30   S8    D    
O64   S5    S    
C9    C22   A    
C54   C55   A    
C2    H44   S    
O59   S4    D    
Ba1   Ba2   S    
C33   N1    Am   
C61   P3    S    
H46   O44   S    
O43   S12   D    
C60   H50   S    
O70   P5    S    
C10   P8    S    
C27   H8    S    
C67   H2    S    
O27   S7    D    
C15   C17   A    
C25   H47   S    
C67   O9    S    
O25   S1    S    
C6    C7    A    
C63   C65   S    
C11   H6    S    
Ba1   O69   S    
C48   C50   A    
C21   C22   A    
C68   C69   A    
C52   O17   S    
C75   H23   S    
C7    C8    A    
C36   C46   S    
O42   S12   D    
O12   P2    S    
C75   O12   S    
H57   O61   S    
Ba1   O15   S    
C57   C58   A    
O48   S13   S    
C47   C62   D    
C43   C70   A    
C35   C39   D    
C30   H43   S    
C37   P7    S    
H21   O28   S    
C23   H63   S    
C1    H62   S    
Ba2   O34   S    
C34   H31   S    
C16   H33   S    
O21   P3    D    
C7    C10   A    
O26   S7    D    
C70   H52   S    
C51   C53   A    
O34   P4    D    
Ba2   O6    S    
C45   H36   S    
C4    C16   S    
C21   H10   S    
C48   C51   A    
C72   C73   A    
C23   O7    S    
C49   C50   A    
C19   H41   S    
C64   H24   S    
C32   C42   A    
Ba2   O45   S    
C12   S1    S    
C8    C9    A    
C37   C38   D    
C3    C5    A    
O35   S9    S    
C45   O3    S    
C64   H12   S    
C23   C34   S    
O54   S2    S    
C56   H37   S    
O69   P7    S    
C76   H27   S    
O45   P4    S    
H54   O54   S    
O2    P5    D    
C58   N2    Am   
C51   H11   S    
C60   C61   S    
O1    P1    D    
C40   H20   S    
O32   S9    D    
C29   P6    S    
O66   S6    D    
O51   S14   S    
O61   S4    S    
C5    C9    A    
C29   C30   A    
Ba1   O19   S    
C1    H32   S    
C66   C70   A    
O38   S10   S    
O15   P6    S    
C65   N2    S    
O5    P2    S    
Ba1   O4    S    
C67   C77   S    
O63   S5    D    
C47   H15   S    
O58   S3    S    
O22   S1    D    
C17   C26   A    
H40   O38   S    
O47   S13   D    
Ba1   P2    S    
C1    C12   S    
O19   P2    D    
C18   C31   A    
Ba1   O45   S    
C38   C39   S    
O39   S11   D    
C4    S9    S    
C41   C68   A    
C74   H58   S    
C11   C13   A    
C41   C42   A    
O60   S4    D    
C71   C74   A    
C35   H53   S    
Ba1   O1    S    
O44   S12   S    
O53   S2    D    
C50   C55   A    
O68   S6    S    
O17   P1    S    
C52   S7    S    
C77   H5    S    
C5    C78   A    
C42   C43   A    
C36   P5    S    
O40   S11   D    
O28   S7    S    
Ba2   O5    S    
O55   S3    D    
C4    S12   S    
C73   S4    S    
C14   C20   A    
O29   S8    D    
C46   H59   S    
O23   P3    S    
C54   C59   A    
C26   C29   A    
C58   O14   D    
C77   S10   S    
C22   C24   A    
C1    H34   S    
O67   P4    S    
H61   O68   S    
C3    C6    A    
C49   C69   A    
C2    C78   A    
H55   O58   S    
C52   C64   S    
C32   O10   D    
C31   P1    S    
O62   S5    D    
H17   O25   S    
C62   P2    S    
C76   H26   S    
C6    H7    S    
O16   P6    D    
C62   C63   D    
C28   S6    S    
O56   P8    S    
C75   H25   S    
C72   S2    S    
C8    C14   A    
C40   H19   S    
C30   C31   A    
C45   C56   S    
C34   H30   S    
C2    C19   A    
C76   H45   S    
C38   S13   S    
O46   S13   D    
C69   C74   A    
C44   C71   A    
C12   H56   S    
Ba1   O20   S    
O18   P6    S    
O20   P3    S    
C63   H14   S    
O4    P1    S    
Ba1   O5    S    
C15   C78   A    
C53   S14   S    
O8    P8    D    
C41   C44   A    
C33   O13   D    
C56   S8    S    
C16   S3    S    
O36   S10   D    
O37   S10   D    
C20   S11   S    
H38   O31   S    
C56   H64   S    
Ba2   O70   S    
Ba2   O69   S    
C39   N1    S    
C18   C19   A    
C66   C68   A    
O6    P7    D    
C34   H29   S    
C20   C21   A    
C28   C40   S    
Ba1   P1    S    
C13   P4    S    
O24   S1    D    
C33   C44   A    
C48   C66   A    
C12   O18   S    
C52   H1    S    
C3    H9    S    
O52   S2    D    
C23   H28   S    
C37   C46   D    
C28   O67   S    
C4    O23   S    
