data_mof_unit_30736.cif
_audit_creation_date              2012-12-11T16:28:24-0500
_audit_creation_method            fapswitch 2.2
_symmetry_space_group_name_H-M    P1
_symmetry_Int_Tables_number       1
_space_group_crystal_system       triclinic
_cell_length_a                    16.920963
_cell_length_b                    7.213909
_cell_length_c                    14.963593
_cell_angle_alpha                 91.107697
_cell_angle_beta                  94.338309
_cell_angle_gamma                 91.917863
_cell_volume                      1819.85842076

loop_
_atom_site_label
_atom_site_type_symbol
_atom_type_description
_atom_site_fract_x
_atom_site_fract_y
_atom_site_fract_z
_atom_type_partial_charge
O1    O     O_R   0.663460 0.361760 0.165970 -0.549187
O2    O     O_R   0.336540 0.638240 0.834030 -0.549189
O3    O     O_R   0.836540 0.861760 0.334030 -0.546845
O4    O     O_R   0.163460 0.138240 0.665970 -0.546846
O5    O     O_R   0.827100 0.689870 0.163730 -0.508894
O6    O     O_R   0.172900 0.310130 0.836270 -0.508887
O7    O     O_R   0.672900 0.189870 0.336270 -0.533494
O8    O     O_R   0.327100 0.810130 0.663730 -0.533494
C1    C     C_R   0.854048 0.523979 0.144315 0.790547
C2    C     C_R   0.145951 0.476021 0.855683 0.790557
C3    C     C_R   0.645426 0.022434 0.354983 0.799163
C4    C     C_R   0.354574 0.977566 0.645017 0.799154
O9    O     O_R   0.663490 0.691370 0.155500 -0.544780
O10   O     O_R   0.336510 0.308630 0.844500 -0.544771
O11   O     O_R   0.836510 0.191370 0.344500 -0.545040
O12   O     O_R   0.163490 0.808630 0.655500 -0.545041
O13   O     O_R   0.671770 0.863320 0.325740 -0.516765
O14   O     O_R   0.328230 0.136680 0.674260 -0.516768
O15   O     O_R   0.828230 0.363320 0.174260 -0.539131
O16   O     O_R   0.171770 0.636680 0.825740 -0.539123
C5    C     C_R   0.638394 0.517324 0.129508 0.761475
C6    C     C_R   0.361606 0.482676 0.870493 0.761444
C7    C     C_R   0.862761 0.027208 0.369647 0.762803
C8    C     C_R   0.137239 0.972792 0.630353 0.762810
H1    H     H_    0.047739 0.589805 0.373248 0.158350
H2    H     H_    0.952263 0.410189 0.626747 0.158327
H3    H     H_    0.482104 0.910384 0.135209 0.147092
H4    H     H_    0.517894 0.089625 0.864803 0.147081
O17   O     O_3   0.752910 0.528800 0.305860 -0.375640
O18   O     O_3   0.247090 0.471200 0.694140 -0.375643
O19   O     O_3   0.747090 0.028800 0.194140 -0.376648
O20   O     O_3   0.252910 0.971200 0.805860 -0.376635
V1    V     V_3+5 0.749460 0.803010 0.239640 1.559514
V2    V     V_3+5 0.250540 0.196990 0.760360 1.559531
V3    V     V_3+5 0.750540 0.303010 0.260360 1.519096
V4    V     V_3+5 0.249460 0.696990 0.739640 1.519123
C9    C     C_1   0.469387 0.995274 0.530764 0.045692
C10   C     C_1   0.530613 0.004726 0.469236 0.045691
C11   C     C_1   0.030910 0.493692 0.969650 0.042006
C12   C     C_1   0.969089 0.506307 0.030349 0.041998
H5    H     H_    0.820205 0.522217 0.584139 0.194479
H6    H     H_    0.179796 0.477776 0.415856 0.194538
H7    H     H_    0.655977 0.006566 0.899682 0.190396
H8    H     H_    0.344021 0.993442 0.100330 0.190371
C13   C     C_R   0.987647 0.337497 0.407863 -0.152599
C14   C     C_R   0.012354 0.662501 0.592134 -0.152551
C15   C     C_R   0.530172 0.170858 0.093076 -0.137749
C16   C     C_R   0.469826 0.829144 0.906930 -0.137723
C17   C     C_R   0.053813 0.454828 0.402986 -0.216142
C18   C     C_R   0.946188 0.545168 0.597011 -0.216143
C19   C     C_R   0.469160 0.042037 0.104771 -0.226216
C20   C     C_R   0.530838 0.957968 0.895238 -0.226287
C21   C     C_R   0.128140 0.394304 0.430551 -0.112389
C22   C     C_R   0.871861 0.605691 0.569446 -0.112390
C23   C     C_R   0.391432 0.086004 0.081578 -0.127231
C24   C     C_R   0.608566 0.914003 0.918431 -0.127152
C25   C     C_R   0.136601 0.221097 0.469558 0.442540
C26   C     C_R   0.863400 0.778899 0.530440 0.442579
C27   C     C_R   0.374389 0.251877 0.038653 0.448400
C28   C     C_R   0.625609 0.748126 0.961350 0.448376
C29   C     C_R   0.068050 0.116963 0.492217 -0.068100
C30   C     C_R   0.931951 0.883036 0.507782 -0.068106
C31   C     C_R   0.437618 0.368400 0.011479 -0.072151
C32   C     C_R   0.562380 0.631601 0.988524 -0.072198
C33   C     C_R   0.993457 0.161014 0.447800 0.024250
C34   C     C_R   0.006544 0.838985 0.552199 0.024256
C35   C     C_R   0.514946 0.344628 0.053649 0.025554
C36   C     C_R   0.485053 0.655372 0.946354 0.025561
C37   C     C_R   0.072163 0.969670 0.554249 -0.120616
C38   C     C_R   0.927838 0.030329 0.445751 -0.120618
C39   C     C_R   0.425979 0.508533 0.946874 -0.118938
C40   C     C_R   0.574020 0.491467 0.053128 -0.118911
C41   C     C_1   0.417280 0.987250 0.582931 -0.066524
C42   C     C_1   0.582720 0.012749 0.417069 -0.066526
C43   C     C_1   0.083343 0.484007 0.917968 -0.078473
C44   C     C_1   0.916656 0.515993 0.082030 -0.078500
H9    H     H_    0.932616 0.396488 0.385050 0.155979
H10   H     H_    0.067385 0.603510 0.614947 0.155969
H11   H     H_    0.588962 0.123469 0.109392 0.161549
H12   H     H_    0.411036 0.876532 0.890614 0.161554
S1    S     S_3+6 0.228550 0.120234 0.454690 -0.029953
O21   O     O_2   0.293297 0.240765 0.502041 -0.356546
O22   O     O_2   0.232346 0.924425 0.486599 -0.372217
O23   O     O_3   0.241657 0.118862 0.344392 -0.478281
H13   H     H_    0.296689 0.078931 0.339838 0.379381
S2    S     S_3+6 0.771451 0.879761 0.545309 -0.029957
O24   O     O_2   0.767655 0.075570 0.513401 -0.372252
O25   O     O_2   0.706703 0.759231 0.497959 -0.356553
O26   O     O_3   0.758344 0.881129 0.655607 -0.478156
H14   H     H_    0.703322 0.921126 0.660165 0.379380
S3    S     S_3+6 0.277626 0.330142 0.049904 -0.022464
O27   O     O_2   0.266907 0.523743 0.016968 -0.371676
O28   O     O_2   0.218853 0.196881 0.000665 -0.345324
O29   O     O_3   0.261444 0.327938 0.159397 -0.478667
H15   H     H_    0.204907 0.357749 0.161842 0.380365
S4    S     S_3+6 0.722368 0.669846 0.950087 -0.022490
O30   O     O_2   0.781157 0.803081 0.999316 -0.345024
O31   O     O_2   0.733073 0.476237 0.983021 -0.371983
O32   O     O_3   0.738545 0.672048 0.840592 -0.478665
H16   H     H_    0.794894 0.640619 0.838080 0.380333

loop_
_geom_bond_atom_site_label_1
_geom_bond_atom_site_label_2
_ccdc_geom_bond_type
C26   C30   A    
O1    C5    A    
C23   C27   A    
O3    C7    A    
C15   H11   S    
S1    O21   D    
O7    C3    A    
C18   C22   A    
C32   C36   A    
C14   C34   A    
H2    C18   S    
H6    C21   S    
C10   C42   T    
O4    C8    A    
S2    O25   D    
C34   C37   A    
O3    V1    S    
O2    V4    S    
C33   C38   A    
S4    O32   S    
C30   C38   A    
C35   C40   A    
O8    V4    S    
O11   V3    S    
C1    O15   A    
C2    O16   A    
S4    O31   D    
O2    C6    A    
O19   V1    S    
C1    C44   S    
C11   C43   T    
C14   C18   A    
O11   C7    A    
O12   C8    A    
C4    C41   S    
C7    C38   S    
O13   V1    S    
C26   S2    S    
C15   C35   A    
S1    O22   D    
H3    C19   S    
C8    C37   S    
O4    V2    S    
C31   C35   A    
C30   C34   A    
C5    C40   S    
O23   H13   S    
S3    O27   D    
C14   H10   S    
C21   C25   A    
S2    O24   D    
C15   C19   A    
C3    C42   S    
O6    V2    S    
O5    V1    S    
O20   V2    S    
O5    C1    A    
C9    C10   S    
S3    O28   D    
C2    C43   S    
O32   H16   S    
C13   C17   A    
O8    C4    A    
S4    O30   D    
O9    C5    A    
C27   S3    S    
C16   C36   A    
O14   V2    S    
C28   S4    S    
C31   C39   A    
C13   C33   A    
C25   S1    S    
C6    C39   S    
C11   C12   S    
S1    O23   S    
O1    V3    S    
C22   C26   A    
C29   C37   A    
C9    C41   T    
C3    O13   A    
O7    V3    S    
S2    O26   S    
O10   V2    S    
C25   C29   A    
O17   V3    S    
C27   C31   A    
O18   V4    S    
C28   C32   A    
O10   C6    A    
O15   V3    S    
O12   V4    S    
S3    O29   S    
H4    C20   S    
H8    C23   S    
C16   H12   S    
C36   C39   A    
C17   C21   A    
C19   C23   A    
C32   C40   A    
O29   H15   S    
H1    C17   S    
H5    C22   S    
O6    C2    A    
O16   V4    S    
C29   C33   A    
H7    C24   S    
C16   C20   A    
C24   C28   A    
O9    V1    S    
C12   C44   T    
C4    O14   A    
C13   H9    S    
O26   H14   S    
C20   C24   A    
