data_mof_unit_21296.cif
_audit_creation_date              2012-12-10T16:42:58-0500
_audit_creation_method            fapswitch 2.2
_symmetry_space_group_name_H-M    P1
_symmetry_Int_Tables_number       1
_space_group_crystal_system       triclinic
_cell_length_a                    7.458114
_cell_length_b                    8.668543
_cell_length_c                    12.965564
_cell_angle_alpha                 88.139445
_cell_angle_beta                  79.218086
_cell_angle_gamma                 102.790781
_cell_volume                      800.613089295

loop_
_atom_site_label
_atom_site_type_symbol
_atom_type_description
_atom_site_fract_x
_atom_site_fract_y
_atom_site_fract_z
_atom_type_partial_charge
C1    C     C_R   0.452771 0.199680 0.503256 0.884498
C2    C     C_R   0.547228 0.800320 0.496743 0.884506
C3    C     C_R   0.466371 0.494925 0.701358 0.829900
C4    C     C_R   0.533630 0.505078 0.298643 0.829848
C5    C     C_R   0.553269 0.512540 0.185055 -0.151396
C6    C     C_R   0.446733 0.487464 0.814946 -0.151559
C7    C     C_R   0.250125 0.422628 0.989033 0.480934
C8    C     C_R   0.749879 0.577397 0.010965 0.481006
C9    C     C_R   0.269243 0.434041 0.879938 -0.242357
C10   C     C_R   0.730760 0.565956 0.120064 -0.242455
C11   C     C_R   0.606015 0.533097 0.858426 -0.247617
C12   C     C_R   0.393985 0.466926 0.141574 -0.247730
C13   C     C_R   0.589821 0.527512 0.967062 -0.011117
C14   C     C_R   0.410182 0.472508 0.032938 -0.011237
C15   C     C_2   0.426104 0.031775 0.504985 -0.375300
C16   C     C_2   0.573896 0.968225 0.495015 -0.375288
Cu1   Cu    Cu3+1 0.686350 0.517570 0.488220 0.946160
Cu2   Cu    Cu3+1 0.313650 0.482430 0.511780 0.946183
H1    H     H_    0.257566 0.424829 0.192675 0.207114
H2    H     H_    0.742431 0.575207 0.807325 0.207160
H3    H     H_    0.855095 0.599669 0.153613 0.186318
H4    H     H_    0.144906 0.400297 0.846394 0.186399
H5    H     H_    0.933930 0.376509 0.583178 0.224289
H6    H     H_    0.066070 0.623491 0.416822 0.224277
H7    H     H_    0.283654 0.960129 0.514491 0.178832
H8    H     H_    0.716346 0.039871 0.485509 0.178835
N1    N     N_2   0.033570 0.455950 0.529530 -0.218176
N2    N     N_2   0.966430 0.544050 0.470470 -0.218186
O1    O     O_R   0.621060 0.286250 0.492350 -0.583321
O2    O     O_R   0.378940 0.713750 0.507650 -0.583313
O3    O     O_R   0.306310 0.256580 0.512240 -0.588884
O4    O     O_R   0.693690 0.743420 0.487760 -0.588887
O5    O     O_R   0.631800 0.512400 0.642670 -0.594211
O6    O     O_R   0.368200 0.487600 0.357330 -0.594217
O7    O     O_R   0.317060 0.482730 0.662570 -0.584855
O8    O     O_R   0.682940 0.517270 0.337430 -0.584896
O9    O     O_3   0.073688 0.374286 0.052755 -0.565438
C17   C     C_3   0.012038 0.208105 0.052700 0.037435
H9    H     H_    0.112969 0.146570 0.080123 0.132633
H10   H     H_    0.994035 0.172850 0.972770 0.135663
C18   C     C_3   0.822999 0.153490 0.127446 -0.772774
H11   H     H_    0.717728 0.209379 0.100449 0.253731
H12   H     H_    0.774416 0.022502 0.129357 0.184170
H13   H     H_    0.835501 0.187160 0.208191 0.253894
O10   O     O_3   0.926305 0.625767 0.947226 -0.565456
C19   C     C_3   0.988168 0.791898 0.947503 0.037599
H14   H     H_    0.006620 0.826812 0.027439 0.135727
H15   H     H_    0.887142 0.853685 0.920415 0.132524
C20   C     C_3   0.176973 0.846589 0.872534 -0.772684
H16   H     H_    0.225730 0.977541 0.870808 0.184148
H17   H     H_    0.164020 0.813260 0.791773 0.253813
H18   H     H_    0.282355 0.790452 0.899193 0.253755

loop_
_geom_bond_atom_site_label_1
_geom_bond_atom_site_label_2
_ccdc_geom_bond_type
C4    O8    A    
O9    C17   S    
C1    C15   S    
Cu1   O8    S    
H5    N1    S    
C2    C16   S    
C18   H11   S    
C18   H12   S    
C3    O7    A    
C2    O2    A    
C3    C6    S    
N1    N2    D    
C20   H18   S    
C6    C9    A    
C1    O1    A    
Cu1   Cu2   S    
C7    O9    S    
C5    C10   A    
C13   C14   A    
C17   H10   S    
C11   C13   A    
C19   C20   S    
C8    C13   A    
Cu1   O5    S    
C5    C12   A    
Cu2   O2    S    
C12   H1    S    
C8    C10   A    
C12   C14   A    
C19   H15   S    
Cu2   O6    S    
C10   H3    S    
C16   H8    S    
C17   H9    S    
C11   H2    S    
C18   H13   S    
C4    O6    A    
C9    H4    S    
C15   H7    S    
C3    O5    A    
C15   C16   D    
O10   C19   S    
C1    O3    A    
Cu1   O1    S    
C17   C18   S    
C2    O4    A    
C20   H16   S    
Cu2   O7    S    
C6    C11   A    
C7    C9    A    
Cu1   O4    S    
C8    O10   S    
Cu2   O3    S    
C19   H14   S    
Cu1   N2    S    
C7    C14   A    
Cu2   N1    S    
H6    N2    S    
C4    C5    S    
C20   H17   S    
