data_mof_unit_53110.cif
_audit_creation_date              2012-12-10T20:27:52-0500
_audit_creation_method            fapswitch 2.2
_symmetry_space_group_name_H-M    P1
_symmetry_Int_Tables_number       1
_space_group_crystal_system       triclinic
_cell_length_a                    12.8012
_cell_length_b                    10.666273
_cell_length_c                    9.877742
_cell_angle_alpha                 90.123187
_cell_angle_beta                  97.495737
_cell_angle_gamma                 90.08798
_cell_volume                      1337.18699204

loop_
_atom_site_label
_atom_site_type_symbol
_atom_type_description
_atom_site_fract_x
_atom_site_fract_y
_atom_site_fract_z
_atom_type_partial_charge
C1    C     C_R   0.498598 0.260150 0.499843 0.871369
C2    C     C_R   0.025035 0.435951 0.539847 0.161555
C3    C     C_R   0.973511 0.529051 0.452475 0.161602
C4    C     C_R   0.868106 0.553338 0.454753 -0.269788
C5    C     C_R   0.863160 0.401372 0.636114 -0.215278
C6    C     C_R   0.968574 0.374409 0.633510 -0.231337
C7    C     C_R   0.521676 0.064054 0.620722 0.119472
C8    C     C_R   0.488782 0.128341 0.500444 -0.101035
C9    C     C_R   0.440411 0.064555 0.384801 -0.232072
C10   C     C_R   0.439972 0.934799 0.384788 -0.225919
C11   C     C_R   0.487305 0.871448 0.500841 -0.100004
C12   C     C_R   0.298442 0.495575 0.472649 0.867020
C13   C     C_R   0.520508 0.936237 0.621014 0.143166
C14   C     C_3   0.623565 0.928099 0.711024 -0.487792
C15   C     C_3   0.625437 0.070087 0.709897 -0.487993
C16   C     C_R   0.428468 0.429410 0.059033 0.223838
C17   C     C_R   0.564068 0.578149 0.082950 -0.125788
C18   C     C_R   0.564086 0.578145 0.939046 -0.133887
C19   C     C_R   0.428408 0.429410 0.916535 0.229723
C20   C     C_3   0.417454 0.290293 0.909250 -0.515573
C21   C     C_3   0.417357 0.290481 0.062712 -0.525395
C22   C     C_R   0.497949 0.739781 0.499907 0.877645
C23   C     C_R   0.701677 0.499308 0.527221 0.873290
C24   C     C_R   0.813393 0.488236 0.544234 -0.036131
C25   C     C_R   0.186082 0.491202 0.453666 -0.071160
C26   C     C_R   0.027177 0.596698 0.362821 -0.227060
C27   C     C_R   0.133849 0.579709 0.365637 -0.238790
C28   C     C_R   0.131684 0.409863 0.532672 0.026199
H1    H     H_    0.827612 0.621348 0.384963 0.137649
H2    H     H_    0.686675 0.884853 0.659035 0.195170
H3    H     H_    0.619221 0.111759 0.811600 0.198865
H4    H     H_    0.689264 0.109845 0.656511 0.196950
H5    H     H_    0.617411 0.639401 0.146312 0.145964
H6    H     H_    0.617432 0.639348 0.893945 0.143522
H7    H     H_    0.487697 0.243884 0.877064 0.219014
H8    H     H_    0.341107 0.259962 0.852457 0.198453
H9    H     H_    0.340596 0.261404 0.093944 0.194882
H10   H     H_    0.487700 0.243846 0.118626 0.222504
H11   H     H_    0.819299 0.350108 0.704826 0.151764
H12   H     H_    0.987684 0.667006 0.295503 0.144847
H13   H     H_    0.003993 0.305124 0.704668 0.150791
H14   H     H_    0.176661 0.639694 0.303430 0.159976
H15   H     H_    0.407246 0.114201 0.293880 0.162485
H16   H     H_    0.407251 0.884702 0.293426 0.166803
H17   H     H_    0.614709 0.888183 0.812790 0.200974
N1    N     N_R   0.499290 0.499140 0.142710 -0.108433
N2    N     N_R   0.499290 0.499180 0.857070 -0.107931
O1    O     O_R   0.500010 0.316790 0.614690 -0.626820
O2    O     O_R   0.500000 0.316760 0.385350 -0.619680
O3    O     O_R   0.346360 0.499990 0.595720 -0.618668
O4    O     O_R   0.346350 0.499960 0.366370 -0.619961
O5    O     O_R   0.500000 0.683240 0.614650 -0.613694
O6    O     O_R   0.499990 0.683210 0.385310 -0.626385
O7    O     O_R   0.653650 0.500040 0.633630 -0.621987
O8    O     O_R   0.653640 0.500010 0.404280 -0.614020
Zn1   Zn    Zn3+2 0.500010 0.500020 0.653130 0.939811
Zn2   Zn    Zn3+2 0.499990 0.499980 0.346870 0.940870
C29   C     C_3   0.185707 0.295073 0.603169 -0.437681
C30   C     C_3   0.143455 0.172956 0.533529 -0.360765
C31   C     C_3   0.196199 0.058519 0.605430 -0.873395
H18   H     H_    0.282745 0.062140 0.604141 0.268653
H19   H     H_    0.179532 0.054825 0.712940 0.258113
H20   H     H_    0.165139 0.971820 0.552066 0.253889
H21   H     H_    0.057021 0.164852 0.533625 0.229334
H22   H     H_    0.159469 0.172995 0.425544 0.225313
H23   H     H_    0.271721 0.294728 0.599638 0.219997
H24   H     H_    0.176086 0.295294 0.713155 0.192956

loop_
_geom_bond_atom_site_label_1
_geom_bond_atom_site_label_2
_ccdc_geom_bond_type
C12   O3    A    
C23   C24   S    
C1    O1    A    
C23   O8    A    
C16   C21   S    
O4    Zn2   S    
C28   C29   S    
C22   O6    A    
C1    C8    S    
C18   H6    S    
C9    C10   A    
C11   C22   S    
C4    H1    S    
C7    C13   A    
C12   C25   S    
C18   N2    A    
C7    C15   S    
C17   C18   A    
C30   H21   S    
C17   N1    A    
C21   H9    S    
C7    C8    A    
C13   C14   S    
C30   H22   S    
C25   C28   A    
C15   H3    S    
C11   C13   A    
C27   H14   S    
C26   H12   S    
C26   C27   A    
C2    C6    A    
C5    C24   A    
C17   H5    S    
C14   H2    S    
C16   C19   A    
C22   O5    A    
N2    Zn1   S    
C2    C3    A    
C14   H17   S    
O7    Zn1   S    
O8    Zn2   S    
N1    Zn2   S    
C5    C6    A    
C4    C24   A    
C19   N2    A    
C9    H15   S    
C31   H20   S    
C10   C11   A    
C10   H16   S    
C3    C4    A    
C20   H8    S    
O5    Zn1   S    
C29   H24   S    
C30   C31   S    
C12   O4    A    
O2    Zn2   S    
C20   C21   S    
C23   O7    A    
C31   H19   S    
C16   N1    A    
O1    Zn1   S    
C5    H11   S    
O6    Zn2   S    
C14   C15   S    
C31   H18   S    
C2    C28   A    
C29   C30   S    
C20   H7    S    
C1    O2    A    
C29   H23   S    
C3    C26   A    
O3    Zn1   S    
C21   H10   S    
C19   C20   S    
C8    C9    A    
C6    H13   S    
C25   C27   A    
C15   H4    S    
