data_mof_unit_41755.cif
_audit_creation_date              2012-12-11T17:25:01-0500
_audit_creation_method            fapswitch 2.2
_symmetry_space_group_name_H-M    P1
_symmetry_Int_Tables_number       1
_space_group_crystal_system       triclinic
_cell_length_a                    6.952515
_cell_length_b                    20.529893
_cell_length_c                    24.505642
_cell_angle_alpha                 90.064794
_cell_angle_beta                  90.758648
_cell_angle_gamma                 89.742729
_cell_volume                      3497.45395725

loop_
_atom_site_label
_atom_site_type_symbol
_atom_type_description
_atom_site_fract_x
_atom_site_fract_y
_atom_site_fract_z
_atom_type_partial_charge
O1    O     O_R   0.507280 0.423750 0.460310 -0.540825
O2    O     O_R   0.171030 0.555650 0.437630 -0.534339
O3    O     O_R   0.004080 0.576250 0.539690 -0.524812
C1    C     C_R   0.338991 0.575669 0.421785 0.720553
O4    O     O_R   0.177330 0.422980 0.453960 -0.542478
O5    O     O_R   0.010420 0.442640 0.556140 -0.530513
C2    C     C_R   0.345595 0.399101 0.443196 0.681416
O6    O     O_R   0.500930 0.557360 0.443860 -0.533516
O7    O     O_3   0.340310 0.506600 0.533500 -0.356097
V1    V     V_3+5 0.064140 0.498780 0.493780 1.478102
O8    O     O_R   0.680890 0.444350 0.562370 -0.537469
C3    C     C_R   0.850646 0.424344 0.578095 0.747239
O9    O     O_R   0.674590 0.577020 0.546040 -0.534437
C4    C     C_R   0.843910 0.600453 0.557255 0.752839
V2    V     V_3+5 0.564550 0.501220 0.506220 1.478910
O10   O     O_3   0.838250 0.493400 0.466500 -0.372719
C5    C     C_R   0.968325 0.837892 0.911882 -0.052443
C6    C     C_R   0.855985 0.659377 0.591747 -0.076756
C7    C     C_R   0.906493 0.722208 0.910722 -0.148963
C8    C     C_R   0.936838 0.779689 0.939658 -0.165774
C9    C     C_R   0.976777 0.837657 0.854561 -0.161142
C10   C     C_R   0.962740 0.778746 0.824295 0.108149
C11   C     C_R   0.912966 0.721699 0.853503 0.126779
C12   C     C_R   0.977480 0.775482 0.765849 0.011534
C13   C     C_R   0.917302 0.717503 0.737897 0.046570
C14   C     C_R   0.845679 0.665551 0.768854 -0.118442
C15   C     C_R   0.855074 0.665968 0.825407 -0.181273
C16   C     C_R   0.047508 0.827609 0.733846 0.094710
C17   C     C_R   0.998849 0.830642 0.678021 -0.087951
C18   C     C_R   0.926190 0.774981 0.650910 0.031184
C19   C     C_R   0.914925 0.715117 0.679530 0.057393
C20   C     C_R   0.876979 0.776755 0.594931 -0.123822
C21   C     C_R   0.834558 0.719848 0.566487 -0.184456
C22   C     C_R   0.903562 0.656212 0.648075 0.071364
H1    H     H_    0.804384 0.623715 0.847378 0.134830
H2    H     H_    0.799251 0.722750 0.523342 0.140166
H3    H     H_    0.871929 0.678364 0.933086 0.122974
H4    H     H_    0.928068 0.779285 0.983771 0.109919
H5    H     H_    0.981166 0.884183 0.834317 0.142128
H6    H     H_    0.773597 0.624906 0.749792 0.164876
H7    H     H_    0.874087 0.822092 0.572419 0.140433
H8    H     H_    0.618902 0.203350 0.791062 0.116254
C23   C     C_R   0.730001 0.268171 0.730151 -0.143720
H9    H     H_    0.588064 0.281708 0.715208 0.114440
C24   C     C_R   0.894441 0.295057 0.706471 0.133718
C25   C     C_R   0.076699 0.276558 0.726627 -0.139593
H10   H     H_    0.205390 0.296674 0.708918 0.116927
C26   C     C_R   0.094297 0.231852 0.769833 -0.141917
H11   H     H_    0.236235 0.218306 0.784769 0.114298
C27   C     C_R   0.929855 0.204958 0.793509 0.134831
C28   C     C_R   0.747598 0.223468 0.773358 -0.141688
C29   C     C_1   0.876619 0.341090 0.661454 -0.036993
C30   C     C_1   0.947659 0.158872 0.838494 -0.041003
C31   C     C_1   0.960833 0.120653 0.876266 -0.171200
C32   C     C_1   0.863399 0.379246 0.623643 -0.154406
C33   C     C_R   0.583821 0.786940 0.246482 -0.168181
H12   H     H_    0.714970 0.814991 0.243859 0.144161
C34   C     C_R   0.438353 0.795001 0.206717 0.095620
C35   C     C_R   0.269606 0.758087 0.210941 -0.144554
H13   H     H_    0.155309 0.763483 0.180786 0.126452
C36   C     C_R   0.246669 0.713799 0.254085 -0.154372
H14   H     H_    0.115338 0.685784 0.256224 0.153738
C37   C     C_R   0.391565 0.705704 0.294051 0.090180
C38   C     C_R   0.561348 0.742801 0.289929 0.165662
C39   C     C_1   0.461087 0.841044 0.161801 -0.035982
C40   C     C_1   0.365396 0.659378 0.338652 0.032569
C41   C     C_1   0.348921 0.621024 0.376229 -0.138602
C42   C     C_1   0.475765 0.879233 0.124023 -0.188968
C43   C     C_R   0.475577 0.161914 0.088854 -0.043473
C44   C     C_R   0.349652 0.338662 0.410594 -0.044998
C45   C     C_R   0.551627 0.276341 0.094745 -0.149371
C46   C     C_R   0.537802 0.219187 0.064544 -0.165186
C47   C     C_R   0.427374 0.162071 0.144357 -0.202930
C48   C     C_R   0.443728 0.219664 0.176848 0.080542
C49   C     C_R   0.507161 0.277578 0.150799 0.083007
C50   C     C_R   0.402221 0.221379 0.234203 0.057027
C51   C     C_R   0.424857 0.280769 0.264598 0.045774
C52   C     C_R   0.487469 0.336604 0.236701 -0.220621
C53   C     C_R   0.527473 0.335517 0.181171 -0.060056
C54   C     C_R   0.339229 0.165526 0.262280 -0.179889
C55   C     C_R   0.299663 0.167244 0.317603 -0.193275
C56   C     C_R   0.319855 0.224534 0.347602 0.133164
C57   C     C_R   0.383269 0.282432 0.322004 0.094342
C58   C     C_R   0.273997 0.224198 0.403207 -0.153811
C59   C     C_R   0.286862 0.280856 0.434183 -0.165162
C60   C     C_R   0.399041 0.339523 0.355092 -0.211795
H15   H     H_    0.443473 0.385801 0.339063 0.098313
H16   H     H_    0.246105 0.279764 0.476699 0.111340
H17   H     H_    0.251057 0.123002 0.337121 0.132558
H18   H     H_    0.600721 0.319467 0.073827 0.133105
H19   H     H_    0.577594 0.219520 0.021934 0.109933
H20   H     H_    0.383281 0.116045 0.160933 0.094122
H21   H     H_    0.507559 0.382546 0.257200 0.129122
H22   H     H_    0.317845 0.119145 0.242721 0.126017
H23   H     H_    0.224739 0.180023 0.422656 0.124879
O11   O     O_R   0.323320 0.942780 0.056240 -0.536342
O12   O     O_R   0.647300 0.077050 0.046060 -0.539503
O13   O     O_R   0.813840 0.057330 0.943840 -0.534904
C61   C     C_R   0.479143 0.100994 0.056864 0.688706
O14   O     O_R   0.653250 0.944380 0.062400 -0.538197
O15   O     O_R   0.819830 0.923720 0.960300 -0.535133
C62   C     C_R   0.485291 0.924450 0.078322 0.720370
O16   O     O_R   0.317330 0.076390 0.039790 -0.538227
O17   O     O_3   0.483830 0.993470 0.966560 -0.360097
V3    V     V_3+5 0.760140 0.001210 0.006210 1.441038
O18   O     O_R   0.149290 0.922840 0.953850 -0.532352
C63   C     C_R   0.979981 0.899094 0.943157 0.705674
O19   O     O_R   0.143340 0.055500 0.937510 -0.535071
C64   C     C_R   0.973572 0.075496 0.921781 0.730794
V4    V     V_3+5 0.259690 0.998600 0.993650 1.456360
O20   O     O_3   0.986130 0.006520 0.033440 -0.371142
I1    I     I_    0.788386 0.734225 0.348240 -0.457738
C65   C     C_1   0.591393 0.395564 0.156482 0.299192
N1    N     N_1   0.642490 0.443590 0.136811 -0.342392
I2    I     I_    0.016982 0.564962 0.677703 -0.428900
C66   C     C_1   0.039153 0.889679 0.648009 0.379376
N2    N     N_1   0.071229 0.936841 0.624015 -0.314918
I3    I     I_    0.276684 0.890033 0.761906 -0.410788

loop_
_geom_bond_atom_site_label_1
_geom_bond_atom_site_label_2
_ccdc_geom_bond_type
C13   C19   A    
C61   O16   A    
C12   C13   A    
O15   C63   A    
O11   C62   A    
C47   C48   A    
C4    C6    S    
C7    C11   A    
C7    C8    A    
C1    O6    A    
C14   H6    S    
C21   H2    S    
C2    C44   S    
C55   C56   A    
C51   C52   A    
O19   C64   A    
C14   C15   A    
O13   V3    S    
C48   C50   A    
O16   V4    S    
C16   C17   A    
C42   C62   S    
C5    C63   S    
O5    C3    A    
C18   C19   A    
C38   I1    S    
O18   C63   A    
C51   C57   A    
C52   H21   S    
V2    O10   S    
C5    C8    A    
C33   H12   S    
C36   C37   A    
V4    O20   S    
C7    H3    S    
O8    V2    S    
O19   V4    S    
C20   H7    S    
C33   C38   A    
C43   C47   A    
O1    V2    S    
C11   C15   A    
O7    V1    S    
C29   C32   T    
H8    C28   S    
O12   V3    S    
C26   C27   A    
C40   C41   T    
V3    O20   S    
C37   C40   S    
C35   H13   S    
O13   C64   A    
O1    C2    A    
O9    C4    A    
O17   V3    S    
O12   C61   A    
O15   V3    S    
C25   C26   A    
C35   C36   A    
C27   C30   S    
C48   C49   A    
C50   C54   A    
C50   C51   A    
O4    C2    A    
C46   H19   S    
C52   C53   A    
C24   C29   S    
C15   H1    S    
C22   I2    S    
C30   C31   T    
O11   V4    S    
C5    C9    A    
C31   C64   S    
C58   H23   S    
C43   C46   A    
O2    C1    A    
C23   H9    S    
C17   C18   A    
C8    H4    S    
C34   C39   S    
C9    H5    S    
C39   C42   T    
O14   C62   A    
C27   C28   A    
O14   V3    S    
C19   C22   A    
C13   C14   A    
C58   C59   A    
C6    C22   A    
O3    C4    A    
C43   C61   S    
C26   H11   S    
C17   C66   S    
C45   C49   A    
O6    V2    S    
C56   C58   A    
C53   C65   S    
C10   C12   A    
C54   H22   S    
O2    V1    S    
O17   V4    S    
C65   N1    T    
O18   V4    S    
C59   H16   S    
C25   H10   S    
C60   H15   S    
C12   C16   A    
C47   H20   S    
C54   C55   A    
O5    V1    S    
C1    C41   S    
O8    C3    A    
C20   C21   A    
O9    V2    S    
C34   C35   A    
C55   H17   S    
O4    V1    S    
C23   C24   A    
O3    V1    S    
C16   I3    S    
C18   C20   A    
C23   C28   A    
C45   H18   S    
C33   C34   A    
C66   N2    T    
O7    V2    S    
C36   H14   S    
C6    C21   A    
C3    C32   S    
C37   C38   A    
C24   C25   A    
C45   C46   A    
C57   C60   A    
C56   C57   A    
C10   C11   A    
V1    O10   S    
C9    C10   A    
C44   C59   A    
C49   C53   A    
C44   C60   A    
