data_mof_unit_38491.cif
_audit_creation_date              2012-12-10T16:49:27-0500
_audit_creation_method            fapswitch 2.2
_symmetry_space_group_name_H-M    P1
_symmetry_Int_Tables_number       1
_space_group_crystal_system       triclinic
_cell_length_a                    19.239869
_cell_length_b                    8.736469
_cell_length_c                    7.478809
_cell_angle_alpha                 102.926424
_cell_angle_beta                  94.777473
_cell_angle_gamma                 93.124975
_cell_volume                      1217.52045804

loop_
_atom_site_label
_atom_site_type_symbol
_atom_type_description
_atom_site_fract_x
_atom_site_fract_y
_atom_site_fract_z
_atom_type_partial_charge
C1    C     C_R   0.496879 0.200560 0.454601 0.888569
C2    C     C_R   0.503121 0.799440 0.545399 0.888585
C3    C     C_2   0.485645 0.034809 0.434407 -0.077663
C4    C     C_2   0.514355 0.965191 0.565593 -0.077658
C5    C     C_R   0.367697 0.497929 0.501155 0.833684
C6    C     C_R   0.632304 0.502071 0.498845 0.833666
C7    C     C_R   0.262925 0.622593 0.618671 0.118469
C8    C     C_R   0.737075 0.377451 0.381250 0.118462
C9    C     C_R   0.189647 0.623788 0.621210 0.111345
C10   C     C_R   0.810353 0.376261 0.378699 0.111338
C11   C     C_R   0.146317 0.497183 0.507654 -0.035162
C12   C     C_R   0.853684 0.502824 0.492319 -0.035145
C13   C     C_R   0.175279 0.369112 0.394938 0.154154
C14   C     C_R   0.824725 0.630852 0.605113 0.154148
C15   C     C_R   0.248281 0.368674 0.394081 0.094566
C16   C     C_R   0.751724 0.631289 0.605980 0.094586
C17   C     C_R   0.291685 0.496280 0.504320 -0.148026
C18   C     C_R   0.708317 0.503721 0.495677 -0.148045
C19   C     C_R   0.929825 0.500681 0.495146 0.439117
C20   C     C_R   0.070176 0.499323 0.504821 0.439121
Cu1   Cu    Cu3+1 0.507710 0.517380 0.684380 0.973564
Cu2   Cu    Cu3+1 0.492290 0.482620 0.315620 0.973571
N1    N     N_R   0.035739 0.598847 0.419950 -0.235521
N2    N     N_R   0.964261 0.401156 0.580015 -0.235520
N3    N     N_R   0.966532 0.599661 0.415365 -0.237125
N4    N     N_R   0.033468 0.400342 0.584601 -0.237129
N5    N     N_2   0.480680 0.456420 0.038530 0.000736
N6    N     N_2   0.519320 0.543580 0.961470 0.000735
O1    O     O_R   0.505010 0.286130 0.619770 -0.593080
O2    O     O_R   0.494990 0.713870 0.380230 -0.593078
O3    O     O_R   0.491990 0.256780 0.308370 -0.571458
O4    O     O_R   0.508010 0.743220 0.691630 -0.571458
O5    O     O_R   0.406650 0.514660 0.655750 -0.541818
O6    O     O_R   0.593350 0.485340 0.344250 -0.541800
O7    O     O_R   0.393640 0.485310 0.344340 -0.610774
O8    O     O_R   0.606360 0.514690 0.655660 -0.610782
N7    N     N_3   0.309239 0.750295 0.727312 -0.586415
H1    H     H_    0.303326 0.758861 0.866814 0.235877
H2    H     H_    0.296550 0.854929 0.691040 0.219970
N8    N     N_3   0.690760 0.249784 0.272543 -0.586381
H3    H     H_    0.696673 0.241287 0.133055 0.235874
H4    H     H_    0.703448 0.145121 0.308738 0.219973
C21   C     C_3   0.156740 0.757438 0.743746 -0.835710
H5    H     H_    0.124420 0.819967 0.657254 0.247994
H6    H     H_    0.122897 0.709364 0.834583 0.240432
H7    H     H_    0.195042 0.846232 0.834433 0.226375
C22   C     C_3   0.843258 0.242659 0.256085 -0.835744
H8    H     H_    0.875586 0.180095 0.342516 0.247988
H9    H     H_    0.804955 0.153887 0.165372 0.226385
H10   H     H_    0.877094 0.290785 0.165274 0.240444
C23   C     C_3   0.127715 0.235056 0.273788 -0.775912
H11   H     H_    0.090443 0.282194 0.181846 0.226336
H12   H     H_    0.156255 0.146027 0.184379 0.254516
H13   H     H_    0.097910 0.173430 0.361152 0.235707
C24   C     C_3   0.872293 0.764862 0.726332 -0.775927
H14   H     H_    0.843756 0.853865 0.815785 0.254521
H15   H     H_    0.909560 0.717669 0.818233 0.226345
H16   H     H_    0.902105 0.826528 0.639020 0.235700
N9    N     N_3   0.277906 0.235746 0.284920 -0.592617
H17   H     H_    0.313925 0.191864 0.369696 0.218821
H18   H     H_    0.303706 0.272141 0.182403 0.233365
N10   N     N_3   0.722103 0.764181 0.715220 -0.592619
H19   H     H_    0.686081 0.808104 0.630496 0.218839
H20   H     H_    0.696310 0.727738 0.817716 0.233363
N11   N     N_3   0.437321 0.953529 0.280397 -0.602177
H21   H     H_    0.464020 0.881630 0.182071 0.262952
H22   H     H_    0.398083 0.888034 0.325672 0.228448
N12   N     N_3   0.562679 0.046471 0.719603 -0.602180
H23   H     H_    0.535979 0.118370 0.817930 0.262953
H24   H     H_    0.601916 0.111966 0.674328 0.228439
N13   N     N_3   0.427378 0.360768 0.924671 -0.416442
H25   H     H_    0.380304 0.398594 0.972397 0.210738
H26   H     H_    0.431489 0.247313 0.945854 0.204151
N14   N     N_3   0.572622 0.639231 0.075329 -0.416439
H27   H     H_    0.619696 0.601401 0.027609 0.210727
H28   H     H_    0.568513 0.752685 0.054142 0.204153

loop_
_geom_bond_atom_site_label_1
_geom_bond_atom_site_label_2
_ccdc_geom_bond_type
C8    N8    S    
C2    C4    S    
C24   H14   S    
C8    C10   A    
C15   N9    S    
N10   H19   S    
Cu1   O5    S    
C9    C11   A    
N9    H18   S    
C22   H8    S    
N11   H22   S    
C20   N1    A    
C1    O3    A    
C2    O2    A    
C23   H13   S    
N6    N14   S    
C1    C3    S    
C24   H15   S    
C19   N2    A    
C7    N7    S    
N9    H17   S    
C22   H9    S    
Cu1   O8    S    
Cu1   Cu2   S    
Cu2   O7    S    
C21   H6    S    
C1    O1    A    
C3    N11   S    
C16   N10   S    
C21   H5    S    
Cu2   O6    S    
C5    O7    A    
C12   C19   S    
C2    O4    A    
N8    H3    S    
C21   H7    S    
N7    H1    S    
C6    O8    A    
C14   C24   S    
C22   H10   S    
C10   C12   A    
Cu2   N5    S    
N1    N3    A    
C13   C15   A    
N7    H2    S    
Cu1   O4    S    
C14   C16   A    
C6    C18   S    
C9    C21   S    
C11   C13   A    
C5    C17   S    
Cu2   O3    S    
N14   H28   S    
C19   N3    A    
C23   H11   S    
C12   C14   A    
C7    C9    A    
C20   N4    A    
N13   H25   S    
N5    N13   S    
C4    N12   S    
N11   H21   S    
N14   H27   S    
C24   H16   S    
N13   H26   S    
N5    N6    D    
C15   C17   A    
N12   H24   S    
N12   H23   S    
N10   H20   S    
Cu2   O2    S    
C7    C17   A    
C13   C23   S    
C10   C22   S    
Cu1   O1    S    
C11   C20   S    
Cu1   N6    S    
C16   C18   A    
C8    C18   A    
C3    C4    D    
C6    O6    A    
N2    N4    A    
N8    H4    S    
C23   H12   S    
C5    O5    A    
