data_mof_unit_37699.cif
_audit_creation_date              2012-12-11T19:47:07-0500
_audit_creation_method            fapswitch 2.2
_symmetry_space_group_name_H-M    P1
_symmetry_Int_Tables_number       1
_space_group_crystal_system       triclinic
_cell_length_a                    8.296148
_cell_length_b                    15.049221
_cell_length_c                    18.720025
_cell_angle_alpha                 101.465113
_cell_angle_beta                  91.514578
_cell_angle_gamma                 98.746653
_cell_volume                      2260.05444123

loop_
_atom_site_label
_atom_site_type_symbol
_atom_type_description
_atom_site_fract_x
_atom_site_fract_y
_atom_site_fract_z
_atom_type_partial_charge
Ba1   Ba    Ba6+2 0.853520 0.540910 0.466490 1.665930
Ba2   Ba    Ba6+2 0.336320 0.459170 0.533520 1.663395
C1    C     C_3   0.579414 0.825281 0.239698 -0.231316
C2    C     C_3   0.630837 0.773369 0.296509 0.352432
C3    C     C_3   0.470400 0.303106 0.300420 0.297538
C4    C     C_3   0.455942 0.260782 0.217746 -0.078243
C5    C     C_3   0.003982 0.231587 0.723267 0.303657
C6    C     C_3   0.094396 0.303465 0.786421 -0.218589
C7    C     C_3   0.513464 0.221753 0.727460 0.279297
C8    C     C_3   0.449400 0.155476 0.778623 -0.147648
C9    C     C_R   0.996763 0.456666 0.047128 0.017534
C10   C     C_R   0.906713 0.406315 0.093196 -0.078980
C11   C     C_R   0.774531 0.417052 0.949339 -0.044517
C12   C     C_3   0.120356 0.718195 0.271579 0.356335
C13   C     C_R   0.935792 0.457079 0.975320 0.008980
C14   C     C_R   0.717887 0.415304 0.878615 -0.056005
C15   C     C_R   0.819847 0.450935 0.829415 -0.040651
C16   C     C_R   0.977189 0.498848 0.855245 -0.012157
C17   C     C_R   0.035442 0.502354 0.928718 0.019307
C18   C     C_R   0.769279 0.439346 0.755152 -0.014788
C19   C     C_R   0.878123 0.473485 0.706792 -0.254428
C20   C     C_R   0.027086 0.530186 0.732387 0.032026
C21   C     C_R   0.076305 0.543263 0.807836 -0.053994
C22   C     C_R   0.155476 0.504007 0.072857 0.010311
C23   C     C_3   0.097334 0.738899 0.195900 -0.357179
C24   C     C_R   0.212035 0.506642 0.146416 -0.006083
C25   C     C_R   0.111089 0.462477 0.193788 -0.045458
C26   C     C_R   0.963093 0.408743 0.164140 -0.029287
C27   C     C_R   0.219004 0.601765 0.838395 0.014206
C28   C     C_R   0.270507 0.609480 0.911022 -0.082292
C29   C     C_R   0.192014 0.551820 0.954891 0.009216
C30   C     C_R   0.258892 0.546888 0.025298 0.020206
C31   C     C_R   0.426669 0.578741 0.049770 0.055715
C32   C     C_R   0.371878 0.550221 0.171724 -0.058197
C33   C     C_R   0.476632 0.583794 0.122518 -0.100074
C34   C     C_3   0.316875 0.758322 0.674763 0.297915
C35   C     C_R   0.426915 0.553553 0.244474 -0.015470
C36   C     C_R   0.320446 0.517428 0.292397 -0.285143
C37   C     C_R   0.163892 0.470290 0.268366 0.051063
C38   C     C_R   0.851617 0.171936 0.546126 -0.046785
C39   C     C_R   0.787313 0.077393 0.538026 -0.044096
C40   C     C_R   0.651466 0.888377 0.523876 -0.046170
C41   C     C_R   0.801769 0.926266 0.562967 0.024716
C42   C     C_R   0.871189 0.017534 0.567212 -0.094708
C43   C     C_R   0.584061 0.793748 0.515123 0.020578
C44   C     C_R   0.432389 0.761023 0.476560 -0.279111
C45   C     C_3   0.399433 0.816846 0.746468 -0.363620
C46   C     C_R   0.612648 0.193848 0.477046 0.016818
C47   C     C_R   0.545803 0.100457 0.469455 -0.020680
C48   C     C_R   0.632675 0.041940 0.500488 0.056165
C49   C     C_R   0.392746 0.064485 0.433041 -0.038466
C50   C     C_R   0.323280 0.974021 0.429327 -0.082315
C51   C     C_R   0.408512 0.913699 0.457429 -0.027601
C52   C     C_R   0.565060 0.947598 0.493227 0.031686
C53   C     C_R   0.341466 0.820400 0.450149 0.012402
C54   C     C_R   0.760890 0.228976 0.517256 -0.287780
C55   C     C_3   0.903432 0.233222 0.317351 0.347020
C56   C     C_3   0.854435 0.168414 0.242552 -0.184032
C57   C     C_3   0.779350 0.716246 0.700750 0.189802
C58   C     C_3   0.841250 0.787974 0.771870 -0.175694
H1    H     H_    0.711498 0.821939 0.340192 0.066710
H2    H     H_    0.424298 0.774172 0.785779 0.108508
H3    H     H_    0.516450 0.857771 0.736612 0.141071
H4    H     H_    0.319660 0.865508 0.772292 0.141461
H5    H     H_    0.801872 0.269579 0.337399 0.025988
H6    H     H_    0.814566 0.208647 0.203744 0.081318
H7    H     H_    0.962858 0.140527 0.219802 0.120810
H8    H     H_    0.882412 0.692165 0.670973 0.089149
H9    H     H_    0.689702 0.856007 0.215359 0.127967
H10   H     H_    0.732959 0.804025 0.802763 0.068613
H11   H     H_    0.520470 0.745791 0.322595 -0.064165
H12   H     H_    0.359440 0.332711 0.317209 0.042252
H13   H     H_    0.578232 0.358255 0.312905 0.038362
H14   H     H_    0.552670 0.218065 0.205826 0.127469
H15   H     H_    0.500532 0.776644 0.195457 0.112211
H16   H     H_    0.128007 0.682143 0.153745 0.072021
H17   H     H_    0.904835 0.262241 0.701046 -0.156513
H18   H     H_    0.150012 0.364950 0.766315 0.130004
H19   H     H_    0.008652 0.322680 0.828857 0.090168
H20   H     H_    0.190900 0.275590 0.812764 0.122959
H21   H     H_    0.648093 0.238623 0.736347 -0.090120
H22   H     H_    0.313972 0.140265 0.770972 0.047837
H23   H     H_    0.036599 0.654101 0.274161 0.099896
H24   H     H_    0.838634 0.464201 0.649886 0.068349
H25   H     H_    0.592703 0.384731 0.863240 0.099616
H26   H     H_    0.888048 0.367083 0.195058 0.073272
H27   H     H_    0.291178 0.643802 0.807135 0.088831
H28   H     H_    0.602991 0.611098 0.139145 0.108812
H29   H     H_    0.363773 0.520995 0.348065 0.076445
H30   H     H_    0.685783 0.388690 0.983084 0.084122
H31   H     H_    0.792487 0.361807 0.075527 0.072048
H32   H     H_    0.370674 0.663324 0.932152 0.079877
H33   H     H_    0.248568 0.707756 0.279643 -0.077848
H34   H     H_    0.869549 0.886569 0.590846 0.140165
H35   H     H_    0.989960 0.040894 0.595456 0.113378
H36   H     H_    0.203641 0.951900 0.401862 0.097967
H37   H     H_    0.322379 0.105540 0.407551 0.102258
H38   H     H_    0.379230 0.689662 0.471541 0.076988
H39   H     H_    0.811069 0.300831 0.522393 0.071057
H40   H     H_    0.968741 0.746814 0.185026 0.151274
H41   H     H_    0.178059 0.803258 0.191540 0.112782
H42   H     H_    0.397335 0.712568 0.646676 0.023581
O1    O     O_2   0.871960 0.437280 0.322960 -0.493605
O2    O     O_3   0.685645 0.758637 0.658281 -0.662215
O3    O     O_3   0.084235 0.792031 0.324109 -0.610175
O4    O     O_2   0.317750 0.562750 0.677090 -0.485213
O5    O     O_3   0.068300 0.555620 0.587560 -0.469517
O6    O     O_3   0.528270 0.392500 0.627460 -0.472397
O7    O     O_3   0.167830 0.709907 0.689923 -0.627383
O8    O     O_3   0.609290 0.386840 0.459690 -0.480648
O9    O     O_3   0.105700 0.342700 0.589730 -0.461056
O10   O     O_2   0.185055 0.180004 0.536011 -0.449706
O11   O     O_3   0.116661 0.204595 0.671518 -0.591288
O12   O     O_3   0.121410 0.444460 0.412450 -0.465990
O13   O     O_3   0.580430 0.613240 0.540320 -0.491423
O14   O     O_2   0.337390 0.273050 0.457610 -0.441741
O15   O     O_3   0.490203 0.232466 0.337091 -0.678160
O16   O     O_2   0.456337 0.474697 0.755604 -0.482295
O17   O     O_3   0.440190 0.301325 0.745851 -0.626770
O18   O     O_3   0.661450 0.607570 0.372550 -0.465221
O19   O     O_2   0.759505 0.535432 0.244554 -0.498833
O20   O     O_3   0.043031 0.292688 0.307060 -0.660184
O21   O     O_3   0.720944 0.706436 0.262280 -0.604537
O22   O     O_2   0.852310 0.726980 0.542430 -0.414859
O23   O     O_3   0.084010 0.657370 0.410280 -0.478394
O24   O     O_2   0.004775 0.820202 0.458922 -0.438806
P1    P     P_3+3 0.039430 0.410940 0.333230 0.969716
P2    P     P_3+3 0.676770 0.715000 0.563590 0.980843
P3    P     P_3+3 0.130182 0.773703 0.411429 1.000225
P4    P     P_3+3 0.150290 0.589140 0.666780 0.988328
P5    P     P_3+3 0.060911 0.224156 0.585637 0.988844
P6    P     P_3+3 0.640649 0.598876 0.279304 0.942922
P7    P     P_3+3 0.516035 0.271807 0.431745 0.931642
P8    P     P_3+3 0.552845 0.398437 0.721134 0.923222
C59   C     C_3   0.954421 0.179375 0.372926 -0.298577
H43   H     H_    0.005268 0.228310 0.423590 0.116420
H44   H     H_    0.849211 0.131393 0.385568 0.039562
H45   H     H_    0.051144 0.139210 0.351757 0.107211
C60   C     C_3   0.723390 0.086138 0.244257 -0.505803
H46   H     H_    0.672893 0.054559 0.187850 0.146778
H47   H     H_    0.778579 0.033819 0.266440 0.141258
H48   H     H_    0.622649 0.106166 0.278134 0.170471
C61   C     C_3   0.668715 0.635299 0.719793 -0.306264
H49   H     H_    0.635140 0.580735 0.670232 0.152367
H50   H     H_    0.728258 0.607498 0.761597 0.013654
H51   H     H_    0.557857 0.657569 0.743701 0.128357
C62   C     C_2   0.925244 0.876121 0.753972 0.621467
H52   H     H_    0.035251 0.877348 0.724193 0.027561
O25   O     O_2   0.869904 0.947043 0.773345 -0.553747
C63   C     C_2   0.949036 0.753157 0.823146 0.406135
H53   H     H_    0.899681 0.696160 0.847648 0.000703
O26   O     O_2   0.089142 0.790882 0.841258 -0.588696
C64   C     C_3   0.485688 0.901063 0.273419 -0.517446
H54   H     H_    0.561522 0.950084 0.318304 0.132450
H55   H     H_    0.451203 0.938145 0.231161 0.152755
H56   H     H_    0.372714 0.871342 0.295630 0.152298
C65   C     C_3   0.292684 0.197415 0.194787 -0.353315
H57   H     H_    0.266894 0.148464 0.231889 0.135420
H58   H     H_    0.192483 0.238519 0.195129 0.136054
H59   H     H_    0.296563 0.157012 0.138494 0.119011
C66   C     C_3   0.482347 0.332885 0.170507 -0.491885
H60   H     H_    0.377960 0.370466 0.173144 0.132231
H61   H     H_    0.596515 0.381478 0.188726 0.143011
H62   H     H_    0.492043 0.299255 0.112661 0.145830
C67   C     C_2   0.927574 0.147873 0.749736 0.535905
H63   H     H_    0.876610 0.087187 0.710105 0.063439
O27   O     O_2   0.923523 0.146135 0.814659 -0.518016
C68   C     C_2   0.469081 0.179912 0.648003 0.635743
H64   H     H_    0.509959 0.219197 0.607955 -0.053700
O28   O     O_2   0.383650 0.104862 0.627901 -0.562207
C69   C     C_2   0.508153 0.063461 0.764818 0.562844
H65   H     H_    0.481298 0.018833 0.803342 0.006310
O29   O     O_2   0.582976 0.037302 0.711516 -0.598090
C70   C     C_2   0.490505 0.201192 0.857479 0.431755
H66   H     H_    0.398593 0.231346 0.889964 0.006335
O30   O     O_2   0.627575 0.206747 0.885186 -0.547147
C71   C     C_3   0.564221 0.595957 0.000221 -0.425130
H67   H     H_    0.536069 0.554053 0.944280 0.127724
H68   H     H_    0.594007 0.670337 0.000045 0.117067
H69   H     H_    0.677412 0.575568 0.020319 0.117203
C72   C     C_2   0.285250 0.823479 0.626832 0.404060
H70   H     H_    0.383675 0.875461 0.617649 0.018389
O31   O     O_2   0.149577 0.820590 0.599170 -0.562719

loop_
_geom_bond_atom_site_label_1
_geom_bond_atom_site_label_2
_ccdc_geom_bond_type
C56   C60   S    
C8    C70   S    
C59   H45   S    
C69   H65   S    
C49   H37   S    
C67   H63   S    
C11   H30   S    
C61   H51   S    
C32   C35   A    
C38   C54   A    
Ba2   O5    S    
C10   H31   S    
C62   H52   S    
Ba1   P2    S    
C46   C54   A    
O15   P7    S    
C66   H62   S    
C45   H2    S    
C66   H60   S    
C5    C6    S    
C51   C52   A    
C13   C17   A    
C69   O29   D    
C36   H29   S    
C24   C25   A    
C48   C52   A    
C10   C26   A    
C57   O2    S    
C21   C27   A    
C1    H9    S    
C35   C36   A    
C22   C24   A    
Ba1   Ba2   S    
C3    H12   S    
C45   H3    S    
C3    C4    S    
O21   P6    S    
C60   H48   S    
C68   O28   D    
C43   P2    S    
C61   H49   S    
C61   H50   S    
C9    C22   A    
C1    C64   S    
C41   H34   S    
C34   C45   S    
C34   H42   S    
C32   C33   A    
Ba2   O13   S    
O20   P1    S    
C70   H66   S    
Ba2   P4    S    
C55   O20   S    
Ba2   O14   S    
C24   C32   A    
C12   O3    S    
C25   C37   A    
C14   C15   A    
C53   P3    S    
C44   C53   A    
C6    H19   S    
C4    C66   S    
C58   C62   S    
C64   H55   S    
C1    H15   S    
C7    C8    S    
Ba1   O1    S    
C12   H33   S    
O16   P8    D    
O22   P2    D    
C51   C53   A    
C44   H38   S    
C17   C29   A    
C57   C58   S    
C65   H58   S    
C19   C20   A    
C20   P4    S    
C6    H18   S    
C9    C13   A    
C12   H23   S    
O5    P4    S    
C20   C21   A    
C66   H61   S    
C56   H6    S    
C4    H14   S    
C72   O31   D    
Ba2   O9    S    
O17   P8    S    
C37   P1    S    
C31   C71   S    
C16   C21   A    
C46   P7    S    
C59   H43   S    
C28   H32   S    
C45   H4    S    
O4    P4    D    
C16   C17   A    
O3    P3    S    
O14   P7    D    
O24   P3    D    
C47   C49   A    
C8    C69   S    
C72   H70   S    
C2    H1    S    
Ba2   O4    S    
O13   P2    S    
C49   C50   A    
C2    O21   S    
C3    O15   S    
C40   C43   A    
C41   C42   A    
C22   C30   A    
O6    P8    S    
C27   C28   A    
O23   P3    S    
C57   H8    S    
C33   H28   S    
C23   H40   S    
C29   C30   A    
O2    P2    S    
C19   H24   S    
C58   H10   S    
C28   C29   A    
C60   H46   S    
C71   H69   S    
C15   C16   A    
C58   C63   S    
C64   H56   S    
Ba2   O12   S    
Ba1   O5    S    
O9    P5    S    
C68   H64   S    
C38   P5    S    
C47   C48   A    
C65   H59   S    
C11   C13   A    
C26   H26   S    
C14   H25   S    
C7    O17   S    
C39   C42   A    
C63   O26   D    
Ba1   O12   S    
O19   P6    D    
C1    C2    S    
C39   C48   A    
O7    P4    S    
C4    C65   S    
O1    P1    D    
C50   C51   A    
C59   H44   S    
Ba2   O8    S    
O11   P5    S    
C62   O25   D    
O18   P6    S    
C15   C18   A    
C7    C68   S    
Ba1   P1    S    
C55   H5    S    
C8    H22   S    
C9    C10   A    
O10   P5    D    
C3    H13   S    
C65   H57   S    
C35   P6    S    
C5    H17   S    
Ba1   O23   S    
C23   H16   S    
C30   C31   A    
C5    O11   S    
Ba1   O22   S    
C42   H35   S    
C40   C52   A    
O12   P1    S    
C60   H47   S    
C23   H41   S    
C55   C56   S    
C36   C37   A    
C46   C47   A    
Ba2   O6    S    
C31   C33   A    
C71   H68   S    
C50   H36   S    
C12   C23   S    
C5    C67   S    
C70   O30   D    
C27   H27   S    
Ba1   O8    S    
C57   C61   S    
C43   C44   A    
C56   H7    S    
C18   C19   A    
C67   O27   D    
C71   H67   S    
C40   C41   A    
C11   C14   A    
C34   O7    S    
C6    H20   S    
C63   H53   S    
C55   C59   S    
O8    P7    S    
C38   C39   A    
C34   C72   S    
Ba1   O13   S    
C54   H39   S    
C18   P8    S    
C64   H54   S    
Ba1   O18   S    
C2    H11   S    
C7    H21   S    
C25   C26   A    
