data_mof_unit_56797.cif
_audit_creation_date              2013-03-05T16:43:42-0500
_audit_creation_method            fapswitch 2.2
_symmetry_space_group_name_H-M    P1
_symmetry_Int_Tables_number       1
_space_group_crystal_system       triclinic
_cell_length_a                    15.718466
_cell_length_b                    10.69955
_cell_length_c                    9.906915
_cell_angle_alpha                 88.901404
_cell_angle_beta                  89.068752
_cell_angle_gamma                 90.738972
_cell_volume                      1665.47834906

loop_
_atom_site_label
_atom_site_type_symbol
_atom_site_description
_atom_site_fract_x
_atom_site_fract_y
_atom_site_fract_z
_atom_type_partial_charge
O1    O     O_R   0.500010 0.316790 0.614690 -0.617442
O2    O     O_R   0.500000 0.316760 0.385350 -0.627430
C1    C     C_R   0.503012 0.259797 0.500617 0.874752
O3    O     O_R   0.376780 0.500010 0.614650 -0.612597
O4    O     O_R   0.376770 0.499970 0.385310 -0.606323
C2    C     C_R   0.338061 0.499586 0.500950 0.896264
Zn1   Zn    Zn3+2 0.500010 0.500020 0.653130 0.945488
Zn2   Zn    Zn3+2 0.499990 0.499980 0.346870 0.944060
O5    O     O_R   0.500000 0.683240 0.614650 -0.616795
O6    O     O_R   0.499990 0.683210 0.385310 -0.629644
O7    O     O_R   0.623230 0.500030 0.614690 -0.617191
O8    O     O_R   0.623220 0.499990 0.385350 -0.617727
C3    C     C_R   0.503618 0.739842 0.498719 0.875453
C4    C     C_R   0.661975 0.500058 0.499023 0.901877
C5    C     C_3   0.968622 0.393023 0.568484 -0.211480
C6    C     C_3   0.026723 0.391189 0.442429 0.340039
H1    H     H_    0.941840 0.309987 0.623939 0.166437
H2    H     H_    0.950953 0.485650 0.263077 0.160104
C7    C     C_1   0.249219 0.497104 0.502872 -0.172436
C8    C     C_1   0.750855 0.498388 0.496829 -0.186905
C9    C     C_3   0.025611 0.497858 0.627346 -0.254077
C10   C     C_3   0.083114 0.493090 0.500447 0.079838
C11   C     C_3   0.971723 0.599338 0.555905 -0.132839
C12   C     C_3   0.916894 0.494607 0.496464 0.113015
C13   C     C_3   0.029986 0.592831 0.429532 0.171524
C14   C     C_3   0.973429 0.489760 0.368585 -0.238326
C15   C     C_1   0.173968 0.494806 0.502691 0.021657
C16   C     C_1   0.826125 0.496570 0.495973 -0.024920
H3    H     H_    0.947089 0.685806 0.601845 0.149519
H4    H     H_    0.048497 0.501282 0.732653 0.165861
C17   C     C_R   0.531548 0.060760 0.618068 0.138881
C18   C     C_R   0.518089 0.128332 0.498954 -0.100617
C19   C     C_R   0.523687 0.067108 0.374681 -0.205697
H5    H     H_    0.521158 0.117461 0.279090 0.164620
C20   C     C_R   0.524187 0.937865 0.373211 -0.227022
H6    H     H_    0.521347 0.891507 0.277094 0.171420
C21   C     C_R   0.519445 0.871023 0.496064 -0.105230
C22   C     C_R   0.532090 0.933018 0.616394 0.134027
C23   C     C_3   0.486176 0.919508 0.748920 -0.457470
C24   C     C_3   0.485340 0.060700 0.750878 -0.511686
H7    H     H_    0.421635 0.876786 0.740400 0.213224
H8    H     H_    0.526641 0.877248 0.828244 0.203500
H9    H     H_    0.420126 0.098938 0.743069 0.214129
H10   H     H_    0.525846 0.098636 0.831764 0.198757
C25   C     C_R   0.431917 0.452513 0.074391 0.137256
N1    N     N_R   0.499430 0.499140 0.142800 -0.121834
C26   C     C_R   0.562666 0.560582 0.067182 0.201250
C27   C     C_R   0.562210 0.559401 0.923664 -0.142243
H11   H     H_    0.613121 0.604428 0.865263 0.161113
N2    N     N_R   0.499430 0.499180 0.857150 -0.136562
C28   C     C_R   0.431513 0.453627 0.931794 0.162426
C29   C     C_3   0.397453 0.322887 0.929798 -0.086675
C30   C     C_3   0.398303 0.321362 0.084429 -0.117766
H12   H     H_    0.445210 0.260090 0.886968 0.158180
H13   H     H_    0.445898 0.255484 0.125580 0.154177
N3    N     N_R   0.055888 0.276614 0.380481 0.206764
O9    O     O_R   0.000634 0.197038 0.335018 -0.393226
O10   O     O_R   0.136645 0.252958 0.370289 -0.419625
C31   C     C_3   0.635619 0.626735 0.132098 -0.819281
H14   H     H_    0.613201 0.684722 0.216177 0.264426
H15   H     H_    0.682801 0.557493 0.166589 0.252173
H16   H     H_    0.669171 0.691181 0.059183 0.193911
C32   C     C_3   0.310726 0.311876 0.861921 -0.801935
H17   H     H_    0.280538 0.220193 0.888988 0.238764
H18   H     H_    0.267578 0.388473 0.891744 0.244845
H19   H     H_    0.319705 0.315199 0.750701 0.252968
C33   C     C_3   0.312070 0.310159 0.158792 -0.687964
H20   H     H_    0.279864 0.221132 0.132777 0.246076
H21   H     H_    0.322227 0.307394 0.269223 0.255665
H22   H     H_    0.270067 0.389800 0.133856 0.239516
C34   C     C_3   0.065700 0.706018 0.351555 -0.859301
H23   H     H_    0.012635 0.762336 0.311436 0.254195
H24   H     H_    0.104406 0.764308 0.419486 0.251530
H25   H     H_    0.106313 0.674686 0.266327 0.240585

loop_
_geom_bond_atom_site_label_1
_geom_bond_atom_site_label_2
_geom_bond_distance
_ccdc_geom_bond_type
C32   H18   1.111790 S    
C20   H6    1.083360 S    
H2    C14   1.110262 S    
C23   H7    1.112458 S    
C25   N1    1.362726 A    
C17   C24   1.492520 S    
Zn1   O7    1.967827 S    
C2    C7    1.396187 S    
C11   H3    1.110251 S    
C20   C21   1.400234 A    
C12   C14   1.537683 S    
C22   C23   1.491564 S    
O7    C4    1.288906 A    
C25   C28   1.412639 A    
C5    C6    1.535681 S    
N3    O9    1.300172 A    
C5    H1    1.110175 S    
O5    C3    1.288189 A    
C24   H9    1.111891 S    
C17   C18   1.392594 A    
C10   C13   1.530733 S    
C11   C12   1.536917 S    
C13   C34   1.520210 S    
C7    C15   1.182809 T    
C3    C21   1.421955 S    
C27   N2    1.358009 A    
C32   H19   1.108407 S    
C25   C30   1.493998 S    
C31   H14   1.104013 S    
C9    C10   1.538442 S    
O3    Zn1   1.980213 S    
C29   H12   1.099354 S    
C19   H5    1.082073 S    
C23   H8    1.112021 S    
C30   H13   1.111401 S    
C6    C14   1.537009 S    
C31   H15   1.108305 S    
C33   H20   1.109620 S    
C4    C8    1.397234 S    
O3    C2    1.289047 A    
C23   C24   1.511413 S    
C34   H24   1.109794 S    
C8    C16   1.183425 T    
C13   C14   1.545565 S    
C29   C32   1.533988 S    
C28   C29   1.491945 S    
O1    C1    1.294861 A    
C6    N3    1.457339 S    
C21   C22   1.391116 A    
C34   H25   1.109814 S    
C26   C27   1.422247 A    
C24   H10   1.111155 S    
Zn2   O8    1.980214 S    
N2    C28   1.367903 A    
C27   H11   1.082396 S    
O8    C4    1.289034 A    
C10   C15   1.428494 S    
C9    C11   1.552768 S    
C29   C30   1.531976 S    
Zn1   O5    1.989910 S    
N1    C26   1.386162 A    
C5    C12   1.537364 S    
C31   H16   1.111107 S    
C6    C10   1.523310 S    
O1    Zn1   2.004278 S    
O2    Zn2   1.989908 S    
C12   C16   1.427259 S    
Zn1   N2    2.020928 S    
O6    C3    1.288423 A    
O4    Zn2   1.967829 S    
C9    H4    1.110174 S    
C17   C22   1.367343 A    
C33   H22   1.111195 S    
C18   C19   1.407661 A    
O2    C1    1.285906 A    
C34   H23   1.109664 S    
O4    C2    1.288326 A    
C19   C20   1.383323 A    
N3    O10   1.300260 A    
C11   C13   1.542295 S    
C1    C18   1.429814 S    
C30   C33   1.534375 S    
Zn2   N1    2.022058 S    
C26   C31   1.500005 S    
C32   H17   1.110465 S    
C5    C9    1.554607 S    
Zn2   O6    2.004278 S    
C33   H21   1.108069 S    
