data_mof_unit_23871.cif
_audit_creation_date              2012-12-10T17:02:57-0500
_audit_creation_method            fapswitch 2.2
_symmetry_space_group_name_H-M    P1
_symmetry_Int_Tables_number       1
_space_group_crystal_system       triclinic
_cell_length_a                    9.814292
_cell_length_b                    11.002403
_cell_length_c                    13.545131
_cell_angle_alpha                 93.578519
_cell_angle_beta                  82.894793
_cell_angle_gamma                 110.985635
_cell_volume                      1354.85321685

loop_
_atom_site_label
_atom_site_type_symbol
_atom_type_description
_atom_site_fract_x
_atom_site_fract_y
_atom_site_fract_z
_atom_type_partial_charge
C1    C     C_R   0.557669 0.745715 0.502571 0.894154
C2    C     C_R   0.435553 0.453997 0.968039 0.111789
C3    C     C_R   0.476545 0.449057 0.864199 0.074559
C4    C     C_R   0.542834 0.470483 0.034592 -0.001668
C5    C     C_R   0.692594 0.505574 0.996618 0.076709
C6    C     C_R   0.726727 0.482247 0.895966 -0.197344
C7    C     C_R   0.617456 0.443928 0.832564 -0.181070
C8    C     C_R   0.505841 0.449444 0.137086 0.172346
C9    C     C_R   0.762744 0.557965 0.163642 -0.290035
C10   C     C_R   0.376552 0.451912 0.796579 -0.107516
C11   C     C_2   0.588005 0.885102 0.502567 -0.367752
C12   C     C_R   0.422131 0.477292 0.689394 0.794411
C13   C     C_2   0.511206 0.936637 0.453633 0.211849
C14   C     C_2   0.420520 0.116690 0.473862 -0.314924
C15   C     C_2   0.532129 0.073717 0.472229 -0.192645
C16   C     C_2   0.924209 0.495114 0.489193 0.021179
C17   C     C_2   0.082460 0.517838 0.501235 0.052316
C18   C     C_R   0.445148 0.254533 0.490095 0.833171
C19   C     C_R   0.574945 0.506597 0.310032 0.826966
C20   C     C_R   0.803248 0.554491 0.061253 0.253152
C21   C     C_R   0.615213 0.504148 0.202312 -0.122766
C22   C     C_R   0.232697 0.440616 0.833544 -0.175782
C23   C     C_R   0.190951 0.438858 0.935079 -0.155437
C24   C     C_R   0.292572 0.452347 0.001612 -0.132340
Cu1   Cu    Cu3+1 0.362000 0.479240 0.482530 1.010142
Cu2   Cu    Cu3+1 0.638000 0.520760 0.517470 0.997539
H1    H     H_    0.847214 0.600041 0.213122 0.180873
H2    H     H_    0.311410 0.050930 0.460511 0.198070
H3    H     H_    0.669891 0.946772 0.549011 0.148222
H4    H     H_    0.141219 0.597459 0.548509 0.167784
H5    H     H_    0.872150 0.429100 0.431097 0.158303
H6    H     H_    0.837044 0.489405 0.866435 0.186014
H7    H     H_    0.153227 0.438461 0.783995 0.168385
H8    H     H_    0.258496 0.467014 0.078760 0.152244
H9    H     H_    0.080571 0.432846 0.962353 0.167235
H10   H     H_    0.647435 0.411345 0.759282 0.192236
H11   H     H_    0.639736 0.139179 0.489467 0.183482
N1    N     N_2   0.845330 0.551960 0.543750 -0.110180
N2    N     N_2   0.154690 0.448120 0.456210 -0.109370
O1    O     O_R   0.426290 0.668220 0.490680 -0.561574
O2    O     O_R   0.659360 0.703290 0.520190 -0.539847
O3    O     O_R   0.326580 0.473880 0.629020 -0.586255
O4    O     O_R   0.559660 0.508940 0.658530 -0.567239
O5    O     O_R   0.340640 0.296710 0.479810 -0.544427
O6    O     O_R   0.573710 0.331780 0.509320 -0.598161
O7    O     O_R   0.440340 0.491060 0.341470 -0.560386
O8    O     O_R   0.673420 0.526120 0.370980 -0.595616
I1    I     I_    0.369175 0.833533 0.343651 -0.371478
I2    I     I_    0.048167 0.277131 0.378257 -0.359138
I3    I     I_    0.928333 0.685935 0.656875 -0.336289
N3    N     N_2   0.954729 0.603660 0.024092 -0.459876
H12   H     H_    0.023866 0.598875 0.074078 0.255866
C25   C     C_3   0.003453 0.730747 0.980104 -0.639437
H13   H     H_    0.994674 0.805026 0.037705 0.232229
H14   H     H_    0.937018 0.730566 0.919307 0.253361
H15   H     H_    0.119950 0.757491 0.948081 0.235331
N4    N     N_2   0.368695 0.351994 0.169733 -0.441178
H16   H     H_    0.297100 0.382684 0.217418 0.296033
C26   C     C_3   0.375870 0.228215 0.193553 -0.572543
H17   H     H_    0.262964 0.155962 0.207738 0.243368
H18   H     H_    0.432722 0.237963 0.261155 0.215064
H19   H     H_    0.434945 0.191668 0.130208 0.227890

loop_
_geom_bond_atom_site_label_1
_geom_bond_atom_site_label_2
_ccdc_geom_bond_type
Cu1   O3    S    
C13   I1    S    
C6    H6    S    
C23   C24   A    
N2    I2    S    
C6    C7    A    
N1    I3    S    
C18   O5    A    
C8    N4    S    
C12   O4    A    
C7    H10   S    
C14   C18   S    
C9    C20   A    
C2    C4    A    
C1    C11   S    
C4    C8    A    
C25   H14   S    
C2    C3    A    
C19   O7    A    
C26   H17   S    
C3    C10   A    
C15   H11   S    
C25   H13   S    
C10   C22   A    
C16   H5    S    
C17   H4    S    
C11   C13   D    
C9    C21   A    
N4    H16   S    
C16   C17   S    
Cu1   N2    S    
C10   C12   S    
Cu2   O8    S    
Cu1   O5    S    
C1    O2    A    
C19   C21   S    
Cu2   O4    S    
C8    C21   A    
C20   N3    S    
C3    C7    A    
C13   C15   S    
Cu1   O1    S    
C2    C24   A    
C5    C6    A    
C23   H9    S    
C19   O8    A    
C26   H18   S    
N4    C26   S    
C11   H3    S    
N3    C25   S    
N3    H12   S    
C18   O6    A    
C9    H1    S    
C17   N2    D    
C25   H15   S    
C5    C20   A    
C22   H7    S    
C14   C15   D    
Cu2   N1    S    
C26   H19   S    
C12   O3    A    
C1    O1    A    
C14   H2    S    
Cu1   Cu2   S    
C22   C23   A    
Cu1   O7    S    
C24   H8    S    
Cu2   O2    S    
C16   N1    D    
C4    C5    A    
Cu2   O6    S    
