data_mof_unit_30385.cif
_audit_creation_date              2012-12-10T21:28:51-0500
_audit_creation_method            fapswitch 2.2
_symmetry_space_group_name_H-M    P1
_symmetry_Int_Tables_number       1
_space_group_crystal_system       triclinic
_cell_length_a                    10.643631
_cell_length_b                    16.176702
_cell_length_c                    16.490992
_cell_angle_alpha                 85.115839
_cell_angle_beta                  89.97829
_cell_angle_gamma                 94.144058
_cell_volume                      2821.63218296

loop_
_atom_site_label
_atom_site_type_symbol
_atom_type_description
_atom_site_fract_x
_atom_site_fract_y
_atom_site_fract_z
_atom_type_partial_charge
C1    C     C_R   0.492765 0.487004 0.653562 0.915021
C2    C     C_R   0.939202 0.432174 0.518724 0.060653
C3    C     C_R   0.876800 0.504436 0.492499 -0.239581
C4    C     C_R   0.942758 0.571849 0.444980 0.438857
C5    C     C_R   0.073938 0.573457 0.442325 -0.170005
C6    C     C_R   0.129950 0.498817 0.464843 -0.293413
C7    C     C_R   0.465979 0.474373 0.740548 -0.108289
C8    C     C_R   0.375071 0.519551 0.777107 -0.136934
C9    C     C_R   0.356155 0.507291 0.862365 -0.059368
C10   C     C_R   0.436231 0.455485 0.908468 0.308681
C11   C     C_R   0.516739 0.406439 0.870590 -0.124895
C12   C     C_R   0.741345 0.501302 0.499022 1.015078
C13   C     C_R   0.529998 0.414800 0.786953 -0.172640
C14   C     C_R   0.596838 0.482053 0.134301 0.421212
C15   C     C_R   0.589466 0.475040 0.218704 -0.216721
C16   C     C_R   0.519732 0.536755 0.089460 0.199803
C17   C     C_R   0.510187 0.523693 0.258483 -0.074488
C18   C     C_R   0.441795 0.582536 0.214509 -0.308445
C19   C     C_R   0.447650 0.590982 0.129708 -0.064302
C20   C     C_R   0.511900 0.771796 0.440959 0.066211
C21   C     C_R   0.497507 0.858177 0.446605 -0.106742
C22   C     C_R   0.490676 0.888784 0.524310 0.222340
C23   C     C_R   0.500553 0.512691 0.346304 0.918400
C24   C     C_R   0.495490 0.831740 0.592748 -0.222367
C25   C     C_R   0.508262 0.747032 0.584470 0.050951
C26   C     C_R   0.516635 0.150903 0.565737 -0.099198
C27   C     C_R   0.501552 0.237247 0.562346 -0.039149
C28   C     C_R   0.509662 0.111217 0.492304 0.228202
C29   C     C_R   0.478994 0.245845 0.419369 0.049988
C30   C     C_R   0.491166 0.160140 0.419347 -0.215006
C31   C     C_R   0.261703 0.500310 0.487367 0.846959
C32   C     C_R   0.889894 0.365594 0.574244 -0.044661
C33   C     C_R   0.935022 0.285385 0.571060 -0.115810
C34   C     C_R   0.028958 0.273643 0.512530 -0.035968
C35   C     C_R   0.088287 0.344078 0.466711 -0.070866
C36   C     C_R   0.053953 0.424329 0.482148 -0.003845
H1    H     H_    0.595727 0.377861 0.758958 0.177256
H2    H     H_    0.380289 0.619509 0.246247 0.189226
H3    H     H_    0.510074 0.268966 0.617338 0.175883
H4    H     H_    0.488450 0.852846 0.653059 0.180791
H5    H     H_    0.509323 0.705583 0.639162 0.183998
H6    H     H_    0.468511 0.282662 0.362264 0.169496
H7    H     H_    0.488665 0.131953 0.362055 0.178916
H8    H     H_    0.645097 0.431299 0.253677 0.198453
H9    H     H_    0.575166 0.365316 0.906431 0.200241
N1    N     N_2   0.450981 0.461323 0.992312 -0.086669
N2    N     N_2   0.502482 0.530451 0.005729 -0.071896
N3    N     N_R   0.515300 0.716920 0.509720 -0.137548
N4    N     N_2   0.471976 0.974350 0.535713 -0.191093
N5    N     N_2   0.533022 0.025751 0.486898 -0.166584
N6    N     N_R   0.484690 0.283070 0.490290 -0.123961
O1    O     O_R   0.494530 0.422540 0.612660 -0.635145
O2    O     O_R   0.504350 0.561840 0.618900 -0.619760
O3    O     O_R   0.678320 0.430330 0.496880 -0.628702
O4    O     O_R   0.688140 0.569640 0.503120 -0.542443
O5    O     O_R   0.495650 0.438160 0.381100 -0.642142
O6    O     O_R   0.505470 0.577460 0.387340 -0.627165
O7    O     O_R   0.311860 0.430360 0.496880 -0.627252
O8    O     O_R   0.321680 0.569670 0.503120 -0.634953
Zn1   Zn    Zn3+2 0.493440 0.406980 0.495830 0.950658
Zn2   Zn    Zn3+2 0.506560 0.593020 0.504170 1.015729
S1    S     S_3+6 0.864798 0.644755 0.378740 0.043516
O9    O     O_2   0.757108 0.599701 0.338520 -0.365155
O10   O     O_2   0.816661 0.710416 0.427444 -0.276224
O11   O     O_3   0.960702 0.690794 0.304441 -0.520031
H10   H     H_    0.908940 0.730765 0.273250 0.400083
C37   C     C_2   0.250595 0.544104 0.903062 0.531032
H11   H     H_    0.196148 0.590280 0.871010 0.137144
O12   O     O_2   0.219250 0.520712 0.972987 -0.530779
C38   C     C_2   0.373686 0.654728 0.085695 0.566092
H12   H     H_    0.305429 0.686043 0.118617 0.086496
O13   O     O_2   0.390197 0.674970 0.013255 -0.527174
C39   C     C_2   0.298602 0.576099 0.725115 0.389382
H13   H     H_    0.259412 0.556064 0.668683 0.094502
O14   O     O_2   0.284789 0.646769 0.742429 -0.549022
C40   C     C_2   0.549533 0.106127 0.644324 0.480198
H14   H     H_    0.583329 0.044415 0.646483 0.122547
O15   O     O_2   0.541250 0.138458 0.708210 -0.571458
C41   C     C_2   0.801172 0.380997 0.640089 0.388097
H15   H     H_    0.733194 0.332011 0.664294 0.048549
O16   O     O_2   0.805080 0.448288 0.668779 -0.571791
C42   C     C_2   0.482509 0.915247 0.372026 0.544937
H16   H     H_    0.411400 0.960176 0.370382 0.081005
O17   O     O_2   0.551816 0.914447 0.313115 -0.512225
C43   C     C_2   0.518321 0.741525 0.359772 0.531575
H17   H     H_    0.601054 0.712789 0.341341 0.159716
O18   O     O_2   0.432578 0.751393 0.311591 -0.595938
C44   C     C_2   0.888262 0.216532 0.631946 0.392632
H18   H     H_    0.871288 0.229242 0.694390 0.074024
O19   O     O_2   0.864638 0.145819 0.613102 -0.498222
C45   C     C_2   0.075963 0.190519 0.505516 0.618336
H19   H     H_    0.175071 0.181483 0.515360 0.040714
O20   O     O_2   0.006327 0.133297 0.483973 -0.461545
C46   C     C_2   0.170762 0.336382 0.394449 0.472014
H20   H     H_    0.210638 0.391983 0.359471 0.074043
O21   O     O_2   0.191515 0.269198 0.370802 -0.576831
C47   C     C_2   0.151689 0.650341 0.413372 0.639005
H21   H     H_    0.235333 0.646236 0.376733 0.052313
O22   O     O_2   0.125383 0.718268 0.432698 -0.481020
S2    S     S_3+6 0.700552 0.420245 0.086598 0.050838
O23   O     O_2   0.746890 0.463544 0.006751 -0.271674
O24   O     O_2   0.811203 0.404207 0.140859 -0.253852
O25   O     O_3   0.622918 0.328962 0.070387 -0.551427
H22   H     H_    0.684989 0.297679 0.043146 0.390581

loop_
_geom_bond_atom_site_label_1
_geom_bond_atom_site_label_2
_ccdc_geom_bond_type
C24   C25   A    
C29   H6    S    
C39   H13   S    
C35   C36   A    
C47   H21   S    
C7    C8    A    
O3    Zn1   S    
C43   H17   S    
C26   C27   A    
S1    O9    D    
C31   O7    A    
C33   C44   S    
C40   O15   D    
C15   H8    S    
C18   C19   A    
C5    C6    A    
O7    Zn1   S    
C4    S1    S    
C2    C32   A    
C34   C35   A    
C31   O8    A    
O6    Zn2   S    
C1    O2    A    
C34   C45   S    
S2    O23   D    
S1    O10   D    
C3    C12   S    
O1    Zn1   S    
O2    Zn2   S    
C27   H3    S    
C8    C9    A    
C10   N1    S    
C26   C40   S    
C38   H12   S    
C9    C10   A    
C13   H1    S    
C6    C31   S    
C21   C22   A    
C39   O14   D    
C28   N5    S    
C16   N2    S    
C47   O22   D    
C27   N6    A    
C33   C34   A    
C43   O18   D    
O8    Zn2   S    
C37   H11   S    
C23   O5    A    
C40   H14   S    
C25   H5    S    
C45   H19   S    
C41   O16   D    
S2    O25   S    
O5    Zn1   S    
C37   O12   D    
C9    C37   S    
C29   C30   A    
C45   O20   D    
C20   C43   S    
C20   C21   A    
S2    O24   D    
C17   C18   A    
C17   C23   S    
C44   H18   S    
C46   O21   D    
C25   N3    A    
C20   N3    A    
C22   N4    S    
C44   O19   D    
C42   H16   S    
C42   O17   D    
C14   C16   A    
C30   H7    S    
C11   H9    S    
C3    C4    A    
C29   N6    A    
C35   C46   S    
C2    C36   A    
C23   O6    A    
N1    N2    D    
S1    O11   S    
C1    C7    S    
C5    C47   S    
C4    C5    A    
C14   S2    S    
C26   C28   A    
C32   C33   A    
C28   C30   A    
C2    C3    A    
C18   H2    S    
C32   C41   S    
C11   C13   A    
N3    Zn2   S    
C16   C19   A    
O4    Zn2   S    
C8    C39   S    
C24   H4    S    
C6    C36   A    
C22   C24   A    
O11   H10   S    
C46   H20   S    
C1    O1    A    
C12   O4    A    
C10   C11   A    
C41   H15   S    
C7    C13   A    
C21   C42   S    
N4    N5    D    
O25   H22   S    
C14   C15   A    
C19   C38   S    
C38   O13   D    
N6    Zn1   S    
C15   C17   A    
C12   O3    A    
