data_mof_unit_29868.cif
_audit_creation_date              2012-12-11T17:08:31-0500
_audit_creation_method            fapswitch 2.2
_symmetry_space_group_name_H-M    P1
_symmetry_Int_Tables_number       1
_space_group_crystal_system       triclinic
_cell_length_a                    6.98396
_cell_length_b                    14.526531
_cell_length_c                    16.078934
_cell_angle_alpha                 89.995145
_cell_angle_beta                  90.06261
_cell_angle_gamma                 90.041162
_cell_volume                      1631.25005076

loop_
_atom_site_label
_atom_site_type_symbol
_atom_type_description
_atom_site_fract_x
_atom_site_fract_y
_atom_site_fract_z
_atom_type_partial_charge
O1    O     O_R   0.505700 0.583890 0.413310 -0.537601
O2    O     O_R   0.175960 0.594920 0.586080 -0.538605
O3    O     O_R   0.005660 0.416110 0.586690 -0.532852
C1    C     C_R   0.344861 0.616727 0.614910 0.703816
O4    O     O_R   0.175980 0.594920 0.413930 -0.544238
O5    O     O_R   0.005680 0.416110 0.413310 -0.537976
C2    C     C_R   0.344947 0.617228 0.385618 0.699231
O6    O     O_R   0.505680 0.583890 0.586690 -0.540631
O7    O     O_3   0.339200 0.441330 0.500000 -0.370654
V1    V     V_3+5 0.064350 0.510880 0.500000 1.447660
O8    O     O_R   0.675960 0.405080 0.413920 -0.546041
C3    C     C_R   0.844744 0.383393 0.385026 0.690906
O9    O     O_R   0.675940 0.405080 0.586070 -0.547575
C4    C     C_R   0.844699 0.382779 0.614496 0.729537
V2    V     V_3+5 0.564340 0.489120 0.500000 1.433816
O10   O     O_3   0.839360 0.558670 0.500000 -0.367649
C5    C     C_R   0.009321 0.252903 0.689839 0.113019
C6    C     C_R   0.852661 0.312282 0.681144 -0.094324
C7    C     C_R   0.700170 0.301304 0.737569 -0.148781
H1    H     H_    0.576808 0.345872 0.733614 0.136290
C8    C     C_R   0.711783 0.237530 0.803510 -0.164275
H2    H     H_    0.595856 0.234003 0.847900 0.143804
C9    C     C_R   0.876881 0.183324 0.815348 -0.105468
C10   C     C_R   0.021217 0.190100 0.755262 0.099361
C11   C     C_3   0.229936 0.207204 0.766459 -0.418491
C12   C     C_3   0.217021 0.275268 0.694929 -0.389590
H3    H     H_    0.317331 0.145432 0.751628 0.173047
H4    H     H_    0.262048 0.240372 0.827195 0.185049
H5    H     H_    0.296363 0.252696 0.638614 0.186150
C13   C     C_R   0.722112 0.186650 0.237753 0.082546
C14   C     C_R   0.880496 0.183689 0.184458 -0.085131
C15   C     C_R   0.028097 0.247060 0.199187 -0.170569
H6    H     H_    0.145170 0.250863 0.156383 0.142407
C16   C     C_R   0.017421 0.311116 0.264652 -0.144794
H7    H     H_    0.130649 0.361439 0.271302 0.120233
C17   C     C_R   0.857321 0.313837 0.317769 -0.098599
C18   C     C_R   0.712296 0.248800 0.304263 0.065749
C19   C     C_3   0.504638 0.266582 0.289988 -0.275545
C20   C     C_3   0.516742 0.201959 0.215421 -0.264804
H8    H     H_    0.472882 0.339879 0.275350 0.123272
H9    H     H_    0.428733 0.138235 0.219550 0.139142
C21   C     C_R   0.506138 0.682016 0.742297 0.072239
C22   C     C_R   0.353096 0.682171 0.685678 -0.110910
C23   C     C_R   0.202322 0.744322 0.700914 -0.152361
H10   H     H_    0.080556 0.746658 0.659456 0.131799
C24   C     C_R   0.212920 0.808451 0.766527 -0.171839
H11   H     H_    0.098307 0.857808 0.773812 0.125865
C25   C     C_R   0.375539 0.813040 0.818434 -0.099618
C26   C     C_R   0.517518 0.746441 0.806499 0.108153
C27   C     C_3   0.728076 0.758221 0.795901 -0.438732
C28   C     C_3   0.716215 0.687331 0.726229 -0.231543
H12   H     H_    0.808988 0.735646 0.851968 0.194351
H13   H     H_    0.750791 0.714640 0.663450 0.138552
C29   C     C_R   0.502881 0.682559 0.258125 0.046625
C30   C     C_R   0.354289 0.684694 0.316599 -0.107891
C31   C     C_R   0.221477 0.756682 0.310818 -0.207182
H14   H     H_    0.119003 0.765271 0.360157 0.152038
C32   C     C_R   0.232995 0.823370 0.247372 -0.040398
C33   C     C_R   0.377532 0.817544 0.185542 -0.141749
C34   C     C_R   0.511705 0.746030 0.192432 0.055911
C35   C     C_3   0.723451 0.756934 0.202008 -0.260634
C36   C     C_3   0.713491 0.690105 0.274692 -0.254721
H15   H     H_    0.764840 0.828562 0.217917 0.149354
H16   H     H_    0.790763 0.623829 0.266140 0.123907
O11   O     O_R   0.229000 0.916070 0.913330 -0.540391
O12   O     O_R   0.558770 0.905070 0.086080 -0.541304
O13   O     O_R   0.729000 0.083900 0.086690 -0.539627
C37   C     C_R   0.390093 0.884854 0.116118 0.705390
O14   O     O_R   0.558720 0.905070 0.913930 -0.540851
O15   O     O_R   0.728960 0.083900 0.913310 -0.542433
C38   C     C_R   0.389576 0.883264 0.885114 0.697375
O16   O     O_R   0.229050 0.916070 0.086710 -0.531186
O17   O     O_3   0.395460 0.058650 0.000020 -0.372056
V3    V     V_3+5 0.670340 0.989120 0.000000 1.448016
O18   O     O_R   0.058670 0.094960 0.913900 -0.542220
C39   C     C_R   0.889624 0.117172 0.885426 0.690966
O19   O     O_R   0.058720 0.094960 0.086050 -0.541315
C40   C     C_R   0.889808 0.117454 0.114311 0.733226
V4    V     V_3+5 0.170330 0.010930 0.999970 1.450718
O20   O     O_3   0.895340 0.941350 0.999980 -0.366204
C41   C     C_1   0.389259 0.229538 0.358835 0.373344
N1    N     N_1   0.298437 0.200541 0.413015 -0.350267
C42   C     C_1   0.498862 0.250792 0.135154 0.332916
N2    N     N_1   0.485475 0.288942 0.072213 -0.363237
H17   H     H_    0.764775 0.828319 0.773248 0.160021
C43   C     C_1   0.813958 0.600578 0.746686 0.369462
N3    N     N_1   0.891498 0.532598 0.763123 -0.373325
C44   C     C_1   0.110375 0.903054 0.253704 0.299211
N4    N     N_1   0.012756 0.967088 0.259294 -0.372331
C45   C     C_1   0.827710 0.720217 0.129860 0.360011
N5    N     N_1   0.910049 0.691551 0.073077 -0.351238
C46   C     C_1   0.751675 0.735054 0.355376 0.364401
N6    N     N_1   0.778353 0.770257 0.418939 -0.368051
H18   H     H_    0.242328 0.347822 0.714070 0.178917

loop_
_geom_bond_atom_site_label_1
_geom_bond_atom_site_label_2
_ccdc_geom_bond_type
C12   H18   S    
O12   C37   A    
C30   C31   A    
O11   V4    S    
O17   V3    S    
C4    C6    S    
C7    H1    S    
C2    C30   S    
C9    C39   S    
C1    O6    A    
C41   N1    T    
C20   H9    S    
C29   C34   A    
O19   C40   A    
C23   H10   S    
C11   H4    S    
C5    C12   S    
C17   C18   A    
C7    C8    A    
C16   H7    S    
O16   V4    S    
O5    C3    A    
C19   C20   S    
V2    O10   S    
O12   V3    S    
C31   H14   S    
O14   C38   A    
C6    C7    A    
C35   H15   S    
C36   H16   S    
C27   H17   S    
C29   C30   A    
O8    V2    S    
C14   C15   A    
C36   C46   S    
O15   V3    S    
C27   H12   S    
C9    C10   A    
O1    V2    S    
C3    C17   S    
O7    V1    S    
C21   C28   S    
C33   C34   A    
V3    O20   S    
O9    C4    A    
O13   C40   A    
C28   C43   S    
C23   C24   A    
C27   C28   S    
O19   V4    S    
C24   C25   A    
C5    C10   A    
C10   C11   S    
O4    C2    A    
C43   N3    T    
C29   C36   S    
C11   C12   S    
O11   C38   A    
C13   C18   A    
C34   C35   S    
C28   H13   S    
C15   C16   A    
O2    C1    A    
O18   C39   A    
C18   C19   S    
C33   C37   S    
C42   N2    T    
C37   O16   A    
C5    C6    A    
O17   V4    S    
O14   V3    S    
O13   V3    S    
O3    C4    A    
C25   C26   A    
O6    V2    S    
O9    V2    S    
C19   C41   S    
O15   C39   A    
C21   C22   A    
C25   C38   S    
O2    V1    S    
C35   C45   S    
C14   C40   S    
C24   H11   S    
O1    C2    A    
C32   C44   S    
O5    V1    S    
O8    C3    A    
C1    C22   S    
C11   H3    S    
C15   H6    S    
C8    C9    A    
C32   C33   A    
C20   C42   S    
O4    V1    S    
O3    V1    S    
V1    O10   S    
C19   H8    S    
C45   N5    T    
C13   C14   A    
C22   C23   A    
C46   N6    T    
C31   C32   A    
C13   C20   S    
C16   C17   A    
O7    V2    S    
C35   C36   S    
C21   C26   A    
V4    O20   S    
C44   N4    T    
C12   H5    S    
C26   C27   S    
C8    H2    S    
O18   V4    S    
