data_mof_unit_28493.cif
_audit_creation_date              2012-12-10T16:59:15-0500
_audit_creation_method            fapswitch 2.2
_symmetry_space_group_name_H-M    P1
_symmetry_Int_Tables_number       1
_space_group_crystal_system       triclinic
_cell_length_a                    7.742134
_cell_length_b                    8.571751
_cell_length_c                    27.599681
_cell_angle_alpha                 91.404645
_cell_angle_beta                  83.566864
_cell_angle_gamma                 94.05834
_cell_volume                      1815.26431058

loop_
_atom_site_label
_atom_site_type_symbol
_atom_type_description
_atom_site_fract_x
_atom_site_fract_y
_atom_site_fract_z
_atom_type_partial_charge
C1    C     C_R   0.546261 0.795080 0.498722 0.975423
C2    C     C_R   0.627065 0.609718 0.122524 -0.041605
C3    C     C_R   0.491556 0.503567 0.647382 -0.077693
C4    C     C_R   0.508391 0.497794 0.352631 -0.078068
C5    C     C_R   0.599836 0.625764 0.022126 0.044017
C6    C     C_R   0.380602 0.392001 0.978412 0.044694
C7    C     C_R   0.422746 0.374547 0.026446 -0.002125
C8    C     C_R   0.557585 0.643125 0.974089 -0.001733
C9    C     C_R   0.518069 0.496945 0.049211 0.044797
C10   C     C_R   0.462982 0.520390 0.951309 0.044886
C11   C     C_R   0.730129 0.723190 0.043685 0.085789
C12   C     C_R   0.453739 0.204920 0.501278 0.975452
C13   C     C_R   0.250887 0.294351 0.956696 0.084840
C14   C     C_R   0.729280 0.722497 0.094439 -0.157988
C15   C     C_R   0.253785 0.293820 0.905868 -0.160181
C16   C     C_R   0.498584 0.500505 0.594214 0.902091
C17   C     C_R   0.501410 0.499545 0.405790 0.900911
C18   C     C_R   0.593367 0.784730 0.949215 -0.340057
C19   C     C_R   0.387076 0.232643 0.051143 -0.341558
C20   C     C_2   0.570622 0.958641 0.497986 -0.369591
C21   C     C_2   0.429379 0.041359 0.502013 -0.369765
C22   C     C_R   0.529920 0.649948 0.822933 0.615881
C23   C     C_R   0.448865 0.527774 0.901003 -0.149834
C24   C     C_R   0.459381 0.362872 0.177207 0.581723
C25   C     C_R   0.366353 0.402774 0.826992 0.558974
C26   C     C_R   0.623246 0.609907 0.173227 0.601619
C27   C     C_R   0.322884 0.534165 0.725811 -0.179354
C28   C     C_R   0.371118 0.523623 0.279164 -0.185340
C29   C     C_R   0.332907 0.529157 0.675461 -0.202987
C30   C     C_R   0.360927 0.525047 0.329780 -0.211734
C31   C     C_R   0.640288 0.482130 0.670492 -0.332308
C32   C     C_R   0.665767 0.468535 0.324312 -0.321059
C33   C     C_R   0.630544 0.486407 0.721618 0.527467
C34   C     C_R   0.534536 0.488233 0.099375 -0.155096
C35   C     C_R   0.676395 0.466167 0.273423 0.526200
C36   C     C_R   0.470508 0.512981 0.748895 0.264199
C37   C     C_R   0.528162 0.494550 0.251157 0.265076
C38   C     C_3   0.886511 0.811402 0.015072 -0.431419
C39   C     C_3   0.988791 0.707200 0.977503 -0.338102
C40   C     C_3   0.110667 0.804208 0.940739 -0.826948
C41   C     C_3   0.093913 0.206403 0.985116 -0.431813
C42   C     C_3   0.991878 0.310266 0.022861 -0.342263
C43   C     C_3   0.872001 0.212862 0.059984 -0.813516
C44   C     C_R   0.525222 0.657571 0.873921 -0.092662
C45   C     C_R   0.459631 0.357578 0.126331 -0.083924
C46   C     C_R   0.587054 0.791821 0.898851 0.499327
C47   C     C_R   0.395614 0.224321 0.101355 0.505980
C48   C     C_R   0.357954 0.405438 0.877797 -0.027812
H1    H     H_    0.762830 0.462069 0.648988 0.158624
H2    H     H_    0.167563 0.210661 0.888364 0.189388
H3    H     H_    0.617165 0.892194 0.969032 0.137797
H4    H     H_    0.362213 0.125582 0.031240 0.138020
H5    H     H_    0.703730 0.010424 0.494150 0.180308
H6    H     H_    0.296270 0.989576 0.505849 0.180316
H7    H     H_    0.875116 0.448048 0.721362 0.330932
H8    H     H_    0.919821 0.417753 0.265958 0.333729
H9    H     H_    0.676601 0.010435 0.897216 0.322335
H10   H     H_    0.304914 0.005965 0.102769 0.319807
H11   H     H_    0.037206 0.888257 0.922578 0.265473
H12   H     H_    0.780313 0.446472 0.341620 0.161855
H13   H     H_    0.215427 0.868363 0.959074 0.250254
H14   H     H_    0.171251 0.725661 0.912236 0.258989
H15   H     H_    0.068385 0.631582 0.996825 0.216168
H16   H     H_    0.900395 0.630646 0.956898 0.237836
H17   H     H_    0.849499 0.917168 0.998188 0.201800
H18   H     H_    0.980591 0.858147 0.040359 0.186433
H19   H     H_    0.766788 0.147916 0.042026 0.247810
H20   H     H_    0.946971 0.129485 0.077938 0.264950
H21   H     H_    0.811979 0.291239 0.088625 0.265296
H22   H     H_    0.080404 0.387599 0.043189 0.237950
H23   H     H_    0.015173 0.381559 0.463223 0.191537
H24   H     H_    0.910880 0.385163 0.003736 0.216285
H25   H     H_    0.999856 0.160520 0.959705 0.186873
H26   H     H_    0.130450 0.100098 0.001802 0.201853
H27   H     H_    0.984826 0.618437 0.536778 0.191728
H28   H     H_    0.238486 0.547736 0.350909 0.171225
H29   H     H_    0.216031 0.546364 0.658616 0.173085
H30   H     H_    0.257024 0.544721 0.261536 0.171899
H31   H     H_    0.200268 0.555311 0.747102 0.181646
H32   H     H_    0.816395 0.805142 0.111822 0.188891
N1    N     N_R   0.457230 0.521025 0.800812 -0.354036
N2    N     N_R   0.535661 0.489937 0.199328 -0.355129
N3    N     N_2   0.950320 0.457960 0.486880 -0.173844
N4    N     N_2   0.049680 0.542040 0.513120 -0.173923
O1    O     O_R   0.389250 0.738570 0.503220 -0.612744
O2    O     O_2   0.382740 0.243636 0.204634 -0.459315
O3    O     O_2   0.704514 0.729421 0.196429 -0.514172
O4    O     O_2   0.286822 0.282249 0.803792 -0.522034
O5    O     O_3   0.773667 0.464832 0.745757 -0.741854
O6    O     O_3   0.828214 0.435083 0.244650 -0.741365
O7    O     O_3   0.634652 0.929418 0.874195 -0.686358
O8    O     O_3   0.348692 0.086155 0.125768 -0.688112
O9    O     O_R   0.610750 0.261430 0.496780 -0.612782
O10   O     O_R   0.678390 0.711630 0.494810 -0.628166
O11   O     O_R   0.321610 0.288370 0.505190 -0.628113
O12   O     O_R   0.355440 0.513440 0.575450 -0.624822
O13   O     O_R   0.644560 0.486560 0.424550 -0.620899
O14   O     O_R   0.644590 0.486500 0.567040 -0.626637
O15   O     O_R   0.355410 0.513500 0.432960 -0.630118
O16   O     O_2   0.607667 0.768537 0.795423 -0.451184
Zn1   Zn    Zn3+2 0.306940 0.517990 0.505620 0.950227
Zn2   Zn    Zn3+2 0.693060 0.482010 0.494380 0.951481

loop_
_geom_bond_atom_site_label_1
_geom_bond_atom_site_label_2
_ccdc_geom_bond_type
N3    Zn2   S    
C27   C29   A    
C41   C42   S    
C13   C41   S    
C39   H16   S    
C24   C45   A    
C35   C37   A    
C5    C11   A    
C27   H31   S    
C38   C39   S    
C11   C14   A    
C19   C47   A    
H27   N4    S    
C42   H22   S    
C33   C36   A    
C40   H14   S    
C47   O8    S    
C15   H2    S    
C3    C29   A    
C24   N2    A    
C41   H26   S    
C19   H4    S    
C22   C44   A    
C38   H18   S    
C43   H20   S    
C31   C33   A    
C12   O11   A    
C14   H32   S    
C28   H30   S    
O13   Zn2   S    
C2    C34   A    
H8    O6    S    
C43   H21   S    
C40   H11   S    
O12   Zn1   S    
C25   N1    A    
N4    Zn1   S    
C15   C48   A    
C31   H1    S    
C2    C14   A    
C18   C46   A    
C44   C46   A    
C18   H3    S    
C26   N2    A    
H23   N3    S    
C45   C47   A    
C1    O1    A    
C16   O12   A    
C22   O16   S    
C32   C35   A    
C39   C40   S    
C26   O3    S    
C46   O7    S    
O14   Zn2   S    
C12   C21   S    
C25   O4    S    
C8    C18   A    
C40   H13   S    
C11   C38   S    
C22   N1    A    
C5    C9    A    
C33   O5    S    
C30   H28   S    
N3    N4    D    
C38   H17   S    
C36   N1    S    
C42   H24   S    
C2    C26   A    
C34   C45   A    
C3    C31   A    
C17   O15   A    
C25   C48   A    
C4    C32   A    
C4    C17   S    
C43   H19   S    
O15   Zn1   S    
C7    C19   A    
C13   C15   A    
C9    C34   A    
C10   C23   A    
C12   O9    A    
C42   C43   S    
C32   H12   S    
O1    Zn1   S    
C7    C9    A    
C1    C20   S    
C23   C48   A    
H9    O7    S    
C20   H5    S    
O9    Zn2   S    
C6    C10   A    
C5    C8    A    
C6    C7    A    
C27   C36   A    
C39   H15   S    
C28   C30   A    
H7    O5    S    
C6    C13   A    
C16   O14   A    
C21   H6    S    
C17   O13   A    
C28   C37   A    
C37   N2    S    
C23   C44   A    
C41   H25   S    
C35   O6    S    
C29   H29   S    
C20   C21   D    
O10   Zn2   S    
C8    C10   A    
H10   O8    S    
C1    O10   A    
C24   O2    S    
C4    C30   A    
C3    C16   S    
O11   Zn1   S    
