data_mof_unit_32385.cif
_audit_creation_date              2012-10-26T17:16:14-0400
_audit_creation_method            fapswitch 2.2
_symmetry_space_group_name_H-M    P1
_symmetry_Int_Tables_number       1
_space_group_crystal_system       monoclinic
_cell_length_a                    23.639639
_cell_length_b                    30.735311
_cell_length_c                    19.449318
_cell_angle_alpha                 90.0
_cell_angle_beta                  127.809502
_cell_angle_gamma                 90.0
_cell_volume                      11164.4993219

loop_
_atom_site_label
_atom_site_type_symbol
_atom_type_description
_atom_site_fract_x
_atom_site_fract_y
_atom_site_fract_z
_atom_type_partial_charge
C1    C     C_R   0.689288 0.809289 0.881243 0.552674
C2    C     C_R   0.310555 0.146561 0.225389 -0.023565
C3    C     C_R   0.699973 0.163221 0.631644 0.028274
C4    C     C_R   0.188492 0.333612 0.621043 -0.001688
C5    C     C_R   0.800027 0.663221 0.368356 0.028274
C6    C     C_R   0.763137 0.359177 0.327811 -0.001094
C7    C     C_R   0.247073 0.634708 0.685063 0.028123
C8    C     C_R   0.667194 0.873424 0.637818 0.104028
C9    C     C_R   0.324892 0.123588 0.354977 0.117700
C10   C     C_R   0.365510 0.860803 0.391785 0.095343
C11   C     C_R   0.642227 0.138237 0.613541 0.103219
C12   C     C_R   0.134490 0.360803 0.608215 0.095343
C13   C     C_R   0.325323 0.843516 0.245799 -0.033548
C14   C     C_R   0.857773 0.638237 0.386459 0.103219
C15   C     C_R   0.832806 0.373423 0.362182 0.104028
C16   C     C_R   0.175108 0.623588 0.645023 0.117700
C17   C     C_R   0.646756 0.875830 0.692832 0.044620
C18   C     C_R   0.350089 0.122932 0.304348 0.024305
C19   C     C_R   0.367573 0.869513 0.321457 0.043679
C20   C     C_R   0.635671 0.129827 0.680806 0.020574
C21   C     C_R   0.132427 0.369513 0.678543 0.043679
C22   C     C_R   0.864329 0.629826 0.319194 0.020574
C23   C     C_R   0.853244 0.375830 0.307168 0.044620
C24   C     C_R   0.678000 0.154924 0.757920 -0.023341
C25   C     C_R   0.149911 0.622932 0.695652 0.024305
C26   C     C_R   0.550788 0.848492 0.816402 0.038875
C27   C     C_R   0.534520 0.880562 0.853311 -0.091568
C28   C     C_R   0.485215 0.871985 0.868814 -0.121804
C29   C     C_R   0.451933 0.831357 0.847840 -0.106660
C30   C     C_R   0.468359 0.799185 0.811898 -0.112932
C31   C     C_R   0.517750 0.807567 0.796339 -0.077943
C32   C     C_R   0.449006 0.151616 0.184141 0.036839
C33   C     C_R   0.488082 0.190517 0.209180 -0.077577
C34   C     C_R   0.535797 0.197209 0.190350 -0.110773
C35   C     C_R   0.174677 0.343516 0.754201 -0.033548
C36   C     C_R   0.544313 0.165433 0.146034 -0.104756
C37   C     C_R   0.504871 0.126872 0.120058 -0.121353
C38   C     C_R   0.457391 0.119920 0.139044 -0.090512
C39   C     C_R   0.420154 0.866016 0.146170 0.035358
C40   C     C_R   0.378799 0.879914 0.059224 -0.059129
C41   C     C_R   0.405849 0.876367 0.012528 -0.109137
C42   C     C_R   0.474557 0.859668 0.052895 -0.107157
C43   C     C_R   0.516296 0.846478 0.139659 -0.114879
C44   C     C_R   0.489288 0.849602 0.186284 -0.107375
C45   C     C_R   0.574874 0.136097 0.848370 0.030344
C46   C     C_R   0.822000 0.654924 0.242080 -0.023341
C47   C     C_R   0.504363 0.150835 0.805158 -0.109035
C48   C     C_R   0.475449 0.154119 0.849607 -0.113858
C49   C     C_R   0.516560 0.142684 0.937270 -0.107667
C50   C     C_R   0.586509 0.127469 0.980669 -0.110215
C51   C     C_R   0.615493 0.123764 0.936190 -0.060538
C52   C     C_R   0.079846 0.366016 0.853830 0.035358
C53   C     C_R   0.121201 0.379914 0.940776 -0.059129
C54   C     C_R   0.094151 0.376367 0.987472 -0.109138
C55   C     C_R   0.025443 0.359668 0.947105 -0.107157
C56   C     C_R   0.983704 0.346478 0.860341 -0.114878
C57   C     C_R   0.813073 0.351780 0.228901 -0.032968
C58   C     C_R   0.010712 0.349602 0.813716 -0.107375
C59   C     C_R   0.925126 0.636096 0.151630 0.030345
C60   C     C_R   0.995637 0.650835 0.194842 -0.109035
C61   C     C_R   0.024551 0.654119 0.150393 -0.113858
C62   C     C_R   0.983439 0.642683 0.062729 -0.107667
C63   C     C_R   0.913490 0.627468 0.019330 -0.110215
C64   C     C_R   0.884507 0.623764 0.063810 -0.060539
C65   C     C_R   0.949212 0.348492 0.183598 0.038875
C66   C     C_R   0.965480 0.380562 0.146689 -0.091568
C67   C     C_R   0.014785 0.371985 0.131186 -0.121804
C68   C     C_R   0.189444 0.646561 0.774611 -0.023564
C69   C     C_R   0.048067 0.331358 0.152160 -0.106661
C70   C     C_R   0.031641 0.299186 0.188102 -0.112932
C71   C     C_R   0.982250 0.307568 0.203661 -0.077943
C72   C     C_R   0.050994 0.651616 0.815859 0.036839
C73   C     C_R   0.011918 0.690517 0.790820 -0.077577
C74   C     C_R   0.964204 0.697209 0.809651 -0.110773
C75   C     C_R   0.955686 0.665433 0.853966 -0.104756
C76   C     C_R   0.995128 0.626872 0.879941 -0.121353
C77   C     C_R   0.042608 0.619920 0.860955 -0.090513
C78   C     C_R   0.862389 0.841620 0.807045 0.036062
C79   C     C_R   0.656577 0.842232 0.813373 0.005135
C80   C     C_R   0.908680 0.867143 0.881880 -0.100241
C81   C     C_R   0.982023 0.868142 0.922636 -0.121426
C82   C     C_R   0.009804 0.843895 0.888885 -0.095312
C83   C     C_R   0.964702 0.817384 0.816151 -0.106917
C84   C     C_R   0.891378 0.815722 0.775984 -0.089514
C85   C     C_R   0.129382 0.152693 0.176484 0.031685
C86   C     C_R   0.098335 0.177564 0.206194 -0.091400
C87   C     C_R   0.024353 0.176353 0.161916 -0.106638
C88   C     C_R   0.980560 0.151604 0.086091 -0.094541
C89   C     C_R   0.010523 0.128489 0.053770 -0.120575
C90   C     C_R   0.343079 0.157634 0.186369 0.007127
C91   C     C_R   0.084581 0.128862 0.098819 -0.100940
C92   C     C_R   0.195087 0.793639 0.275213 0.038033
C93   C     C_R   0.127965 0.813338 0.215787 -0.103997
C94   C     C_R   0.066997 0.795595 0.201120 -0.104772
C95   C     C_R   0.072487 0.757892 0.244948 -0.097400
C96   C     C_R   0.138921 0.737612 0.302942 -0.123108
C97   C     C_R   0.200046 0.755215 0.317689 -0.078129
C98   C     C_R   0.816488 0.201786 0.739842 0.032878
C99   C     C_R   0.812869 0.241411 0.701426 -0.080568
C100  C     C_R   0.874461 0.258984 0.717432 -0.123365
C101  C     C_R   0.340730 0.842678 0.185955 0.000922
C102  C     C_R   0.940018 0.237396 0.772524 -0.096475
C103  C     C_R   0.944097 0.198283 0.812021 -0.104523
C104  C     C_R   0.882652 0.180629 0.796277 -0.105102
C105  C     C_R   0.304913 0.293639 0.724786 0.038033
C106  C     C_R   0.372035 0.313338 0.784213 -0.103997
C107  C     C_R   0.433003 0.295595 0.798880 -0.104772
C108  C     C_R   0.427512 0.257892 0.755052 -0.097400
C109  C     C_R   0.361079 0.237612 0.697058 -0.123108
C110  C     C_R   0.299955 0.255215 0.682310 -0.078129
C111  C     C_R   0.683512 0.701786 0.260159 0.032877
C112  C     C_R   0.310748 0.190690 0.118715 0.553140
C113  C     C_R   0.659116 0.157214 0.814295 0.003992
C114  C     C_R   0.687131 0.741411 0.298574 -0.080568
C115  C     C_R   0.625539 0.758984 0.282568 -0.123365
C116  C     C_R   0.559982 0.737396 0.227476 -0.096475
C117  C     C_R   0.555903 0.698283 0.187979 -0.104523
C118  C     C_R   0.617348 0.680629 0.203723 -0.105102
C119  C     C_R   0.637611 0.341620 0.192955 0.036062
C120  C     C_R   0.591320 0.367143 0.118120 -0.100240
C121  C     C_R   0.517977 0.368142 0.077365 -0.121427
C122  C     C_R   0.490196 0.343895 0.111115 -0.095312
C123  C     C_R   0.535298 0.317384 0.183849 -0.106917
C124  C     C_R   0.159269 0.342678 0.814045 0.000922
C125  C     C_R   0.608622 0.315721 0.224017 -0.089514
C126  C     C_R   0.370618 0.652693 0.823516 0.031685
C127  C     C_R   0.401665 0.677564 0.793806 -0.091400
C128  C     C_R   0.475647 0.676353 0.838084 -0.106638
C129  C     C_R   0.519440 0.651604 0.913909 -0.094541
C130  C     C_R   0.489477 0.628489 0.946230 -0.120575
C131  C     C_R   0.415419 0.628862 0.901181 -0.100940
C132  C     C_R   0.760293 0.860322 0.617027 0.024377
C133  C     C_R   0.801839 0.895077 0.623587 -0.088218
C134  C     C_R   0.825427 0.895403 0.572920 -0.112574
C135  C     C_R   0.840884 0.657214 0.185705 0.003991
C136  C     C_R   0.807701 0.861090 0.515663 -0.107553
C137  C     C_R   0.766188 0.826453 0.508791 -0.122067
C138  C     C_R   0.742265 0.826077 0.559041 -0.116829
C139  C     C_R   0.225337 0.131273 0.365557 0.044679
C140  C     C_R   0.243485 0.162982 0.428107 -0.088504
C141  C     C_R   0.215685 0.160540 0.474003 -0.124886
C142  C     C_R   0.170119 0.126339 0.458195 -0.108813
C143  C     C_R   0.152275 0.094523 0.396442 -0.114470
C144  C     C_R   0.179781 0.096914 0.350172 -0.092159
C145  C     C_R   0.309320 0.824471 0.452091 0.028358
C146  C     C_R   0.843423 0.342232 0.186627 0.005135
C147  C     C_R   0.261873 0.847167 0.459636 -0.088544
C148  C     C_R   0.258730 0.837447 0.527505 -0.107869
C149  C     C_R   0.302624 0.804964 0.587775 -0.096391
C150  C     C_R   0.349868 0.782209 0.580413 -0.113517
C151  C     C_R   0.353473 0.792005 0.513003 -0.112028
C152  C     C_R   0.705120 0.173023 0.560905 0.056855
C153  C     C_R   0.657725 0.203035 0.495594 -0.079303
C154  C     C_R   0.663702 0.213545 0.430356 -0.117690
C155  C     C_R   0.716801 0.194098 0.429719 -0.103877
C156  C     C_R   0.764027 0.164107 0.494387 -0.111349
C157  C     C_R   0.156921 0.657634 0.813631 0.007127
C158  C     C_R   0.758313 0.153556 0.559894 -0.089309
C159  C     C_R   0.190680 0.324471 0.547909 0.028358
C160  C     C_R   0.238127 0.347167 0.540364 -0.088544
C161  C     C_R   0.241270 0.337447 0.472495 -0.107869
C162  C     C_R   0.197376 0.304964 0.412225 -0.096391
C163  C     C_R   0.150132 0.282209 0.419587 -0.113517
C164  C     C_R   0.146527 0.292005 0.486997 -0.112027
C165  C     C_R   0.794880 0.673024 0.439095 0.056855
C166  C     C_R   0.842275 0.703035 0.504406 -0.079303
C167  C     C_R   0.836299 0.713545 0.569644 -0.117690
C168  C     C_R   0.590396 0.860578 0.782988 -0.048504
C169  C     C_R   0.783199 0.694098 0.570281 -0.103877
C170  C     C_R   0.735973 0.664108 0.505613 -0.111349
C171  C     C_R   0.741687 0.653556 0.440106 -0.089309
C172  C     C_R   0.739708 0.360322 0.382973 0.024377
C173  C     C_R   0.698161 0.395077 0.376413 -0.088219
C174  C     C_R   0.674574 0.395403 0.427080 -0.112574
C175  C     C_R   0.692299 0.361090 0.484337 -0.107552
C176  C     C_R   0.733813 0.326452 0.491210 -0.122067
C177  C     C_R   0.757735 0.326077 0.440959 -0.116829
C178  C     C_R   0.274662 0.631273 0.634443 0.044679
C179  C     C_R   0.410425 0.140476 0.219196 -0.046461
C180  C     C_R   0.256514 0.662982 0.571893 -0.088504
C181  C     C_R   0.284315 0.660540 0.525997 -0.124886
C182  C     C_R   0.329881 0.626339 0.541805 -0.108813
C183  C     C_R   0.347725 0.594523 0.603558 -0.114471
C184  C     C_R   0.320219 0.596914 0.649828 -0.092159
C185  C     C_R   0.393589 0.870222 0.197703 -0.048775
C186  C     C_R   0.603349 0.131294 0.798940 -0.047356
C187  C     C_R   0.106411 0.370222 0.802297 -0.048775
C188  C     C_R   0.308901 0.809355 0.118683 0.552138
C189  C     C_R   0.896651 0.631294 0.201060 -0.047356
C190  C     C_R   0.909604 0.360578 0.217012 -0.048504
C191  C     C_R   0.089575 0.640476 0.780804 -0.046461
C192  C     C_R   0.558577 0.890932 0.716239 -0.171006
C193  C     C_R   0.442621 0.110637 0.286748 -0.146092
C194  C     C_R   0.426499 0.900511 0.264503 -0.170011
C195  C     C_R   0.570407 0.101376 0.731538 -0.154656
C196  C     C_R   0.073501 0.400511 0.735497 -0.170011
C197  C     C_R   0.929593 0.601376 0.268461 -0.154656
C198  C     C_R   0.941423 0.390931 0.283761 -0.171006
C199  C     C_R   0.690690 0.190623 0.881363 0.550853
C200  C     C_R   0.057378 0.610637 0.713252 -0.146093
C201  C     C_R   0.586925 0.900020 0.672501 0.002186
C202  C     C_R   0.412485 0.100268 0.327952 -0.021740
C203  C     C_R   0.412637 0.901522 0.324775 0.007152
C204  C     C_R   0.587194 0.099127 0.674077 -0.017111
C205  C     C_R   0.087363 0.401522 0.675225 0.007152
C206  C     C_R   0.912806 0.599127 0.325923 -0.017111
C207  C     C_R   0.913075 0.400020 0.327499 0.002186
C208  C     C_R   0.087515 0.600268 0.672048 -0.021740
C209  C     C_R   0.057077 0.562417 0.613268 0.539836
C210  C     C_R   0.191099 0.309355 0.881317 0.552138
C211  C     C_R   0.943244 0.437496 0.387034 0.607796
C212  C     C_R   0.942979 0.562155 0.386309 0.543384
C213  C     C_R   0.057065 0.438030 0.614032 0.609015
C214  C     C_R   0.557021 0.062155 0.613691 0.543383
C215  C     C_R   0.442935 0.938030 0.385968 0.609016
C216  C     C_R   0.442923 0.062417 0.386732 0.539837
C217  C     C_R   0.556756 0.937496 0.612966 0.607796
C218  C     C_R   0.642052 0.749783 0.000309 0.543133
C219  C     C_R   0.358009 0.250203 0.999811 0.544891
C220  C     C_R   0.358115 0.749878 0.000022 0.549378
C221  C     C_R   0.809310 0.690623 0.118637 0.550853
C222  C     C_R   0.641862 0.250129 0.999934 0.550289
C223  C     C_R   0.141885 0.249878 0.999978 0.549378
C224  C     C_R   0.858138 0.750129 0.000066 0.550289
C225  C     C_R   0.857948 0.249782 0.999691 0.543133
C226  C     C_R   0.141990 0.750203 0.000189 0.544891
C227  C     C_1   0.581618 0.749592 0.001176 -0.018800
C228  C     C_1   0.418550 0.250520 0.999156 -0.017645
C229  C     C_1   0.418901 0.749662 0.999867 -0.026695
C230  C     C_1   0.581052 0.250470 0.000047 -0.026862
C231  C     C_1   0.081099 0.249662 0.000133 -0.026695
C232  C     C_R   0.810712 0.309289 0.118757 0.552674
C233  C     C_1   0.918948 0.750470 0.999953 -0.026862
C234  C     C_1   0.918382 0.249592 0.998824 -0.018800
C235  C     C_1   0.081450 0.750520 0.000844 -0.017645
C236  C     C_1   0.530554 0.749584 0.001252 -0.026130
C237  C     C_1   0.469608 0.250660 0.999080 -0.029055
C238  C     C_1   0.470179 0.749595 0.000235 -0.035527
C239  C     C_1   0.529828 0.250653 0.999785 -0.039262
C240  C     C_1   0.029820 0.249595 0.999765 -0.035527
C241  C     C_1   0.970171 0.750653 0.000215 -0.039262
C242  C     C_1   0.969446 0.249584 0.998748 -0.026130
C243  C     C_R   0.189252 0.690690 0.881285 0.553140
C244  C     C_1   0.030392 0.750660 0.000920 -0.029055
C245  C     C_R   0.756689 0.838364 0.805586 -0.135456
C246  C     C_R   0.239009 0.157884 0.186389 -0.135558
C247  C     C_R   0.268917 0.818783 0.231924 -0.131147
C248  C     C_R   0.737841 0.177623 0.776637 -0.129705
C249  C     C_R   0.231083 0.318783 0.768076 -0.131147
C250  C     C_R   0.762159 0.677624 0.223364 -0.129705
C251  C     C_R   0.743311 0.338364 0.194414 -0.135455
C252  C     C_R   0.260991 0.657884 0.813611 -0.135558
C253  C     C_R   0.783931 0.845224 0.759702 -0.025106
C254  C     C_R   0.686926 0.851780 0.771099 -0.032968
C255  C     C_R   0.208297 0.148930 0.227544 -0.034361
C256  C     C_R   0.259923 0.815289 0.296330 -0.025364
C257  C     C_R   0.750642 0.180279 0.715610 -0.036640
C258  C     C_R   0.240077 0.315289 0.703670 -0.025364
C259  C     C_R   0.749358 0.680279 0.284390 -0.036640
C260  C     C_R   0.716069 0.345224 0.240298 -0.025105
C261  C     C_R   0.291703 0.648930 0.772456 -0.034361
C262  C     C_R   0.736863 0.859177 0.672189 -0.001094
C263  C     C_R   0.252927 0.134708 0.314937 0.028123
C264  C     C_R   0.311507 0.833612 0.378957 -0.001688
Cu1   Cu    Cu3+1 0.719090 0.719080 0.938180 0.890560
Cu2   Cu    Cu3+1 0.055800 0.500000 0.500010 0.899042
Cu3   Cu    Cu3+1 0.444200 1.000000 0.499990 0.899042
Cu4   Cu    Cu3+1 0.555800 0.000000 0.500010 0.902683
Cu5   Cu    Cu3+1 0.280910 0.280920 0.061820 0.895549
Cu6   Cu    Cu3+1 0.280910 0.719080 0.061820 0.916363
Cu7   Cu    Cu3+1 0.719090 0.280920 0.938180 0.922619
Cu8   Cu    Cu3+1 0.219090 0.219080 0.938180 0.916363
Cu9   Cu    Cu3+1 0.780910 0.780920 0.061820 0.922619
Cu10  Cu    Cu3+1 0.780910 0.219080 0.061820 0.890559
Cu11  Cu    Cu3+1 0.219090 0.780920 0.938180 0.895549
Cu12  Cu    Cu3+1 0.944200 0.500000 0.499990 0.902684
H1    H     H_    0.791630 0.824415 0.870232 0.126911
H2    H     H_    0.491986 0.095272 0.306976 0.150454
H3    H     H_    0.752910 0.799779 0.464961 0.109831
H4    H     H_    0.710695 0.798880 0.553833 0.104210
H5    H     H_    0.278245 0.189826 0.440290 0.124529
H6    H     H_    0.229177 0.185253 0.521487 0.103572
H7    H     H_    0.148569 0.124522 0.493713 0.104442
H8    H     H_    0.116924 0.068091 0.384217 0.103613
H9    H     H_    0.165259 0.072298 0.302021 0.108042
H10   H     H_    0.227258 0.872116 0.412832 0.104804
H11   H     H_    0.222050 0.854969 0.533171 0.103470
H12   H     H_    0.299936 0.797358 0.640054 0.106059
H13   H     H_    0.463801 0.923427 0.269548 0.139443
H14   H     H_    0.383485 0.756867 0.626709 0.098838
H15   H     H_    0.389915 0.773984 0.507515 0.100164
H16   H     H_    0.616773 0.218601 0.495898 0.119715
H17   H     H_    0.627461 0.236966 0.380637 0.098497
H18   H     H_    0.721422 0.202344 0.379236 0.104982
H19   H     H_    0.805221 0.149137 0.493911 0.103965
H20   H     H_    0.795418 0.130497 0.609979 0.103345
H21   H     H_    0.272742 0.372116 0.587168 0.104804
H22   H     H_    0.277950 0.354969 0.466829 0.103470
H23   H     H_    0.200064 0.297358 0.359946 0.106059
H24   H     H_    0.531037 0.079482 0.724237 0.144241
H25   H     H_    0.116515 0.256867 0.373291 0.098838
H26   H     H_    0.110085 0.273984 0.492485 0.100163
H27   H     H_    0.883227 0.718601 0.504103 0.119715
H28   H     H_    0.872539 0.736966 0.619364 0.098497
H29   H     H_    0.778578 0.702344 0.620764 0.104982
H30   H     H_    0.694779 0.649138 0.506090 0.103965
H31   H     H_    0.704582 0.630497 0.390021 0.103345
H32   H     H_    0.683743 0.421618 0.331754 0.108715
H33   H     H_    0.642332 0.422169 0.421728 0.102478
H34   H     H_    0.673757 0.361296 0.523240 0.104028
H35   H     H_    0.036199 0.423427 0.730452 0.139443
H36   H     H_    0.747091 0.299779 0.535039 0.109831
H37   H     H_    0.789305 0.298880 0.446167 0.104210
H38   H     H_    0.221755 0.689826 0.559710 0.124529
H39   H     H_    0.270823 0.685253 0.478513 0.103573
H40   H     H_    0.351431 0.624522 0.506287 0.104442
H41   H     H_    0.383076 0.568091 0.615783 0.103613
H42   H     H_    0.334741 0.572298 0.697979 0.108042
H43   H     H_    0.606433 0.851895 0.513175 0.217121
H44   H     H_    0.635730 0.903734 0.526434 0.250385
H45   H     H_    0.362167 0.090948 0.466901 0.263012
H46   H     H_    0.968963 0.579482 0.275763 0.144241
H47   H     H_    0.426154 0.121157 0.473365 0.228857
H48   H     H_    0.449780 0.849470 0.517774 0.223802
H49   H     H_    0.398598 0.892814 0.501839 0.249089
H50   H     H_    0.601281 0.100040 0.507436 0.270418
H51   H     H_    0.537411 0.124028 0.511760 0.220050
H52   H     H_    0.050220 0.349470 0.482226 0.223802
H53   H     H_    0.101402 0.392814 0.498161 0.249089
H54   H     H_    0.898719 0.600040 0.492564 0.270418
H55   H     H_    0.962589 0.624028 0.488240 0.220050
H56   H     H_    0.893567 0.351895 0.486826 0.217121
H57   H     H_    0.989776 0.407127 0.302505 0.143354
H58   H     H_    0.864270 0.403734 0.473566 0.250385
H59   H     H_    0.137833 0.590948 0.533099 0.263012
H60   H     H_    0.073846 0.621157 0.526635 0.228857
H61   H     H_    0.008014 0.595272 0.693024 0.150454
H62   H     H_    0.557991 0.912698 0.866928 0.107131
H63   H     H_    0.471689 0.897207 0.895316 0.098893
H64   H     H_    0.413057 0.824882 0.858860 0.113780
H65   H     H_    0.205519 0.171997 0.121805 0.128282
H66   H     H_    0.441699 0.768056 0.794581 0.099403
H67   H     H_    0.527669 0.782936 0.765067 0.114223
H68   H     H_    0.483892 0.214709 0.246354 0.110691
H69   H     H_    0.567357 0.226577 0.211582 0.101537
H70   H     H_    0.581892 0.170590 0.132467 0.112985
H71   H     H_    0.512235 0.101904 0.086963 0.099812
H72   H     H_    0.429089 0.089236 0.121459 0.107805
H73   H     H_    0.326065 0.893642 0.027956 0.117827
H74   H     H_    0.373798 0.886789 0.945310 0.097185
H75   H     H_    0.495894 0.856943 0.017459 0.118017
H76   H     H_    0.230956 0.802350 0.170484 0.128848
H77   H     H_    0.569636 0.833943 0.170660 0.120392
H78   H     H_    0.522179 0.839354 0.253700 0.102672
H79   H     H_    0.471827 0.159656 0.736971 0.107190
H80   H     H_    0.421089 0.165406 0.816168 0.121400
H81   H     H_    0.493768 0.145581 0.971041 0.118003
H82   H     H_    0.618026 0.118249 0.048516 0.098256
H83   H     H_    0.669037 0.110879 0.969794 0.122094
H84   H     H_    0.173934 0.393642 0.972044 0.117827
H85   H     H_    0.126202 0.386789 0.054690 0.097185
H86   H     H_    0.004106 0.356943 0.982541 0.118017
H87   H     H_    0.775121 0.193459 0.838972 0.126838
H88   H     H_    0.930364 0.333943 0.829340 0.120391
H89   H     H_    0.977821 0.339354 0.746300 0.102672
H90   H     H_    0.028173 0.659656 0.263029 0.107190
H91   H     H_    0.078910 0.665406 0.183832 0.121400
H92   H     H_    0.006231 0.645581 0.028958 0.118003
H93   H     H_    0.881974 0.618248 0.951483 0.098256
H94   H     H_    0.830963 0.610879 0.030206 0.122095
H95   H     H_    0.942009 0.412698 0.133072 0.107131
H96   H     H_    0.028311 0.397207 0.104683 0.098893
H97   H     H_    0.086943 0.324882 0.141140 0.113780
H98   H     H_    0.269044 0.302350 0.829516 0.128848
H99   H     H_    0.058301 0.268056 0.205419 0.099403
H100  H     H_    0.972331 0.282936 0.234933 0.114223
H101  H     H_    0.016109 0.714709 0.753647 0.110691
H102  H     H_    0.932644 0.726577 0.788419 0.101537
H103  H     H_    0.918107 0.670590 0.867532 0.112985
H104  H     H_    0.987763 0.601904 0.913035 0.099812
H105  H     H_    0.070910 0.589236 0.878540 0.107805
H106  H     H_    0.887659 0.887314 0.907186 0.106073
H107  H     H_    0.017144 0.888320 0.979510 0.101506
H108  H     H_    0.066378 0.845528 0.919531 0.135023
H109  H     H_    0.724879 0.693459 0.161028 0.126837
H110  H     H_    0.986577 0.798216 0.790766 0.111193
H111  H     H_    0.857317 0.794816 0.720095 0.103658
H112  H     H_    0.131292 0.197300 0.264211 0.101309
H113  H     H_    0.000925 0.194698 0.186286 0.117117
H114  H     H_    0.923308 0.150682 0.051792 0.129784
H115  H     H_    0.976470 0.109724 0.994511 0.099268
H116  H     H_    0.107185 0.109622 0.074358 0.105248
H117  H     H_    0.123197 0.843019 0.182546 0.100322
H118  H     H_    0.015566 0.811282 0.156254 0.123212
H119  H     H_    0.025218 0.744432 0.233857 0.126838
H120  H     H_    0.708370 0.324415 0.129768 0.126911
H121  H     H_    0.143097 0.708343 0.336719 0.098856
H122  H     H_    0.251234 0.739335 0.362984 0.102603
H123  H     H_    0.762173 0.258095 0.657799 0.100148
H124  H     H_    0.871230 0.289173 0.686593 0.094934
H125  H     H_    0.987659 0.250960 0.784689 0.129074
H126  H     H_    0.994838 0.181541 0.854600 0.122888
H127  H     H_    0.886211 0.149920 0.826042 0.098328
H128  H     H_    0.376803 0.343019 0.817454 0.100323
H129  H     H_    0.484434 0.311282 0.843746 0.123212
H130  H     H_    0.474782 0.244432 0.766143 0.126838
H131  H     H_    0.294481 0.671997 0.878195 0.128282
H132  H     H_    0.356903 0.208343 0.663280 0.098856
H133  H     H_    0.248766 0.239335 0.637015 0.102603
H134  H     H_    0.737827 0.758095 0.342201 0.100148
H135  H     H_    0.628770 0.789173 0.313407 0.094934
H136  H     H_    0.512341 0.750960 0.215311 0.129074
H137  H     H_    0.505162 0.681541 0.145400 0.122888
H138  H     H_    0.613789 0.649920 0.173958 0.098328
H139  H     H_    0.612341 0.387314 0.092814 0.106072
H140  H     H_    0.482856 0.388320 0.020491 0.101506
H141  H     H_    0.433622 0.345528 0.080469 0.135024
H142  H     H_    0.510224 0.907126 0.697495 0.143354
H143  H     H_    0.513423 0.298215 0.209235 0.111193
H144  H     H_    0.642683 0.294815 0.279905 0.103658
H145  H     H_    0.368708 0.697301 0.735789 0.101309
H146  H     H_    0.499075 0.694698 0.813714 0.117117
H147  H     H_    0.576692 0.650682 0.948208 0.129784
H148  H     H_    0.523530 0.609724 0.005489 0.099268
H149  H     H_    0.392815 0.609622 0.925642 0.105248
H150  H     H_    0.816257 0.921618 0.668246 0.108715
H151  H     H_    0.857668 0.922169 0.578273 0.102478
H152  H     H_    0.826244 0.861296 0.476760 0.104028
N1    N     N_3   0.615142 0.881066 0.545976 -0.593751
N2    N     N_3   0.372652 0.119895 0.448393 -0.627537
N3    N     N_3   0.421652 0.876239 0.477619 -0.598689
N4    N     N_3   0.586577 0.127772 0.524008 -0.631387
N5    N     N_3   0.078348 0.376239 0.522381 -0.598690
N6    N     N_3   0.913423 0.627772 0.475992 -0.631387
N7    N     N_3   0.884858 0.381066 0.454024 -0.593750
N8    N     N_3   0.127349 0.619895 0.551607 -0.627537
O1    O     O_R   0.678810 0.768970 0.857610 -0.512542
O2    O     O_R   0.269010 0.178840 0.038010 -0.508539
O3    O     O_R   0.269010 0.821160 0.038010 -0.518457
O4    O     O_R   0.730990 0.178840 0.961990 -0.521132
O5    O     O_R   0.230990 0.321160 0.961990 -0.518457
O6    O     O_R   0.769010 0.678840 0.038010 -0.521132
O7    O     O_R   0.769010 0.321160 0.038010 -0.505846
O8    O     O_R   0.230990 0.678840 0.961990 -0.508539
O9    O     O_R   0.642490 0.723880 0.947790 -0.525614
O10   O     O_R   0.357510 0.276120 0.052210 -0.524507
O11   O     O_R   0.357510 0.723880 0.052210 -0.518104
O12   O     O_R   0.321190 0.231030 0.142390 -0.508302
O13   O     O_R   0.642490 0.276120 0.947790 -0.514925
O14   O     O_R   0.142490 0.223880 0.947790 -0.518104
O15   O     O_R   0.857510 0.776120 0.052210 -0.514925
O16   O     O_R   0.857510 0.223880 0.052210 -0.525613
O17   O     O_R   0.142490 0.776120 0.947790 -0.524507
O18   O     O_R   0.694660 0.776070 0.052170 -0.498946
O19   O     O_R   0.305340 0.223930 0.947830 -0.500324
O20   O     O_R   0.305340 0.776070 0.947830 -0.498534
O21   O     O_R   0.694660 0.223930 0.052170 -0.500454
O22   O     O_R   0.194660 0.276070 0.052170 -0.498534
O23   O     O_R   0.321190 0.768970 0.142390 -0.506652
O24   O     O_R   0.805340 0.723930 0.947830 -0.500454
O25   O     O_R   0.805340 0.276070 0.947830 -0.498947
O26   O     O_R   0.194660 0.723930 0.052170 -0.500323
O27   O     O_R   0.997960 0.545070 0.590160 -0.529056
O28   O     O_R   0.002040 0.454930 0.409840 -0.520195
O29   O     O_R   0.002040 0.545070 0.409840 -0.525136
O30   O     O_R   0.997960 0.454930 0.590160 -0.513770
O31   O     O_R   0.497960 0.045070 0.590160 -0.525136
O32   O     O_R   0.502040 0.954930 0.409840 -0.513770
O33   O     O_R   0.502040 0.045070 0.409840 -0.529056
O34   O     O_R   0.678810 0.231030 0.857610 -0.504162
O35   O     O_R   0.497960 0.954930 0.590160 -0.520195
O36   O     O_R   0.092180 0.545060 0.590150 -0.513052
O37   O     O_R   0.907820 0.454940 0.409850 -0.483933
O38   O     O_R   0.907820 0.545060 0.409850 -0.511281
O39   O     O_R   0.092180 0.454940 0.590150 -0.487329
O40   O     O_R   0.592180 0.045060 0.590150 -0.511281
O41   O     O_R   0.407820 0.954940 0.409850 -0.487330
O42   O     O_R   0.407820 0.045060 0.409850 -0.513052
O43   O     O_R   0.592180 0.954940 0.590150 -0.483934
O44   O     O_R   0.178810 0.268970 0.857610 -0.506652
O45   O     O_R   0.821190 0.731030 0.142390 -0.504162
O46   O     O_R   0.821190 0.268970 0.142390 -0.512542
O47   O     O_R   0.178810 0.731030 0.857610 -0.508302
O48   O     O_R   0.730990 0.821160 0.961990 -0.505846

loop_
_geom_bond_atom_site_label_1
_geom_bond_atom_site_label_2
_ccdc_geom_bond_type
C172  C177  A    
C105  C110  A    
C196  H35   S    
C126  C127  A    
C38   H72   S    
C217  O35   A    
C188  O3    A    
C114  C115  A    
C82   H108  S    
C14   N6    S    
C111  C118  A    
C108  H130  S    
H60   N8    S    
C174  H33   S    
C203  C215  S    
C35   C124  A    
C50   H82   S    
C94   H118  S    
C106  C107  A    
C143  C144  A    
C108  C109  A    
C41   C42   A    
C2    C90   A    
C182  C183  A    
C46   C250  A    
C147  H10   S    
C52   C187  S    
C4    C12   A    
C101  C188  S    
C72   C191  S    
H53   N5    S    
C119  C260  S    
C88   H114  S    
C59   C60   A    
C200  C208  A    
C197  C206  A    
H52   N5    S    
Cu7   O34   S    
C252  H131  S    
C45   C47   A    
C73   C74   A    
C11   C20   A    
Cu11  O17   S    
C60   H90   S    
C107  H129  S    
Cu5   O5    S    
C140  C141  A    
Cu4   O32   S    
C232  O7    A    
C226  O17   A    
Cu7   O7    S    
C75   C76   A    
C157  C191  A    
C164  H26   S    
C37   C38   A    
C89   H115  S    
C251  C260  A    
C58   H89   S    
C175  C176  A    
Cu10  O4    S    
Cu6   O23   S    
C145  C264  S    
C19   C203  A    
C26   C27   A    
C62   H92   S    
Cu9   O18   S    
C76   C77   A    
C198  H57   S    
C17   C201  A    
C154  C155  A    
C52   C58   A    
C75   H103  S    
Cu6   O11   S    
C169  H29   S    
C249  H98   S    
C255  C263  A    
C256  C264  A    
C43   C44   A    
C49   H81   S    
C1    C79   S    
C59   C189  S    
C179  C193  A    
C189  C197  A    
C16   C25   A    
C16   N8    S    
C173  H32   S    
C23   C207  A    
C96   H121  S    
C136  H152  S    
C72   C73   A    
C121  H140  S    
C120  H139  S    
C139  C140  A    
C121  C122  A    
C21   C35   A    
C222  O13   A    
C215  O32   A    
C8    C17   A    
C168  C192  A    
C213  O30   A    
C156  C158  A    
C130  C131  A    
C81   H107  S    
C128  H146  S    
C12   C21   A    
C219  O10   A    
C33   C34   A    
C69   C70   A    
C211  O37   A    
C184  H42   S    
C141  H6    S    
C209  O36   A    
C3    C11   A    
C55   H86   S    
C117  H137  S    
C206  C212  S    
C88   C89   A    
C126  C261  S    
C98   C99   A    
C246  C255  A    
C155  C156  A    
C8    N1    S    
C149  C150  A    
C165  C171  A    
C40   C41   A    
C105  C258  S    
C113  C186  A    
C139  C263  S    
C112  O12   A    
C95   C96   A    
C147  C148  A    
C249  C258  A    
C209  O27   A    
C128  C129  A    
C9    N2    S    
C167  C169  A    
C6    C172  S    
C85   C86   A    
H51   N4    S    
C220  C229  S    
C31   H67   S    
C225  C234  S    
C183  H41   S    
C6    C260  A    
C36   C37   A    
C74   H102  S    
C78   C80   A    
C170  C171  A    
C153  H16   S    
C115  C116  A    
C61   H91   S    
C204  C214  S    
C22   C206  A    
H55   N6    S    
C174  C175  A    
Cu10  O46   S    
Cu3   O31   S    
C83   C84   A    
Cu7   O13   S    
C107  C108  A    
Cu12  O30   S    
C219  C228  S    
C89   C91   A    
C25   C208  A    
C84   H111  S    
C247  C256  A    
C66   C67   A    
C207  C211  S    
C112  O2    A    
C230  C239  T    
C101  C185  A    
C161  H22   S    
Cu3   O42   S    
C69   H97   S    
C197  H46   S    
C92   C97   A    
H43   N1    S    
C135  C221  S    
C216  O42   A    
C17   C254  A    
C93   H117  S    
C155  H18   S    
C177  H37   S    
C191  C200  A    
Cu11  O3    S    
C39   C40   A    
C3    C257  A    
C103  H126  S    
C231  C240  T    
C160  H21   S    
Cu4   O43   S    
Cu11  O20   S    
C29   C30   A    
C199  O34   A    
C87   H113  S    
Cu2   O29   S    
C200  H61   S    
H54   N6    S    
C213  O39   A    
C145  C151  A    
C70   C71   A    
Cu8   O19   S    
C71   H100  S    
C234  C242  T    
Cu1   Cu9   S    
C33   H68   S    
Cu6   O26   S    
C150  H14   S    
Cu9   O15   S    
C250  C259  A    
C106  H128  S    
C120  C121  A    
C132  C262  S    
C129  C130  A    
C23   C57   A    
C54   C55   A    
C137  H3    S    
C156  H19   S    
C198  C207  A    
C78   C253  S    
Cu6   Cu11  S    
C136  C137  A    
Cu3   Cu4   S    
C39   C44   A    
C220  O20   A    
C30   H66   S    
C241  C244  S    
C14   C22   A    
C12   N5    S    
C117  C118  A    
C28   H63   S    
C124  C210  S    
C170  H30   S    
C215  O41   A    
C56   C58   A    
C7    C261  A    
C246  H65   S    
C34   C36   A    
Cu1   O1    S    
C61   C62   A    
C37   H71   S    
C42   H75   S    
C9    C18   A    
C152  C153  A    
C222  C230  S    
C83   H110  S    
C49   C50   A    
C100  H124  S    
C1    O1    A    
C159  C164  A    
C214  O40   A    
C51   H83   S    
Cu4   O40   S    
C224  O15   A    
C162  H23   S    
Cu7   Cu10  S    
C55   C56   A    
C187  C196  A    
Cu12  O37   S    
C185  C194  A    
C127  H145  S    
C219  O19   A    
C161  C162  A    
C181  C182  A    
C52   C53   A    
C227  C236  T    
C3    C152  S    
C165  C166  A    
C28   C29   A    
C224  O24   A    
C134  H151  S    
C30   C31   A    
Cu9   O48   S    
Cu8   O2    S    
C118  H138  S    
C4    C159  S    
C216  O33   A    
C132  C138  A    
C5    C259  A    
C77   H105  S    
C214  O31   A    
C192  H142  S    
C212  O29   A    
C131  H149  S    
C115  H135  S    
C46   C135  A    
C251  H120  S    
H48   N3    S    
C56   H88   S    
C43   H77   S    
Cu2   Cu12  S    
C208  C209  S    
C192  C201  A    
C211  O28   A    
C70   H99   S    
C95   H119  S    
C225  O25   A    
C68   C252  A    
C181  H39   S    
C205  C213  S    
C222  O21   A    
C182  H40   S    
C57   C146  A    
C86   H112  S    
C25   C68   A    
C212  O38   A    
Cu1   O9    S    
C111  C259  S    
C145  C147  A    
C223  C231  S    
C152  C158  A    
C85   C255  S    
C13   C19   A    
Cu10  O16   S    
H58   N7    S    
C20   C204  A    
C86   C87   A    
C195  C204  A    
C53   C54   A    
Cu5   O10   S    
C7    C178  S    
C60   C61   A    
C217  O43   A    
C62   C63   A    
C218  O18   A    
C142  H7    S    
C41   H74   S    
C159  C160  A    
C10   C19   A    
C26   C168  S    
C50   C51   A    
C143  H8    S    
C18   C202  A    
C243  O8    A    
C5    C14   A    
C122  H141  S    
C92   C256  S    
C98   C257  S    
C99   H123  S    
C7    C16   A    
C22   C46   A    
C133  C134  A    
C149  H12   S    
Cu8   O44   S    
C42   C43   A    
C53   H84   S    
C68   C157  A    
C221  O45   A    
C218  C227  S    
C180  C181  A    
C190  C198  A    
C162  C163  A    
C193  H2    S    
C44   H78   S    
C218  O9    A    
C178  C180  A    
C119  C120  A    
C195  H24   S    
C105  C106  A    
C32   C33   A    
C2    C246  A    
C158  H20   S    
C228  C237  T    
C109  C110  A    
C104  H127  S    
C166  H27   S    
C245  C253  A    
C175  H34   S    
C48   C49   A    
C92   C93   A    
C79   C254  A    
C236  C238  S    
C111  C114  A    
C151  H15   S    
C94   C95   A    
C48   H80   S    
C235  C244  T    
C210  O44   A    
C66   H95   S    
C193  C202  A    
C76   H104  S    
C65   C190  S    
C87   C88   A    
C82   C83   A    
Cu5   Cu8   S    
C103  C104  A    
C142  C143  A    
H49   N3    S    
Cu12  O27   S    
C229  C238  T    
H50   N4    S    
C223  O22   A    
C253  C262  A    
C67   H96   S    
C154  H17   S    
C93   C94   A    
H45   N2    S    
C2    C18   A    
C123  H143  S    
C169  C170  A    
C250  H109  S    
C163  C164  A    
C220  O11   A    
C90   C112  S    
C140  H5    S    
C224  C233  S    
H56   N7    S    
C221  O6    A    
Cu3   O41   S    
C81   C82   A    
C85   C91   A    
C146  C232  S    
C173  C174  A    
Cu5   O22   S    
C232  O46   A    
C171  H31   S    
C59   C64   A    
Cu5   O12   S    
C1    O48   A    
C73   H101  S    
C45   C186  S    
C125  H144  S    
C45   C51   A    
H47   N2    S    
C21   C205  A    
C35   C249  A    
C116  C117  A    
C133  H150  S    
C36   H70   S    
C196  C205  A    
Cu2   O28   S    
C135  C189  A    
Cu11  O47   S    
C123  C125  A    
C6    C15   A    
C10   N3    S    
Cu9   O45   S    
C27   H62   S    
C20   C24   A    
C167  H28   S    
C148  H11   S    
C32   C179  S    
C243  O47   A    
C5    C165  S    
C79   C168  A    
C40   H73   S    
C54   H85   S    
C15   C23   A    
C34   H69   S    
C247  H76   S    
C24   C113  A    
C110  H133  S    
Cu10  O21   S    
C102  C103  A    
C80   H106  S    
Cu4   O33   S    
C8    C262  A    
Cu2   O39   S    
C223  O14   A    
C113  C199  S    
C97   H122  S    
C116  H136  S    
C74   C75   A    
C63   H93   S    
C47   C48   A    
C130  H148  S    
C186  C195  A    
Cu8   O14   S    
C148  C149  A    
Cu1   O6    S    
H44   N1    S    
C129  H147  S    
C132  C133  A    
C138  H4    S    
C134  C136  A    
C65   C71   A    
C199  O4    A    
C114  H134  S    
C226  C235  S    
C63   C64   A    
C67   C69   A    
C39   C185  S    
C183  C184  A    
C72   C77   A    
Cu1   O24   S    
C15   N7    S    
Cu6   O8    S    
C139  C144  A    
C99   C100  A    
C96   C97   A    
C100  C102  A    
C240  C242  S    
C11   N4    S    
Cu7   O25   S    
C252  C261  A    
C233  C241  T    
C176  C177  A    
C32   C38   A    
C237  C239  S    
C102  H125  S    
C166  C167  A    
C24   C248  A    
C57   C251  A    
C13   C101  A    
C210  O5    A    
C119  C125  A    
C47   H79   S    
C172  C173  A    
C176  H36   S    
C90   C179  A    
C226  O26   A    
C4    C258  A    
C188  O23   A    
C13   C247  A    
C144  H9    S    
C150  C151  A    
Cu12  O38   S    
C91   H116  S    
C80   C81   A    
C124  C187  A    
C245  H1    S    
C137  C138  A    
C160  C161  A    
C157  C243  S    
C201  C217  S    
C248  H87   S    
C141  C142  A    
Cu2   O36   S    
C180  H38   S    
C126  C131  A    
C98   C104  A    
C194  C203  A    
C9    C263  A    
C225  O16   A    
C10   C264  A    
C64   H94   S    
C245  C254  A    
C248  C257  A    
C163  H25   S    
C78   C84   A    
C26   C31   A    
C109  H132  S    
C29   H64   S    
C65   C66   A    
C27   C28   A    
C122  C123  A    
H59   N8    S    
C146  C190  A    
C202  C216  S    
C153  C154  A    
C178  C184  A    
C127  C128  A    
C194  H13   S    
Cu3   O35   S    
