data_mof_unit_56261.cif
_audit_creation_date              2012-12-10T20:43:26-0500
_audit_creation_method            fapswitch 2.2
_symmetry_space_group_name_H-M    P1
_symmetry_Int_Tables_number       1
_space_group_crystal_system       triclinic
_cell_length_a                    18.764188
_cell_length_b                    18.730477
_cell_length_c                    18.772729
_cell_angle_alpha                 109.616995
_cell_angle_beta                  109.649617
_cell_angle_gamma                 109.461001
_cell_volume                      5059.28258767

loop_
_atom_site_label
_atom_site_type_symbol
_atom_type_description
_atom_site_fract_x
_atom_site_fract_y
_atom_site_fract_z
_atom_type_partial_charge
C1    C     C_R   0.381652 0.501844 0.379922 0.871623
C2    C     C_R   0.801174 0.867580 0.840563 -0.195656
C3    C     C_R   0.951283 0.729578 0.958111 -0.105206
C4    C     C_R   0.940151 0.722941 0.026058 -0.154217
C5    C     C_R   0.010609 0.776498 0.112673 0.136606
C6    C     C_R   0.288333 0.520237 0.033400 -0.137412
C7    C     C_R   0.212545 0.464026 0.951143 -0.162143
C8    C     C_R   0.171223 0.372583 0.915543 0.027992
C9    C     C_R   0.215230 0.337901 0.959059 0.229376
C10   C     C_R   0.291517 0.395562 0.041907 -0.194952
C11   C     C_R   0.326450 0.486040 0.079733 -0.132327
C12   C     C_R   0.080210 0.250262 0.762149 -0.193448
C13   C     C_R   0.823769 0.819611 0.574740 -0.256088
C14   C     C_R   0.999352 0.185357 0.686981 -0.098253
C15   C     C_R   0.921129 0.184009 0.677828 -0.005402
C16   C     C_R   0.926351 0.249210 0.745466 -0.276354
C17   C     C_R   0.007011 0.313995 0.820721 -0.093141
C18   C     C_R   0.085535 0.314060 0.831359 0.011424
C19   C     C_R   0.779714 0.140623 0.553438 -0.157045
C20   C     C_R   0.698046 0.076705 0.478601 -0.144823
C21   C     C_R   0.669822 0.987882 0.449052 -0.120343
C22   C     C_R   0.722680 0.963019 0.495090 -0.107980
C23   C     C_R   0.803302 0.026557 0.571144 -0.102041
C24   C     C_R   0.812042 0.810400 0.494449 -0.084722
C25   C     C_R   0.833524 0.115973 0.599746 0.131790
C26   C     C_R   0.733731 0.743176 0.415240 -0.063822
C27   C     C_R   0.674040 0.677110 0.417929 -0.065041
C28   C     C_R   0.685719 0.687631 0.500040 -0.135381
C29   C     C_R   0.758459 0.762836 0.579257 -0.014843
C30   C     C_R   0.633882 0.748745 0.291304 -0.153589
C31   C     C_R   0.611673 0.753080 0.214568 -0.136982
C32   C     C_R   0.665391 0.754779 0.177925 -0.126486
C33   C     C_R   0.621616 0.620614 0.501732 0.877411
C34   C     C_R   0.741203 0.751906 0.217892 -0.120783
C35   C     C_R   0.762878 0.746202 0.293991 -0.087592
C36   C     C_R   0.709737 0.745003 0.331702 0.133840
C37   C     C_R   0.444877 0.812840 0.512431 -0.178671
C38   C     C_R   0.376117 0.728577 0.444701 0.059772
C39   C     C_R   0.393686 0.669303 0.393443 0.082482
C40   C     C_R   0.479734 0.696371 0.410895 -0.147465
C41   C     C_R   0.547591 0.780295 0.478523 -0.157469
C42   C     C_R   0.530370 0.838601 0.529177 -0.147678
C43   C     C_R   0.258983 0.576065 0.249728 -0.230014
C44   C     C_R   0.618952 0.498956 0.620274 0.869417
C45   C     C_R   0.185446 0.495339 0.182486 -0.060842
C46   C     C_R   0.174131 0.416689 0.182407 0.005541
C47   C     C_R   0.242742 0.421222 0.246231 -0.265176
C48   C     C_R   0.315964 0.502248 0.313668 -0.071636
C49   C     C_R   0.322385 0.581024 0.318560 -0.007756
C50   C     C_R   0.051934 0.283948 0.155684 -0.157270
C51   C     C_R   0.973239 0.203947 0.099731 -0.137598
C52   C     C_R   0.932532 0.170038 0.009302 -0.130182
C53   C     C_R   0.970801 0.215852 0.974765 -0.127613
C54   C     C_R   0.050499 0.295034 0.030497 -0.087338
C55   C     C_R   0.378042 0.379749 0.498049 0.871193
C56   C     C_R   0.091263 0.330636 0.121597 0.121208
C57   C     C_R   0.223176 0.526468 0.579372 0.068470
C58   C     C_R   0.233139 0.454893 0.576759 -0.191322
C59   C     C_R   0.228267 0.396402 0.502562 0.123571
C60   C     C_R   0.212367 0.409569 0.430725 -0.145319
C61   C     C_R   0.201417 0.480429 0.433053 -0.137104
C62   C     C_R   0.207062 0.538949 0.507294 -0.142972
C63   C     C_R   0.177973 0.255784 0.500568 -0.258597
C64   C     C_R   0.186524 0.183663 0.497553 -0.077868
C65   C     C_R   0.257978 0.176125 0.494805 0.013544
C66   C     C_R   0.725929 0.850324 0.772283 -0.193864
C67   C     C_R   0.318953 0.241206 0.493116 -0.267215
C68   C     C_R   0.310411 0.313127 0.496122 -0.081457
C69   C     C_R   0.239912 0.321470 0.500353 0.007081
C70   C     C_R   0.348676 0.116399 0.554634 -0.171172
C71   C     C_R   0.366159 0.047657 0.546829 0.281783
C72   C     C_R   0.303926 0.962873 0.475071 -0.168293
C73   C     C_R   0.226080 0.947358 0.411675 -0.153533
C74   C     C_R   0.209342 0.016130 0.419264 -0.132644
C75   C     C_R   0.270540 0.101126 0.490834 0.082765
C76   C     C_R   0.544867 0.561536 0.853250 -0.137445
C77   C     C_R   0.710924 0.814110 0.686956 -0.091810
C78   C     C_R   0.615320 0.564542 0.841453 -0.144315
C79   C     C_R   0.602147 0.494215 0.769880 0.136137
C80   C     C_R   0.517966 0.420375 0.711075 -0.136398
C81   C     C_R   0.447858 0.417313 0.723660 -0.121717
C82   C     C_R   0.461179 0.488008 0.794335 -0.105059
C83   C     C_R   0.742504 0.496328 0.820484 -0.260562
C84   C     C_R   0.813429 0.497157 0.811075 -0.087854
C85   C     C_R   0.820909 0.499391 0.739562 -0.009357
C86   C     C_R   0.755416 0.499719 0.677486 -0.248893
C87   C     C_R   0.684186 0.498174 0.686549 -0.071941
C88   C     C_R   0.768019 0.789248 0.667608 0.081277
C89   C     C_R   0.677203 0.497016 0.758559 -0.002498
C90   C     C_R   0.950189 0.569188 0.724800 -0.160915
C91   C     C_R   0.018129 0.567573 0.710225 -0.130723
C92   C     C_R   0.030005 0.495278 0.696312 -0.105287
C93   C     C_R   0.974017 0.424529 0.696944 -0.133665
C94   C     C_R   0.906303 0.426081 0.712010 -0.122509
C95   C     C_R   0.894106 0.498565 0.726229 0.141342
C96   C     C_R   0.995672 0.875446 0.379997 0.860149
C97   C     C_R   0.879539 0.877705 0.497278 0.862586
C98   C     C_R   0.999529 0.119724 0.620201 0.865174
C99   C     C_R   0.843895 0.807011 0.736901 -0.199444
C100  C     C_R   0.120297 0.118464 0.498474 0.874504
C101  C     C_R   0.005213 0.380136 0.885270 0.864201
C102  C     C_R   0.119880 0.497543 0.117876 0.862459
C103  C     C_R   0.000557 0.620296 0.120456 0.882597
C104  C     C_R   0.879828 0.498533 0.878448 0.879233
C105  C     C_R   0.999120 0.735208 0.524442 -0.190772
C106  C     C_R   0.026946 0.751440 0.468281 0.029400
C107  C     C_R   0.967087 0.705672 0.377230 -0.026998
C108  C     C_R   0.885081 0.631030 0.342461 0.160007
C109  C     C_R   0.858064 0.615966 0.400362 -0.000018
C110  C     C_R   0.862143 0.848795 0.823797 0.288951
C111  C     C_R   0.914127 0.670199 0.490841 -0.201756
C112  C     C_R   0.995428 0.672854 0.253962 -0.175639
C113  C     C_R   0.000850 0.686494 0.186907 -0.100219
C114  C     C_R   0.003599 0.760796 0.182739 -0.013279
C115  C     C_R   0.000519 0.821083 0.246866 -0.286355
C116  C     C_R   0.994698 0.807625 0.314074 -0.095433
C117  C     C_R   0.990114 0.731698 0.317404 0.039902
C118  C     C_R   0.091159 0.838615 0.130847 -0.133613
C119  C     C_R   0.102147 0.844492 0.062582 -0.156690
C120  C     C_R   0.032757 0.788878 0.976175 -0.089475
H1    H     H_    0.813658 0.898754 0.906943 0.122489
H2    H     H_    0.648531 0.758778 0.118842 0.119078
H3    H     H_    0.783342 0.754441 0.190016 0.131211
H4    H     H_    0.821988 0.744695 0.324819 0.112186
H5    H     H_    0.583376 0.903655 0.581639 0.138841
H6    H     H_    0.432304 0.858630 0.552256 0.125537
H7    H     H_    0.493754 0.652420 0.371358 0.114636
H8    H     H_    0.613768 0.799699 0.492289 0.129802
H9    H     H_    0.264986 0.636189 0.250883 0.154866
H10   H     H_    0.237309 0.361555 0.245874 0.148575
H11   H     H_    0.680654 0.867887 0.785931 0.138894
H12   H     H_    0.081592 0.310017 0.225700 0.124739
H13   H     H_    0.943464 0.168607 0.126584 0.131205
H14   H     H_    0.871301 0.108387 0.966029 0.128018
H15   H     H_    0.938829 0.189772 0.904694 0.137286
H16   H     H_    0.080131 0.329125 0.002894 0.113172
H17   H     H_    0.198922 0.593879 0.508610 0.152055
H18   H     H_    0.245811 0.445250 0.632598 0.124422
H19   H     H_    0.208347 0.364851 0.373117 0.103165
H20   H     H_    0.188694 0.490158 0.377396 0.156452
H21   H     H_    0.655413 0.807027 0.636349 0.151308
H22   H     H_    0.122972 0.260977 0.503425 0.154955
H23   H     H_    0.374198 0.236376 0.490539 0.156558
H24   H     H_    0.396022 0.181989 0.610060 0.134084
H25   H     H_    0.316061 0.908930 0.467839 0.135530
H26   H     H_    0.179353 0.881997 0.356052 0.159907
H27   H     H_    0.149920 0.003782 0.368486 0.113556
H28   H     H_    0.406743 0.485590 0.803705 0.123203
H29   H     H_    0.555221 0.616060 0.908264 0.124688
H30   H     H_    0.679985 0.621688 0.887726 0.119884
H31   H     H_    0.890490 0.791750 0.723601 0.132627
H32   H     H_    0.506972 0.365092 0.656251 0.101759
H33   H     H_    0.383227 0.360050 0.678956 0.141809
H34   H     H_    0.738317 0.495574 0.876526 0.155747
H35   H     H_    0.759856 0.501129 0.621745 0.156381
H36   H     H_    0.941417 0.625436 0.735272 0.119114
H37   H     H_    0.061345 0.622203 0.709380 0.142247
H38   H     H_    0.082274 0.493778 0.684601 0.138885
H39   H     H_    0.982948 0.368374 0.685269 0.143496
H40   H     H_    0.862842 0.370676 0.711728 0.100842
H41   H     H_    0.893701 0.659043 0.535532 0.151670
H42   H     H_    0.043897 0.771968 0.594547 0.139889
H43   H     H_    0.992780 0.614600 0.255371 0.169133
H44   H     H_    0.003467 0.879171 0.244842 0.156623
H45   H     H_    0.146187 0.879925 0.197270 0.123220
H46   H     H_    0.164865 0.891109 0.076482 0.126788
H47   H     H_    0.041861 0.792279 0.923214 0.142772
H48   H     H_    0.897278 0.687782 0.891275 0.141757
H49   H     H_    0.881473 0.876142 0.634899 0.158151
H50   H     H_    0.877732 0.674431 0.011030 0.106702
H51   H     H_    0.385115 0.529779 0.143575 0.156987
H52   H     H_    0.318002 0.590524 0.060917 0.132931
H53   H     H_    0.187351 0.492292 0.914558 0.166738
H54   H     H_    0.324876 0.370125 0.076461 0.149245
H55   H     H_    0.139604 0.250248 0.767471 0.169133
H56   H     H_    0.866908 0.249587 0.739482 0.153666
H57   H     H_    0.801497 0.209210 0.574612 0.125547
H58   H     H_    0.657096 0.096043 0.442975 0.132442
H59   H     H_    0.607218 0.938328 0.390364 0.127469
H60   H     H_    0.701821 0.894542 0.471267 0.128105
H61   H     H_    0.842951 0.006109 0.606677 0.099791
H62   H     H_    0.592281 0.748973 0.319673 0.115079
H63   H     H_    0.553143 0.755779 0.183901 0.123892
O1    O     O_R   0.408360 0.551710 0.460090 -0.608801
O2    O     O_R   0.948280 0.908380 0.356650 -0.629755
O3    O     O_R   0.960110 0.908350 0.551690 -0.625380
O4    O     O_R   0.856660 0.908370 0.448270 -0.614313
O5    O     O_R   0.051720 0.091580 0.643310 -0.621753
O6    O     O_R   0.948270 0.091600 0.539890 -0.610047
O7    O     O_R   0.143340 0.091590 0.551680 -0.610454
O8    O     O_R   0.039890 0.091610 0.448270 -0.624957
O9    O     O_R   0.051730 0.460050 0.908360 -0.625847
O10   O     O_R   0.948290 0.356630 0.908390 -0.627321
O11   O     O_R   0.143340 0.551690 0.091580 -0.628235
O12   O     O_R   0.408400 0.448280 0.356670 -0.619590
O13   O     O_R   0.039900 0.448270 0.091610 -0.616368
O14   O     O_R   0.051710 0.643320 0.091560 -0.609643
O15   O     O_R   0.948270 0.539900 0.091590 -0.620254
O16   O     O_R   0.960100 0.551680 0.908340 -0.602835
O17   O     O_R   0.856660 0.448270 0.908370 -0.623971
O18   O     O_R   0.591600 0.643340 0.551710 -0.625936
O19   O     O_R   0.591630 0.539900 0.448290 -0.602353
O20   O     O_R   0.591600 0.551720 0.643330 -0.609025
O21   O     O_R   0.591640 0.448290 0.539910 -0.626666
O22   O     O_R   0.408370 0.460100 0.551710 -0.603331
O23   O     O_R   0.408400 0.356660 0.448290 -0.630902
O24   O     O_R   0.051730 0.908360 0.460060 -0.609946
Zn1   Zn    Zn3+2 0.499980 0.569060 0.569060 0.985565
Zn2   Zn    Zn3+2 0.500020 0.430940 0.430940 0.972339
Zn3   Zn    Zn3+2 0.069070 0.999960 0.569030 0.965301
Zn4   Zn    Zn3+2 0.930930 0.999990 0.430930 0.965430
Zn5   Zn    Zn3+2 0.069070 0.569030 0.999960 0.957945
Zn6   Zn    Zn3+2 0.930930 0.430930 0.000000 0.961343
C121  C     C_1   0.288444 0.704534 0.428947 0.106380
N1    N     N_1   0.218134 0.685385 0.416049 -0.226267
C122  C     C_1   0.230319 0.587606 0.656297 0.102696
N2    N     N_1   0.236223 0.636896 0.718176 -0.231436
N3    N     N_2   0.445376 0.063354 0.611625 -0.309312
H64   H     H_    0.444757 0.007501 0.609854 0.216567
C123  C     C_3   0.524590 0.122158 0.619537 -0.802670
H65   H     H_    0.582364 0.130815 0.672200 0.243065
H66   H     H_    0.530967 0.187666 0.637101 0.244390
H67   H     H_    0.524450 0.094420 0.557000 0.239392
N4    N     N_2   0.942896 0.874669 0.894582 -0.320393
H68   H     H_    0.943217 0.888888 0.952814 0.230798
C124  C     C_3   0.019547 0.941441 0.905874 -0.832858
H69   H     H_    0.079186 0.957229 0.962265 0.242069
H70   H     H_    0.015728 0.002152 0.919169 0.250208
H71   H     H_    0.025692 0.918001 0.846695 0.242089
C125  C     C_1   0.118944 0.809317 0.504796 0.215780
N5    N     N_1   0.192833 0.855535 0.534611 -0.211342
N6    N     N_2   0.837286 0.564917 0.252067 -0.307445
H72   H     H_    0.810405 0.501624 0.240636 0.231927
C126  C     C_3   0.776846 0.576802 0.192114 -0.773594
H73   H     H_    0.724370 0.575330 0.207543 0.247928
H74   H     H_    0.746081 0.522702 0.124217 0.241764
H75   H     H_    0.812024 0.639068 0.194692 0.246873
C127  C     C_1   0.773412 0.544058 0.367949 0.144899
N7    N     N_1   0.705572 0.486331 0.342005 -0.190176
N8    N     N_2   0.190274 0.247509 0.916374 -0.313304
H76   H     H_    0.242148 0.236470 0.934611 0.223533
C128  C     C_3   0.117213 0.188104 0.915780 -0.795892
H77   H     H_    0.103054 0.119977 0.879254 0.241369
H78   H     H_    0.057794 0.190447 0.881825 0.254429
H79   H     H_    0.133194 0.204442 0.983816 0.243379
C129  C     C_1   0.599776 0.600213 0.335934 0.186038
N9    N     N_1   0.540777 0.539093 0.270607 -0.212090

loop_
_geom_bond_atom_site_label_1
_geom_bond_atom_site_label_2
_ccdc_geom_bond_type
C10   H54   S    
C66   H11   S    
C11   H51   S    
C34   H3    S    
C5    C114  S    
C104  O17   A    
C41   C42   A    
C35   C36   A    
C111  H41   S    
C101  O9    A    
C110  N4    S    
N4    H68   S    
C123  H66   S    
C81   C82   A    
C57   C58   A    
C7    C8    A    
C83   H34   S    
C6    H52   S    
C45   C46   A    
C116  C117  A    
C78   H30   S    
C26   C27   A    
C93   C94   A    
C71   N3    S    
C4    H50   S    
C13   C29   A    
C28   C29   A    
C103  C113  S    
C76   C78   A    
O12   Zn2   S    
C109  C111  A    
C103  O14   A    
C112  C117  A    
C2    H1    S    
C106  C107  A    
C15   C16   A    
C61   H20   S    
C33   O19   A    
C115  H44   S    
C81   H33   S    
C108  C109  A    
C92   H38   S    
C34   C35   A    
C73   C74   A    
C33   O18   A    
C37   C42   A    
C66   C77   A    
C17   C101  S    
C118  C119  A    
O9    Zn5   S    
C29   C88   S    
C98   O5    A    
C42   H5    S    
C46   C47   A    
O5    Zn3   S    
O18   Zn1   S    
C2    C110  A    
C83   C84   A    
C77   C88   A    
C16   C17   A    
C65   C67   A    
C53   H15   S    
O21   Zn2   S    
C44   O20   A    
C128  H78   S    
C107  C108  A    
O2    Zn4   S    
C70   C71   A    
C44   C87   S    
C9    C10   A    
C19   H57   S    
C61   C62   A    
C90   C91   A    
C72   C73   A    
C58   H18   S    
C13   H49   S    
C105  C111  A    
C67   H23   S    
C59   C60   A    
C21   C22   A    
C30   H62   S    
C41   H8    S    
C125  N5    T    
C126  H74   S    
C38   C121  S    
C98   O6    A    
C55   O22   A    
C102  O11   A    
N6    C126  S    
C123  H65   S    
C1    O1    A    
C101  O10   A    
C3    H48   S    
C14   C98   S    
C77   H21   S    
C85   C95   S    
C97   O3    A    
C83   C89   A    
C54   C56   A    
C128  H79   S    
C91   H37   S    
C74   C75   A    
C47   H10   S    
C51   C52   A    
C47   C48   A    
C32   H2    S    
C74   H27   S    
C43   H9    S    
C38   C39   A    
C122  N2    T    
C22   H60   S    
O6    Zn4   S    
C114  C115  A    
C76   C82   A    
C91   C92   A    
C112  H43   S    
C55   C68   S    
C121  N1    T    
C8    C9    A    
C96   O24   A    
C20   H58   S    
C57   C62   A    
C58   C59   A    
C53   C54   A    
C99   C110  A    
C99   H31   S    
C50   C56   A    
C67   C68   A    
C13   C24   A    
C102  O13   A    
C60   C61   A    
C1    O12   A    
C126  H75   S    
C32   C34   A    
C86   H35   S    
C37   C38   A    
O24   Zn3   S    
N3    C123  S    
C31   C32   A    
C14   C15   A    
C57   C122  S    
C21   H59   S    
C54   H16   S    
C9    N8    S    
N8    C128  S    
C128  H77   S    
C50   C51   A    
C84   C85   A    
O10   Zn6   S    
C92   C93   A    
C43   C45   A    
C119  H46   S    
C85   C86   A    
C113  C114  A    
C50   H12   S    
C59   C69   S    
C12   H55   S    
C123  H67   S    
C26   C36   S    
C40   C41   A    
C39   C49   S    
C12   C14   A    
C28   C33   S    
C124  H70   S    
C10   C11   A    
O3    Zn3   S    
C84   C104  S    
C104  O16   A    
C79   C80   A    
C27   C129  S    
C100  O8    A    
C126  H73   S    
O19   Zn2   S    
C90   H36   S    
C3    C4    A    
C109  C127  S    
C6    C11   A    
C52   C53   A    
C86   C87   A    
C115  C116  A    
C37   H6    S    
C108  N6    S    
O22   Zn1   S    
C105  H42   S    
C3    C120  A    
C80   H32   S    
C55   O23   A    
C97   O4    A    
C129  N9    T    
C35   H4    S    
C94   H40   S    
C31   H63   S    
C78   C79   A    
C96   O2    A    
C68   C69   A    
C43   C49   A    
C24   C26   A    
O4    Zn4   S    
C80   C81   A    
C2    C66   A    
N4    C124  S    
C82   H28   S    
C119  C120  A    
C1    C48   S    
C23   H61   S    
C6    C7    A    
C40   H7    S    
C112  C113  A    
C124  H71   S    
C105  C106  A    
C5    C118  A    
C118  H45   S    
C70   H24   S    
O1    Zn1   S    
C17   C18   A    
C30   C36   A    
C73   H26   S    
O16   Zn5   S    
C64   C65   A    
C19   C20   A    
C87   C89   A    
O7    Zn3   S    
C63   C69   A    
O14   Zn5   S    
N8    H76   S    
O13   Zn6   S    
C51   H13   S    
O23   Zn2   S    
C16   H56   S    
N3    H64   S    
C30   C31   A    
C76   H29   S    
C48   C49   A    
C4    C5    A    
C7    H53   S    
C127  N7    T    
N6    H72   S    
C63   H22   S    
C107  C117  S    
O20   Zn1   S    
C100  O7    A    
C24   C97   S    
C23   C25   A    
C62   H17   S    
C94   C95   A    
C19   C25   A    
C8    C18   S    
C79   C89   S    
C88   C99   A    
C15   C25   S    
C45   C102  S    
C60   H19   S    
O11   Zn5   S    
C63   C64   A    
C39   C40   A    
C106  C125  S    
C52   H14   S    
C64   C100  S    
C71   C72   A    
C20   C21   A    
C93   H39   S    
C124  H69   S    
C12   C18   A    
C70   C75   A    
C44   O21   A    
C22   C23   A    
C96   C116  S    
C46   C56   S    
O15   Zn6   S    
C103  O15   A    
C90   C95   A    
C65   C75   S    
C72   H25   S    
C120  H47   S    
O8    Zn4   S    
C27   C28   A    
O17   Zn6   S    
