data_mof_unit_6686.cif
_audit_creation_date              2012-10-26T19:13:52-0400
_audit_creation_method            fapswitch 2.2
_symmetry_space_group_name_H-M    P1
_symmetry_Int_Tables_number       1
_space_group_crystal_system       triclinic
_cell_length_a                    15.179832
_cell_length_b                    13.91163
_cell_length_c                    10.616564
_cell_angle_alpha                 89.854962
_cell_angle_beta                  91.378394
_cell_angle_gamma                 89.998972
_cell_volume                      2241.30976762

loop_
_atom_site_label
_atom_site_type_symbol
_atom_type_description
_atom_site_fract_x
_atom_site_fract_y
_atom_site_fract_z
_atom_type_partial_charge
C1    C     C_R   0.329833 0.499919 0.503544 0.572956
C2    C     C_R   0.555309 0.790990 0.579838 0.374476
C3    C     C_R   0.501232 0.054542 0.496009 -0.052725
C4    C     C_R   0.501879 0.945181 0.494892 -0.047321
C5    C     C_R   0.501196 0.500183 0.259452 0.564357
C6    C     C_R   0.501560 0.499739 0.740657 0.565675
C7    C     C_3   0.504411 0.591974 0.040118 -0.146803
C8    C     C_3   0.502286 0.407234 0.960121 -0.122701
C9    C     C_3   0.576672 0.544839 0.960170 -0.187440
C10   C     C_3   0.429649 0.454411 0.039878 -0.163956
C11   C     C_3   0.432619 0.545261 0.956187 0.260806
C12   C     C_R   0.670237 0.499904 0.500044 0.578058
C13   C     C_3   0.573880 0.454425 0.044284 0.265420
C14   C     C_3   0.503623 0.498871 0.877391 0.024001
C15   C     C_3   0.502567 0.500610 0.122894 0.034583
C16   C     C_R   0.092333 0.578245 0.473652 -0.127996
C17   C     C_R   0.905480 0.416748 0.464354 -0.138949
C18   C     C_R   0.906574 0.575255 0.557110 -0.128137
C19   C     C_R   0.096182 0.416347 0.556688 -0.134368
C20   C     C_R   0.183882 0.582098 0.477077 0.212429
C21   C     C_R   0.812887 0.416087 0.461629 0.220221
C22   C     C_R   0.815022 0.579802 0.546790 0.212125
C23   C     C_R   0.540072 0.106728 0.595872 -0.164622
C24   C     C_R   0.188866 0.415611 0.553439 0.213587
C25   C     C_R   0.232934 0.499207 0.511034 0.019584
C26   C     C_R   0.767300 0.498963 0.502124 0.030711
C27   C     C_R   0.048372 0.496231 0.514011 -0.049469
C28   C     C_R   0.951932 0.495337 0.513432 -0.049015
C29   C     C_3   0.282378 0.581412 0.956308 -0.010545
C30   C     C_3   0.232400 0.500622 0.887559 -0.246887
C31   C     C_3   0.146043 0.477056 0.951380 -0.484754
C32   C     C_3   0.720887 0.414089 0.027318 0.007755
C33   C     C_3   0.794183 0.349315 0.080298 -0.244863
C34   C     C_R   0.441079 0.891872 0.421426 -0.169010
C35   C     C_3   0.874549 0.350829 0.996587 -0.505833
C36   C     C_3   0.219752 0.733365 0.538699 -0.090391
C37   C     C_3   0.797267 0.250274 0.449132 -0.117674
C38   C     C_3   0.785364 0.736890 0.504096 -0.086280
C39   C     C_3   0.201220 0.249240 0.577962 -0.129811
C40   C     C_3   0.665271 0.217608 0.736034 -0.005155
C41   C     C_3   0.650953 0.174540 0.867227 -0.276788
C42   C     C_3   0.728022 0.110639 0.908903 -0.494286
C43   C     C_3   0.371318 0.774040 0.222184 0.015194
C44   C     C_3   0.278367 0.816347 0.207364 -0.259436
C45   C     C_R   0.461150 0.108537 0.398542 -0.153296
C46   C     C_3   0.267209 0.871250 0.083391 -0.503943
C47   C     C_3   0.325443 0.232762 0.290124 0.007394
C48   C     C_3   0.311869 0.196037 0.155224 -0.272325
C49   C     C_3   0.215915 0.168579 0.128625 -0.494015
C50   C     C_3   0.598857 0.774101 0.789273 0.013554
C51   C     C_3   0.689936 0.788399 0.850817 -0.260592
C52   C     C_3   0.683276 0.819380 0.988058 -0.504180
C53   C     C_R   0.562007 0.892125 0.569946 -0.167398
C54   C     C_R   0.544339 0.208826 0.593525 0.388170
C55   C     C_R   0.443992 0.789700 0.418781 0.373558
C56   C     C_R   0.456137 0.210025 0.405208 0.393754
Cu1   Cu    Cu3+1 0.500000 0.596430 0.500000 1.079256
Cu2   Cu    Cu3+1 0.500000 0.403570 0.500000 1.113535
H1    H     H_    0.506589 0.667179 0.074178 0.103099
H2    H     H_    0.390786 0.928986 0.367160 0.092679
H3    H     H_    0.433512 0.073096 0.316452 0.098841
H4    H     H_    0.613622 0.927808 0.623817 0.091497
H5    H     H_    0.242439 0.648098 0.947705 0.139257
H6    H     H_    0.289550 0.566817 0.059371 0.126099
H7    H     H_    0.217880 0.523443 0.788888 0.175105
H8    H     H_    0.273630 0.434726 0.885020 0.183496
H9    H     H_    0.159217 0.451470 0.049258 0.142959
H10   H     H_    0.111021 0.419437 0.898038 0.154729
H11   H     H_    0.103014 0.541596 0.953385 0.143076
H12   H     H_    0.502607 0.332248 0.924735 0.148446
H13   H     H_    0.745158 0.489564 0.030621 0.128736
H14   H     H_    0.705922 0.393525 0.927666 0.129108
H15   H     H_    0.814280 0.374630 0.175803 0.209302
H16   H     H_    0.769655 0.274388 0.088363 0.180493
H17   H     H_    0.856613 0.324822 0.900502 0.138261
H18   H     H_    0.926491 0.303131 0.037528 0.140597
H19   H     H_    0.901410 0.424915 0.990049 0.150401
H20   H     H_    0.150542 0.756135 0.553505 0.076056
H21   H     H_    0.257392 0.798447 0.512678 0.143241
H22   H     H_    0.249679 0.704841 0.628086 0.134772
H23   H     H_    0.636182 0.580367 0.923353 0.099462
H24   H     H_    0.743366 0.196904 0.437795 0.140943
H25   H     H_    0.817924 0.250449 0.550570 0.086241
H26   H     H_    0.852222 0.226163 0.389697 0.095742
H27   H     H_    0.855965 0.757664 0.499874 0.074778
H28   H     H_    0.749120 0.800950 0.536840 0.148238
H29   H     H_    0.759055 0.718560 0.408322 0.117678
H30   H     H_    0.151398 0.230883 0.649046 0.106552
H31   H     H_    0.254061 0.194310 0.585793 0.133139
H32   H     H_    0.172253 0.244821 0.480719 0.086942
H33   H     H_    0.715896 0.274951 0.745512 0.140036
H34   H     H_    0.370694 0.418329 0.077631 0.105094
H35   H     H_    0.693708 0.163818 0.670783 0.099688
H36   H     H_    0.643265 0.233360 0.936387 0.182890
H37   H     H_    0.589450 0.131482 0.868210 0.158728
H38   H     H_    0.732827 0.047647 0.845302 0.139422
H39   H     H_    0.717578 0.084231 0.006197 0.148414
H40   H     H_    0.790750 0.151641 0.907608 0.142691
H41   H     H_    0.375171 0.713289 0.155321 0.155649
H42   H     H_    0.422798 0.826337 0.193179 0.094175
H43   H     H_    0.229307 0.757077 0.209378 0.192174
H44   H     H_    0.264271 0.865664 0.286319 0.154389
H45   H     H_    0.055516 0.640218 0.439662 0.118825
H46   H     H_    0.312855 0.933658 0.081884 0.145352
H47   H     H_    0.198573 0.898312 0.073445 0.139480
H48   H     H_    0.280842 0.823456 0.002506 0.152581
H49   H     H_    0.283197 0.297112 0.302732 0.159043
H50   H     H_    0.302243 0.177466 0.358060 0.094532
H51   H     H_    0.331315 0.252658 0.087454 0.169101
H52   H     H_    0.354118 0.132167 0.139963 0.151886
H53   H     H_    0.195547 0.110263 0.193423 0.138905
H54   H     H_    0.208261 0.142549 0.030176 0.147092
H55   H     H_    0.172388 0.231945 0.140674 0.140984
H56   H     H_    0.941666 0.357164 0.425535 0.107445
H57   H     H_    0.562247 0.719101 0.842209 0.168601
H58   H     H_    0.560181 0.841794 0.798604 0.093372
H59   H     H_    0.727868 0.720192 0.846609 0.195771
H60   H     H_    0.726120 0.844396 0.798000 0.154869
H61   H     H_    0.646522 0.888202 0.994364 0.146289
H62   H     H_    0.750448 0.829930 0.029435 0.142623
H63   H     H_    0.649196 0.763306 0.043394 0.144875
H64   H     H_    0.942490 0.635169 0.598377 0.117742
H65   H     H_    0.060682 0.355831 0.594643 0.107206
H66   H     H_    0.566785 0.068405 0.676157 0.098230
N1    N     N_R   0.500000 0.258690 0.500000 -0.193759
N2    N     N_R   0.500000 0.741310 0.500000 -0.207534
O1    O     O_R   0.371460 0.581430 0.500010 -0.434407
O2    O     O_3   0.645520 0.404574 0.101626 -0.538893
O3    O     O_3   0.224995 0.665785 0.440113 -0.530052
O4    O     O_3   0.765427 0.340539 0.407363 -0.536144
O5    O     O_3   0.772170 0.660655 0.589742 -0.527340
O6    O     O_3   0.238705 0.340088 0.604314 -0.549732
O7    O     O_3   0.586455 0.260887 0.689316 -0.538844
O8    O     O_3   0.384986 0.736171 0.345209 -0.494404
O9    O     O_3   0.414266 0.261723 0.309420 -0.531750
O10   O     O_3   0.608729 0.740566 0.664203 -0.501744
O11   O     O_R   0.628540 0.418570 0.499990 -0.446323
O12   O     O_R   0.628540 0.581430 0.499990 -0.455699
O13   O     O_R   0.371460 0.418570 0.500010 -0.465383
O14   O     O_R   0.499980 0.581420 0.316850 -0.511829
O15   O     O_R   0.500020 0.418580 0.683150 -0.474949
O16   O     O_R   0.500020 0.581420 0.683150 -0.471849
O17   O     O_R   0.499980 0.418580 0.316850 -0.433644
O18   O     O_3   0.363472 0.598650 0.897907 -0.574029

loop_
_geom_bond_atom_site_label_1
_geom_bond_atom_site_label_2
_ccdc_geom_bond_type
Cu2   O13   S    
C48   H52   S    
C21   C26   A    
C29   H5    S    
C8    C13   S    
C4    C53   A    
C36   H21   S    
C41   C42   S    
C3    C23   A    
C40   H35   S    
C43   C44   S    
C32   H14   S    
C31   H9    S    
C35   H17   S    
Cu1   O16   S    
C38   H28   S    
C42   H38   S    
C43   H41   S    
C10   C15   S    
C42   H40   S    
C30   C31   S    
C22   O5    S    
C11   C14   S    
C5    O17   A    
C20   C25   A    
C46   H47   S    
C51   H60   S    
C37   O4    S    
C50   H57   S    
C53   H4    S    
C9    C13   S    
C51   H59   S    
C13   O2    S    
Cu2   O17   S    
C47   C48   S    
C45   C56   A    
C37   H26   S    
C49   H55   S    
C6    O16   A    
C19   C27   A    
C11   O18   S    
C20   O3    S    
C39   H32   S    
C1    O13   A    
C49   H53   S    
C16   C27   A    
C7    C15   S    
C48   H51   S    
C29   H6    S    
C10   H34   S    
C34   C55   A    
C34   H2    S    
C39   H30   S    
C7    H1    S    
C44   C46   S    
C17   H56   S    
C32   H13   S    
C31   H10   S    
C54   N1    A    
C4    C34   A    
C35   H18   S    
C38   H27   S    
C51   C52   S    
C18   C28   A    
C24   C25   A    
C36   H22   S    
C42   H39   S    
Cu1   N2    S    
C44   H44   S    
C29   O18   S    
C46   H46   S    
C3    C45   A    
C2    O10   S    
Cu1   O14   S    
C12   C26   S    
C43   O8    S    
C7    C11   S    
C9    C14   S    
C29   C30   S    
C6    C14   S    
C52   H63   S    
C24   O6    S    
C16   H45   S    
C41   H36   S    
C55   N2    A    
C16   C20   A    
C19   H65   S    
C50   C51   S    
C56   N1    A    
C43   H42   S    
C6    O15   A    
C30   H8    S    
C18   H64   S    
C49   H54   S    
C2    N2    A    
Cu2   O11   S    
C33   H15   S    
C48   C49   S    
C47   H49   S    
C5    O14   A    
C13   C15   S    
C22   C26   A    
C12   O12   A    
C37   H24   S    
C3    C4    S    
C52   H62   S    
C56   O9    S    
C23   C54   A    
C7    C9    S    
C40   C41   S    
C8    C14   S    
C47   O9    S    
C18   C22   A    
C17   C28   A    
C1    O1    A    
C2    C53   A    
Cu1   O1    S    
C44   H43   S    
C1    C25   S    
C23   H66   S    
C55   O8    S    
C40   O7    S    
C8    H12   S    
C38   H29   S    
C38   O5    S    
C32   O2    S    
C19   C24   A    
C50   O10   S    
C36   O3    S    
C32   C33   S    
C54   O7    S    
Cu2   O15   S    
Cu1   Cu2   S    
C41   H37   S    
C46   H48   S    
C45   H3    S    
C33   C35   S    
C35   H19   S    
Cu1   O12   S    
C50   H58   S    
C40   H33   S    
C17   C21   A    
C21   O4    S    
C5    C15   S    
C30   H7    S    
C10   C11   S    
C52   H61   S    
C33   H16   S    
C31   H11   S    
Cu2   N1    S    
C8    C10   S    
C47   H50   S    
C39   O6    S    
C27   C28   S    
C12   O11   A    
C37   H25   S    
C36   H20   S    
C39   H31   S    
C9    H23   S    
