data_mof_unit_61809.cif
_audit_creation_date              2013-03-05T16:43:20-0500
_audit_creation_method            fapswitch 2.2
_symmetry_space_group_name_H-M    P1
_symmetry_Int_Tables_number       1
_space_group_crystal_system       triclinic
_cell_length_a                    25.935222
_cell_length_b                    39.705576
_cell_length_c                    23.733114
_cell_angle_alpha                 90.001238
_cell_angle_beta                  123.199797
_cell_angle_gamma                 90.001475
_cell_volume                      20450.3314918

loop_
_atom_site_label
_atom_site_type_symbol
_atom_site_description
_atom_site_fract_x
_atom_site_fract_y
_atom_site_fract_z
_atom_type_partial_charge
Zn1   Zn    Zn3+2 0.515340 0.221940 0.943940 0.986555
Zn2   Zn    Zn3+2 0.484660 0.778060 0.056060 0.986784
Zn3   Zn    Zn3+2 0.484660 0.221940 0.056060 0.986915
Zn4   Zn    Zn3+2 0.515340 0.778060 0.943940 0.986796
Zn5   Zn    Zn3+2 0.015340 0.721940 0.943940 0.986780
Zn6   Zn    Zn3+2 0.984660 0.278060 0.056060 0.986574
Zn7   Zn    Zn3+2 0.984660 0.721940 0.056060 0.986801
Zn8   Zn    Zn3+2 0.015340 0.278060 0.943940 0.987009
Zn9   Zn    Zn3+2 0.428600 0.278000 0.943940 1.046951
Zn10  Zn    Zn3+2 0.571400 0.722000 0.056060 1.046882
Zn11  Zn    Zn3+2 0.571400 0.278000 0.056060 1.047081
Zn12  Zn    Zn3+2 0.428600 0.722000 0.943940 1.046885
Zn13  Zn    Zn3+2 0.928600 0.778000 0.943940 1.046884
Zn14  Zn    Zn3+2 0.071400 0.222000 0.056060 1.046982
Zn15  Zn    Zn3+2 0.071400 0.778000 0.056060 1.046883
Zn16  Zn    Zn3+2 0.928600 0.222000 0.943940 1.047087
C1    C     C_R   0.499988 0.621969 0.000011 -0.283751
C2    C     C_R   0.500008 0.378021 0.000039 -0.283493
C3    C     C_R   0.999991 0.121979 0.999964 -0.283457
C4    C     C_R   0.000011 0.878031 0.999990 -0.283751
O1    O     O_3   0.500000 0.249970 0.000000 -0.498277
O2    O     O_3   0.500000 0.750030 0.000000 -0.498415
O3    O     O_3   0.000000 0.749970 0.000000 -0.498415
O4    O     O_3   0.000000 0.250030 0.000000 -0.498294
O5    O     O_R   0.403840 0.230350 0.039240 -0.637213
O6    O     O_R   0.596160 0.769650 0.960760 -0.637096
O7    O     O_R   0.596160 0.230350 0.960760 -0.637831
O8    O     O_R   0.403840 0.769650 0.039240 -0.637141
O9    O     O_R   0.903840 0.730350 0.039240 -0.637093
O10   O     O_R   0.096160 0.269650 0.960760 -0.637176
O11   O     O_R   0.096160 0.730350 0.960760 -0.637144
O12   O     O_R   0.903840 0.269650 0.039240 -0.637826
H1    H     H_    0.440421 0.554811 0.892429 0.190408
H2    H     H_    0.558907 0.445163 0.107714 0.190456
H3    H     H_    0.559498 0.554833 0.107645 0.190374
H4    H     H_    0.441043 0.445165 0.892388 0.190378
H5    H     H_    0.941115 0.054837 0.892287 0.190448
H6    H     H_    0.059576 0.945189 0.107574 0.190405
H7    H     H_    0.058928 0.054836 0.107619 0.190382
H8    H     H_    0.940500 0.945168 0.892358 0.190374
O13   O     O_R   0.394820 0.269600 0.850350 -0.618170
O14   O     O_R   0.605180 0.730400 0.149650 -0.617980
O15   O     O_R   0.605180 0.269600 0.149650 -0.617885
O16   O     O_R   0.394820 0.730400 0.850350 -0.617981
O17   O     O_R   0.894820 0.769600 0.850350 -0.617978
O18   O     O_R   0.105180 0.230400 0.149650 -0.618154
O19   O     O_R   0.105180 0.769600 0.149650 -0.617982
O20   O     O_R   0.894820 0.230400 0.850350 -0.617897
C5    C     C_R   0.499958 0.551231 0.000038 0.019051
C6    C     C_R   0.499950 0.448754 0.000054 0.019209
C7    C     C_R   0.000046 0.051246 0.999950 0.019228
C8    C     C_R   0.000039 0.948769 0.999965 0.019053
O21   O     O_R   0.450030 0.324790 0.960750 -0.603028
O22   O     O_R   0.549970 0.675210 0.039250 -0.602591
O23   O     O_R   0.549970 0.324790 0.039250 -0.603077
O24   O     O_R   0.450030 0.675210 0.960750 -0.602607
O25   O     O_R   0.950030 0.824790 0.960750 -0.602591
O26   O     O_R   0.049970 0.175210 0.039250 -0.603061
O27   O     O_R   0.049970 0.824790 0.039250 -0.602607
O28   O     O_R   0.950030 0.175210 0.960750 -0.603109
O29   O     O_R   0.489260 0.175140 0.039240 -0.645322
O30   O     O_R   0.510740 0.824860 0.960760 -0.645303
O31   O     O_R   0.510740 0.175140 0.960760 -0.645578
O32   O     O_R   0.489260 0.824860 0.039240 -0.645326
O33   O     O_R   0.989260 0.675140 0.039240 -0.645302
O34   O     O_R   0.010740 0.324860 0.960760 -0.645304
O35   O     O_R   0.010740 0.675140 0.960760 -0.645327
O36   O     O_R   0.989260 0.324860 0.039240 -0.645579
O37   O     O_R   0.455530 0.230360 0.850350 -0.645119
O38   O     O_R   0.544470 0.769640 0.149650 -0.645046
O39   O     O_R   0.544470 0.230360 0.149650 -0.645077
O40   O     O_R   0.455530 0.769640 0.850350 -0.645038
O41   O     O_R   0.955530 0.730360 0.850350 -0.645047
O42   O     O_R   0.044470 0.269640 0.149650 -0.645120
O43   O     O_R   0.044470 0.730360 0.149650 -0.645037
O44   O     O_R   0.955530 0.269640 0.850350 -0.645056
O45   O     O_R   0.364600 0.269590 0.960770 -0.626820
O46   O     O_R   0.635400 0.730410 0.039230 -0.626732
O47   O     O_R   0.635400 0.269590 0.039230 -0.626841
O48   O     O_R   0.364600 0.730410 0.960770 -0.626741
O49   O     O_R   0.864600 0.769590 0.960770 -0.626731
O50   O     O_R   0.135400 0.230410 0.039230 -0.626813
O51   O     O_R   0.135400 0.769590 0.039230 -0.626742
O52   O     O_R   0.864600 0.230410 0.960770 -0.626845
C9    C     C_R   0.360090 0.250295 0.000541 0.802370
C10   C     C_R   0.639912 0.749708 0.999463 0.802200
C11   C     C_R   0.639903 0.250306 0.999444 0.803572
C12   C     C_R   0.360088 0.749707 0.000537 0.802332
C13   C     C_R   0.860088 0.750292 0.000536 0.802207
C14   C     C_R   0.139910 0.249705 0.999460 0.802475
C15   C     C_R   0.139912 0.750293 0.999462 0.802327
C16   C     C_R   0.860096 0.249694 0.000556 0.803585
C17   C     C_R   0.408995 0.250014 0.817959 0.811676
C18   C     C_R   0.591004 0.749986 0.182041 0.811304
C19   C     C_R   0.591006 0.250015 0.182041 0.811774
C20   C     C_R   0.408995 0.749985 0.817958 0.811291
C21   C     C_R   0.908996 0.750014 0.817959 0.811303
C22   C     C_R   0.091005 0.249986 0.182041 0.811704
C23   C     C_R   0.091005 0.750015 0.182042 0.811290
C24   C     C_R   0.908994 0.249985 0.817958 0.811786
C25   C     C_R   0.500002 0.340908 0.000012 0.934039
C26   C     C_R   0.499998 0.659088 1.000000 0.932615
C27   C     C_R   0.000002 0.840912 0.000000 0.932616
C28   C     C_R   0.999998 0.159092 0.999988 0.934133
C29   C     C_R   0.500000 0.158955 1.000000 0.784079
C30   C     C_R   0.500000 0.841044 0.000000 0.784028
C31   C     C_R   0.000000 0.658956 1.000000 0.784029
C32   C     C_R   0.000000 0.341044 0.000000 0.784079
C33   C     C_R   0.487695 0.931236 0.042439 -0.158861
C34   C     C_R   0.512292 0.068763 0.957551 -0.158949
C35   C     C_R   0.512300 0.931236 0.957559 -0.158887
C36   C     C_R   0.487702 0.068764 0.042444 -0.158872
C37   C     C_R   0.987707 0.431237 0.042448 -0.158944
C38   C     C_R   0.012303 0.568763 0.957559 -0.158857
C39   C     C_R   0.012298 0.431236 0.957556 -0.158860
C40   C     C_R   0.987701 0.568764 0.042442 -0.158884
H9    H     H_    0.478121 0.944701 0.075448 0.142806
H10   H     H_    0.521859 0.055298 0.924538 0.142657
H11   H     H_    0.521874 0.944700 0.924550 0.142785
H12   H     H_    0.478134 0.055300 0.075458 0.142786
H13   H     H_    0.978139 0.444702 0.075461 0.142661
H14   H     H_    0.021876 0.555299 0.924550 0.142809
H15   H     H_    0.021868 0.444700 0.924544 0.142800
H16   H     H_    0.978128 0.555299 0.075452 0.142787
C41   C     C_R   0.487685 0.896088 0.042498 -0.187212
C42   C     C_R   0.512304 0.103911 0.957494 -0.187452
C43   C     C_R   0.512312 0.896088 0.957501 -0.187190
C44   C     C_R   0.487693 0.103912 0.042503 -0.187225
C45   C     C_R   0.987695 0.396088 0.042505 -0.187442
C46   C     C_R   0.012313 0.603912 0.957500 -0.187211
C47   C     C_R   0.012308 0.396087 0.957498 -0.187196
C48   C     C_R   0.987689 0.603912 0.042500 -0.187188
H17   H     H_    0.478032 0.882979 0.075749 0.169056
H18   H     H_    0.521951 0.117021 0.924238 0.168666
H19   H     H_    0.521966 0.882978 0.924250 0.169077
H20   H     H_    0.478045 0.117022 0.075759 0.169000
H21   H     H_    0.978047 0.382979 0.075761 0.168673
H22   H     H_    0.021965 0.617021 0.924248 0.169055
H23   H     H_    0.021956 0.382978 0.924242 0.169034
H24   H     H_    0.978037 0.617022 0.075752 0.169079
C49   C     C_R   0.499999 0.878174 0.000000 -0.011484
C50   C     C_R   0.499999 0.121826 0.999999 -0.011313
C51   C     C_R   0.000001 0.378174 0.000001 -0.011325
C52   C     C_R   0.000001 0.621826 1.000000 -0.011485
C53   C     C_R   0.499997 0.948800 0.999999 0.152481
C54   C     C_R   0.499997 0.051200 0.999998 0.152572
C55   C     C_R   0.000003 0.448800 0.000002 0.152561
C56   C     C_R   0.000003 0.551200 0.000001 0.152478
C57   C     C_1   0.499997 0.984870 0.999998 -0.053904
C58   C     C_1   0.499996 0.015129 0.999998 -0.053934
C59   C     C_1   0.000004 0.484871 0.000002 -0.053924
C60   C     C_1   0.000003 0.515129 0.000001 -0.053899
C61   C     C_R   0.466325 0.603965 0.938340 0.249430
C62   C     C_R   0.533316 0.396011 0.061750 0.248300
C63   C     C_R   0.533634 0.603978 0.061694 0.249564
C64   C     C_R   0.466704 0.396015 0.938341 0.249816
C65   C     C_R   0.966697 0.103989 0.938253 0.248332
C66   C     C_R   0.033674 0.896034 0.061661 0.249436
C67   C     C_R   0.033280 0.103986 0.061664 0.249727
C68   C     C_R   0.966366 0.896022 0.938307 0.249558
H25   H     H_    0.648150 0.397433 0.049412 0.163726
H26   H     H_    0.353738 0.602033 0.955144 0.163214
H27   H     H_    0.353557 0.397950 0.954825 0.163103
H28   H     H_    0.646082 0.601997 0.044465 0.163150
H29   H     H_    0.146258 0.897968 0.044847 0.163210
H30   H     H_    0.851849 0.102574 0.950563 0.163722
H31   H     H_    0.853917 0.898001 0.955529 0.163151
H32   H     H_    0.146499 0.102099 0.045405 0.163136
C69   C     C_R   0.635397 0.359182 0.978597 -0.117387
C70   C     C_R   0.366777 0.641250 0.024370 -0.117491
C71   C     C_R   0.366632 0.358775 0.024129 -0.116942
C72   C     C_R   0.633035 0.641288 0.975382 -0.117449
C73   C     C_R   0.133214 0.858747 0.975623 -0.117488
C74   C     C_R   0.864588 0.140813 0.021395 -0.117370
C75   C     C_R   0.866959 0.858714 0.024615 -0.117452
C76   C     C_R   0.133505 0.141191 0.975996 -0.116955
H33   H     H_    0.594710 0.370905 0.936595 0.174968
H34   H     H_    0.408118 0.630090 0.066484 0.176316
H35   H     H_    0.407949 0.369966 0.066218 0.176567
H36   H     H_    0.591643 0.630172 0.933264 0.176483
H37   H     H_    0.091868 0.869905 0.933510 0.176321
H38   H     H_    0.905266 0.129084 0.063401 0.174972
H39   H     H_    0.908347 0.869832 0.066735 0.176479
H40   H     H_    0.092258 0.129954 0.933902 0.176489
C77   C     C_R   0.657470 0.328983 0.969251 -0.199072
C78   C     C_R   0.344360 0.671570 0.032743 -0.198405
C79   C     C_R   0.344258 0.328455 0.032563 -0.198152
C80   C     C_R   0.655485 0.671616 0.967093 -0.198380
C81   C     C_R   0.155631 0.828427 0.967253 -0.198383
C82   C     C_R   0.842514 0.171010 0.030746 -0.199096
C83   C     C_R   0.844509 0.828386 0.032905 -0.198397
C84   C     C_R   0.155871 0.171499 0.967506 -0.198442
H41   H     H_    0.633322 0.317484 0.919772 0.153878
H42   H     H_    0.368903 0.683719 0.081590 0.152830
H43   H     H_    0.368812 0.316336 0.081433 0.152946
H44   H     H_    0.630915 0.683816 0.918306 0.152753
H45   H     H_    0.131084 0.816275 0.918407 0.152820
H46   H     H_    0.866653 0.182502 0.080234 0.153895
H47   H     H_    0.869074 0.816188 0.081695 0.152759
H48   H     H_    0.131380 0.183564 0.918590 0.153065
C85   C     C_R   0.709986 0.313445 0.023651 0.028964
C86   C     C_R   0.290966 0.686384 0.978184 0.029190
C87   C     C_R   0.290890 0.313604 0.978039 0.029128
C88   C     C_R   0.708948 0.686373 0.021659 0.029220
C89   C     C_R   0.209032 0.813616 0.021812 0.029191
C90   C     C_R   0.790010 0.186556 0.976341 0.028951
C91   C     C_R   0.791051 0.813627 0.978338 0.029218
C92   C     C_R   0.209147 0.186407 0.022035 0.029095
C93   C     C_R   0.740426 0.328734 0.087767 0.419320
C94   C     C_R   0.259992 0.670219 0.914912 0.418503
C95   C     C_R   0.259897 0.329733 0.914739 0.418727
C96   C     C_R   0.739958 0.670138 0.084852 0.418497
C97   C     C_R   0.240012 0.829785 0.085083 0.418486
C98   C     C_R   0.759583 0.171278 0.912214 0.419342
C99   C     C_R   0.760046 0.829858 0.915143 0.418507
C100  C     C_R   0.240055 0.170352 0.085397 0.418932
C101  C     C_R   0.717898 0.358991 0.096601 -0.133718
C102  C     C_R   0.282861 0.639837 0.907065 -0.133401
C103  C     C_R   0.282727 0.360115 0.906829 -0.134078
C104  C     C_R   0.717055 0.639747 0.092613 -0.133464
C105  C     C_R   0.217142 0.860168 0.092928 -0.133409
C106  C     C_R   0.782112 0.141023 0.903373 -0.133734
C107  C     C_R   0.782949 0.860249 0.907380 -0.133461
C108  C     C_R   0.217231 0.139984 0.093364 -0.134051
H49   H     H_    0.740712 0.370672 0.145824 0.182576
H50   H     H_    0.259611 0.627474 0.858489 0.182569
H51   H     H_    0.259462 0.372449 0.858233 0.182253
H52   H     H_    0.740335 0.627331 0.141127 0.182515
H53   H     H_    0.240397 0.872533 0.141503 0.182564
H54   H     H_    0.759309 0.129350 0.854141 0.182571
H55   H     H_    0.759673 0.872662 0.858864 0.182516
H56   H     H_    0.240427 0.127708 0.142009 0.182282
C109  C     C_R   0.665524 0.374142 0.042206 -0.158295
C110  C     C_R   0.336113 0.625426 0.961598 -0.159848
C111  C     C_R   0.335957 0.374560 0.961327 -0.160350
C112  C     C_R   0.663734 0.625396 0.038076 -0.160062
C113  C     C_R   0.163884 0.874575 0.038395 -0.159842
C114  C     C_R   0.834474 0.125863 0.957774 -0.158294
C115  C     C_R   0.836265 0.874602 0.961919 -0.160063
C116  C     C_R   0.164094 0.125479 0.038860 -0.160319
C117  C     C_R   0.284600 0.779416 0.013885 -0.173568
C118  C     C_R   0.714990 0.220680 0.985297 -0.174706
C119  C     C_R   0.715437 0.779422 0.986183 -0.173494
C120  C     C_R   0.284643 0.220597 0.013974 -0.173685
C121  C     C_R   0.785008 0.279321 0.014701 -0.174678
C122  C     C_R   0.215400 0.720584 0.986114 -0.173574
C123  C     C_R   0.215364 0.279406 0.986039 -0.173535
C124  C     C_R   0.784563 0.720577 0.013816 -0.173485
H57   H     H_    0.310742 0.802389 0.023154 0.170578
H58   H     H_    0.688523 0.197769 0.975340 0.170235
H59   H     H_    0.689324 0.802400 0.976972 0.170598
H60   H     H_    0.310819 0.197632 0.023315 0.170533
H61   H     H_    0.811476 0.302231 0.024656 0.170249
H62   H     H_    0.189258 0.697611 0.976845 0.170574
H63   H     H_    0.189193 0.302372 0.976710 0.170622
H64   H     H_    0.810675 0.697600 0.023026 0.170602
C125  C     C_R   0.304361 0.749192 0.001274 -0.060567
C126  C     C_R   0.695643 0.250817 0.998732 -0.059832
C127  C     C_R   0.695637 0.749193 0.998724 -0.060610
C128  C     C_R   0.304364 0.250811 0.001279 -0.060559
C129  C     C_R   0.804356 0.249183 0.001267 -0.059823
C130  C     C_R   0.195638 0.750807 0.998726 -0.060570
C131  C     C_R   0.195641 0.249192 0.998730 -0.060504
C132  C     C_R   0.804362 0.750806 0.001275 -0.060608
C133  C     C_R   0.269760 0.719363 0.987620 0.055208
C134  C     C_R   0.730659 0.280549 0.013189 0.055401
C135  C     C_R   0.730202 0.719356 0.012310 0.055202
C136  C     C_R   0.269724 0.280630 0.987547 0.055205
C137  C     C_R   0.769339 0.219451 0.986808 0.055399
C138  C     C_R   0.230240 0.780638 0.012379 0.055205
C139  C     C_R   0.230287 0.219374 0.012472 0.055204
C140  C     C_R   0.769798 0.780643 0.987688 0.055204
C141  C     C_R   0.785877 0.228264 0.637520 -0.148424
C142  C     C_R   0.214095 0.771752 0.362480 -0.148637
C143  C     C_R   0.214103 0.228257 0.362476 -0.148501
C144  C     C_R   0.785911 0.771752 0.637524 -0.148650
C145  C     C_R   0.285904 0.728248 0.637520 -0.148636
C146  C     C_R   0.714122 0.271736 0.362480 -0.148427
C147  C     C_R   0.714089 0.728248 0.362476 -0.148650
C148  C     C_R   0.285901 0.271745 0.637523 -0.148510
H65   H     H_    0.746768 0.211431 0.610562 0.151323
H66   H     H_    0.253185 0.788598 0.389438 0.151318
H67   H     H_    0.253198 0.211416 0.389431 0.151286
H68   H     H_    0.746825 0.788598 0.610569 0.151314
H69   H     H_    0.246814 0.711402 0.610562 0.151319
H70   H     H_    0.753231 0.288570 0.389438 0.151326
H71   H     H_    0.753175 0.711402 0.389431 0.151315
H72   H     H_    0.246807 0.288587 0.610568 0.151285
C149  C     C_R   0.820987 0.228240 0.707820 -0.142814
C150  C     C_R   0.178986 0.771776 0.292181 -0.143381
C151  C     C_R   0.178993 0.228233 0.292177 -0.143371
C152  C     C_R   0.821021 0.771776 0.707823 -0.143396
C153  C     C_R   0.321014 0.728224 0.707819 -0.143379
C154  C     C_R   0.679012 0.271760 0.292180 -0.142819
C155  C     C_R   0.678979 0.728224 0.292177 -0.143398
C156  C     C_R   0.321010 0.271769 0.707822 -0.143423
H73   H     H_    0.808274 0.211278 0.734005 0.188777
H74   H     H_    0.191678 0.788752 0.265996 0.188776
H75   H     H_    0.191691 0.211263 0.265990 0.188607
H76   H     H_    0.808331 0.788752 0.734010 0.188769
H77   H     H_    0.308321 0.711248 0.734004 0.188777
H78   H     H_    0.691725 0.288723 0.265995 0.188780
H79   H     H_    0.691669 0.711248 0.265990 0.188767
H80   H     H_    0.308313 0.288740 0.734009 0.188592
C157  C     C_R   0.871893 0.249925 0.743697 -0.024387
C158  C     C_R   0.128105 0.750075 0.256304 -0.024328
C159  C     C_R   0.128104 0.249927 0.256303 -0.024229
C160  C     C_R   0.871898 0.750074 0.743697 -0.024316
C161  C     C_R   0.371895 0.749925 0.743696 -0.024328
C162  C     C_R   0.628107 0.250075 0.256303 -0.024378
C163  C     C_R   0.628102 0.749926 0.256303 -0.024316
C164  C     C_R   0.371896 0.250073 0.743697 -0.024221
C165  C     C_R   0.887003 0.271571 0.707909 -0.179947
C166  C     C_R   0.113018 0.728415 0.292090 -0.180002
C167  C     C_R   0.113011 0.271581 0.292094 -0.179875
C168  C     C_R   0.886980 0.728413 0.707906 -0.179994
C169  C     C_R   0.386982 0.771585 0.707909 -0.180004
C170  C     C_R   0.612997 0.228429 0.292090 -0.179963
C171  C     C_R   0.613020 0.771587 0.292094 -0.179992
C172  C     C_R   0.386988 0.228418 0.707906 -0.179878
H81   H     H_    0.925943 0.288536 0.734156 0.174401
H82   H     H_    0.074096 0.711437 0.265844 0.174400
H83   H     H_    0.074084 0.288553 0.265850 0.174163
H84   H     H_    0.925898 0.711435 0.734150 0.174384
H85   H     H_    0.425904 0.788563 0.734156 0.174398
H86   H     H_    0.574057 0.211464 0.265844 0.174374
H87   H     H_    0.574102 0.788565 0.265850 0.174385
H88   H     H_    0.425913 0.211445 0.734150 0.174157
C173  C     C_R   0.851814 0.271541 0.637626 -0.149959
C174  C     C_R   0.148206 0.728444 0.362374 -0.150062
C175  C     C_R   0.148200 0.271551 0.362378 -0.149940
C176  C     C_R   0.851792 0.728443 0.637622 -0.150050
C177  C     C_R   0.351794 0.771555 0.637626 -0.150061
C178  C     C_R   0.648185 0.228459 0.362374 -0.149960
C179  C     C_R   0.648208 0.771557 0.362378 -0.150052
C180  C     C_R   0.351800 0.228448 0.637622 -0.149943
H89   H     H_    0.864003 0.288377 0.610757 0.147895
H90   H     H_    0.136036 0.711596 0.389243 0.147877
H91   H     H_    0.136025 0.288394 0.389250 0.147826
H92   H     H_    0.863958 0.711594 0.610751 0.147874
H93   H     H_    0.363964 0.788404 0.610757 0.147875
H94   H     H_    0.635997 0.211623 0.389243 0.147885
H95   H     H_    0.636042 0.788406 0.389249 0.147874
H96   H     H_    0.363973 0.211604 0.610751 0.147823
C181  C     C_R   0.801259 0.249914 0.602428 0.141616
C182  C     C_R   0.198738 0.750087 0.397572 0.141702
C183  C     C_R   0.198738 0.249915 0.397572 0.141714
C184  C     C_R   0.801264 0.750086 0.602428 0.141706
C185  C     C_R   0.301262 0.749913 0.602427 0.141701
C186  C     C_R   0.698741 0.250087 0.397572 0.141621
C187  C     C_R   0.698736 0.749914 0.397572 0.141706
C188  C     C_R   0.301263 0.250086 0.602427 0.141721
C189  C     C_1   0.765139 0.249967 0.530263 -0.041831
C190  C     C_1   0.234859 0.750033 0.469737 -0.041967
C191  C     C_1   0.234860 0.249968 0.469737 -0.041893
C192  C     C_1   0.765141 0.750032 0.530263 -0.041968
C193  C     C_1   0.265140 0.749967 0.530263 -0.041966
C194  C     C_1   0.734860 0.250033 0.469737 -0.041833
C195  C     C_1   0.734859 0.749968 0.469737 -0.041968
C196  C     C_1   0.265142 0.250032 0.530263 -0.041898
C197  C     C_1   0.499949 0.515129 0.000051 0.004336
C198  C     C_1   0.499945 0.484857 0.000056 0.004228
C199  C     C_1   0.000051 0.015144 0.999948 0.004223
C200  C     C_1   0.000048 0.984872 0.999953 0.004333
C201  C     C_R   0.465994 0.568701 0.939346 -0.232547
C202  C     C_R   0.533604 0.431277 0.060772 -0.232454
C203  C     C_R   0.533937 0.568714 0.060716 -0.232515
C204  C     C_R   0.466339 0.431278 0.939329 -0.232274
C205  C     C_R   0.966406 0.068723 0.939230 -0.232461
C206  C     C_R   0.034004 0.931298 0.060656 -0.232548
C207  C     C_R   0.033644 0.068722 0.060677 -0.232276
C208  C     C_R   0.966061 0.931287 0.939286 -0.232517
N1    N     N_R   0.434069 0.620904 0.874331 0.223797
O53   O     O_R   0.460593 0.645160 0.862416 -0.417731
O54   O     O_R   0.382174 0.608834 0.824650 -0.382250
N2    N     N_R   0.565277 0.379056 0.125748 0.223306
O55   O     O_R   0.616926 0.391191 0.175731 -0.383277
O56   O     O_R   0.538687 0.354684 0.137285 -0.418079
N3    N     N_R   0.565884 0.620932 0.125691 0.223811
O57   O     O_R   0.539351 0.645192 0.137582 -0.417659
O58   O     O_R   0.617773 0.608867 0.175388 -0.382153
N4    N     N_R   0.434917 0.379061 0.874343 0.223597
O59   O     O_R   0.383254 0.391141 0.824291 -0.381960
O60   O     O_R   0.461715 0.354774 0.862885 -0.417072
N5    N     N_R   0.934755 0.120944 0.874254 0.223292
O61   O     O_R   0.961359 0.145315 0.862732 -0.418008
O62   O     O_R   0.883108 0.108813 0.824261 -0.383291
N6    N     N_R   0.065930 0.879095 0.125670 0.223796
O63   O     O_R   0.117825 0.891165 0.175352 -0.382250
O64   O     O_R   0.039405 0.854839 0.137585 -0.417727
N7    N     N_R   0.065054 0.120941 0.125661 0.223564
O65   O     O_R   0.038252 0.145232 0.137102 -0.417085
O66   O     O_R   0.116708 0.108858 0.175726 -0.382050
N8    N     N_R   0.934116 0.879069 0.874310 0.223810
O67   O     O_R   0.882227 0.891134 0.824613 -0.382158
O68   O     O_R   0.960649 0.854809 0.862419 -0.417667
Cl1   Cl    Cl    0.805137 0.309934 0.158313 -0.613323
Cl2   Cl    Cl    0.194129 0.688039 0.844105 -0.612927
Cl3   Cl    Cl    0.194060 0.311871 0.843976 -0.613109
Cl4   Cl    Cl    0.805911 0.687879 0.155672 -0.612944
Cl5   Cl    Cl    0.305883 0.811970 0.155891 -0.612926
Cl6   Cl    Cl    0.694888 0.190088 0.841662 -0.613316
Cl7   Cl    Cl    0.694099 0.812114 0.844321 -0.612944
Cl8   Cl    Cl    0.305771 0.188295 0.156156 -0.613122

loop_
_geom_bond_atom_site_label_1
_geom_bond_atom_site_label_2
_geom_bond_distance
_ccdc_geom_bond_type
C48   C52   1.406405 A    
Zn6   O12   1.935990 S    
Zn7   O9    1.936013 S    
C84   C92   1.405731 A    
C142  H66   1.083585 S    
Zn5   O35   1.918005 S    
C1    C61   1.419850 A    
C176  H92   1.083606 S    
O47   C11   1.269758 A    
C47   C51   1.406405 A    
C171  C179  1.395772 A    
C70   H34   1.082312 S    
C98   Cl6   1.760725 S    
C86   C94   1.411070 A    
O37   C17   1.280843 A    
O39   C19   1.280821 A    
C149  C157  1.406503 A    
Zn16  O52   1.937071 S    
C117  C138  1.391426 A    
C78   C86   1.405950 A    
C69   H33   1.082571 S    
C142  C150  1.396076 A    
C98   C106  1.401021 A    
C54   C58   1.432192 S    
C82   C90   1.406072 A    
N2    O56   1.301456 A    
Zn2   O2    1.935652 S    
C68   N8    1.438156 S    
C180  C188  1.398152 A    
C122  C133  1.391423 A    
O29   C29   1.281367 A    
C36   C54   1.398079 A    
C20   C161  1.474777 S    
Zn15  O3    1.933810 S    
C90   C98   1.411274 A    
O18   C22   1.280781 A    
C4    C66   1.419853 A    
C118  C126  1.400196 A    
C34   H10   1.083610 S    
C141  C149  1.396080 A    
C93   Cl1   1.760668 S    
C170  C178  1.395766 A    
C72   C112  1.395949 A    
O20   C24   1.280761 A    
C39   H15   1.083609 S    
C142  C182  1.398415 A    
C125  C133  1.412319 A    
Zn14  O18   1.918674 S    
C101  C109  1.397596 A    
C124  C135  1.391454 A    
C96   C104  1.400969 A    
C121  H61   1.084837 S    
C192  C195  1.202001 T    
C181  C189  1.433120 S    
C100  C108  1.400931 A    
C19   C162  1.474773 S    
C88   C96   1.410936 A    
C63   C203  1.400475 A    
Zn9   O45   1.937060 S    
C102  C110  1.397291 A    
C7    C205  1.393776 A    
Zn11  O47   1.937076 S    
C12   C125  1.455068 S    
C76   C84   1.397567 A    
C182  C190  1.433118 S    
H5    C205  1.084049 S    
C46   H22   1.082943 S    
C2    C64   1.419725 A    
C173  C181  1.398148 A    
C75   H39   1.082223 S    
C81   H45   1.083387 S    
C76   H40   1.082152 S    
C21   C160  1.474779 S    
C22   C159  1.474779 S    
C33   C53   1.398080 A    
C71   H35   1.082237 S    
O32   C30   1.281372 A    
O30   C30   1.281372 A    
O44   C24   1.280819 A    
O51   C15   1.269816 A    
Zn9   O13   1.918677 S    
C35   C53   1.398079 A    
C94   Cl2   1.760377 S    
C93   C101  1.401018 A    
C148  C188  1.398412 A    
C141  H65   1.083587 S    
Zn12  O16   1.918701 S    
C107  C115  1.397181 A    
C68   C208  1.400480 A    
Zn13  O17   1.918677 S    
C175  H91   1.083604 S    
O12   C16   1.271644 A    
C147  C155  1.396072 A    
C177  C185  1.398149 A    
Zn11  O1    1.933810 S    
C84   H48   1.083149 S    
C143  C183  1.398414 A    
N8    O67   1.301326 A    
O40   C20   1.280816 A    
H25   C109  1.082553 S    
C168  H84   1.082931 S    
O48   C12   1.269815 A    
C4    C68   1.419847 A    
C5    C197  1.433471 S    
C102  H50   1.082715 S    
C123  C131  1.400087 A    
C124  C132  1.400098 A    
Zn13  O49   1.937060 S    
C120  C128  1.400093 A    
C121  C129  1.400190 A    
C74   H38   1.082604 S    
C179  H95   1.083605 S    
Zn10  O46   1.937063 S    
O42   C22   1.280842 A    
C71   C111  1.395990 A    
C144  C184  1.398414 A    
C69   C109  1.396600 A    
C5    C201  1.393715 A    
C87   C136  1.483921 S    
C73   C113  1.396160 A    
H1    C201  1.084041 S    
C77   C85   1.406032 A    
C146  C154  1.396082 A    
Zn12  O2    1.933809 S    
Zn8   O44   1.917900 S    
O19   C23   1.280768 A    
C170  H86   1.082934 S    
C67   N7    1.438192 S    
Zn16  O28   1.917508 S    
Zn14  O4    1.933895 S    
C119  C140  1.391451 A    
C166  H82   1.082932 S    
C41   C49   1.406404 A    
N6    O63   1.301321 A    
C40   C48   1.395584 A    
C128  C136  1.412325 A    
C46   C52   1.406404 A    
C129  C137  1.412378 A    
C2    C62   1.419819 A    
C178  H94   1.083606 S    
C131  C139  1.412301 A    
C100  Cl8   1.760108 S    
O45   C9    1.269830 A    
C64   C204  1.400476 A    
C87   C95   1.410954 A    
C176  C184  1.398152 A    
C85   C93   1.411223 A    
C62   N2    1.438263 S    
C17   C164  1.474781 S    
C150  C158  1.406497 A    
C119  H59   1.084773 S    
C18   C163  1.474779 S    
C118  C137  1.391099 A    
C103  C111  1.397217 A    
H30   C114  1.082555 S    
C8    C200  1.433475 S    
O21   C25   1.278661 A    
C29   C50   1.474240 S    
O9    C13   1.271582 A    
C144  H68   1.083584 S    
C145  H69   1.083587 S    
C80   C88   1.405865 A    
C147  H71   1.083583 S    
C55   C59   1.432192 S    
C1    C26   1.473839 S    
O16   C20   1.280765 A    
Zn4   O2    1.935672 S    
C3    C28   1.473577 S    
Zn5   O3    1.935651 S    
C61   C201  1.400483 A    
C199  C200  1.201975 T    
Zn6   O4    1.935652 S    
O5    C9    1.271601 A    
C45   H21   1.082941 S    
C83   C91   1.405858 A    
O7    C11   1.271639 A    
Zn10  O14   1.918674 S    
C108  C116  1.397099 A    
C42   H18   1.082941 S    
C34   C42   1.395580 A    
C24   C157  1.474773 S    
C67   C207  1.400479 A    
C64   N4    1.438186 S    
O11   C15   1.271546 A    
C188  C196  1.433118 S    
C159  C167  1.406451 A    
C153  H77   1.083017 S    
C126  C134  1.412383 A    
C167  C175  1.395774 A    
C6    C202  1.393767 A    
C184  C192  1.433118 S    
C155  H79   1.083016 S    
C169  H85   1.082933 S    
C156  H80   1.083016 S    
C89   C138  1.483951 S    
C78   H42   1.083356 S    
C56   C60   1.432196 S    
C171  H87   1.082936 S    
C95   C103  1.400970 A    
O27   C27   1.278669 A    
C174  C182  1.398151 A    
O49   C13   1.269845 A    
C180  H96   1.083607 S    
C145  C185  1.398416 A    
Zn7   O3    1.935673 S    
Zn8   O4    1.935672 S    
C147  C187  1.398414 A    
Zn5   O41   1.917930 S    
C47   H23   1.082941 S    
C73   H37   1.082334 S    
C37   H13   1.083609 S    
C106  H54   1.083050 S    
C66   C206  1.400483 A    
O52   C16   1.269758 A    
N5    O62   1.301332 A    
C34   C54   1.398082 A    
C173  H89   1.083605 S    
O33   C31   1.281370 A    
C65   N5    1.438266 S    
C101  H49   1.083008 S    
N4    O59   1.301340 A    
H28   C112  1.082481 S    
C38   C46   1.395580 A    
C150  H74   1.083016 S    
O10   C14   1.271611 A    
C33   H9    1.083609 S    
N3    O57   1.301466 A    
H32   C116  1.082468 S    
C4    C27   1.473843 S    
Zn10  O2    1.933895 S    
Zn8   O34   1.917994 S    
O38   C18   1.280842 A    
C43   H19   1.082941 S    
C42   C50   1.406405 A    
C44   H20   1.082940 S    
C39   C55   1.398079 A    
C157  C165  1.406447 A    
C104  H52   1.082588 S    
N7    O66   1.301349 A    
C165  C173  1.395766 A    
C97   C105  1.401002 A    
O13   C17   1.280782 A    
C81   C89   1.405979 A    
C149  H73   1.083022 S    
C163  C171  1.406449 A    
O15   C19   1.280761 A    
C59   C60   1.201439 T    
C164  C172  1.406449 A    
C16   C129  1.455078 S    
C122  C130  1.400129 A    
C153  C161  1.406494 A    
C72   H36   1.082227 S    
C89   C97   1.411117 A    
C132  C140  1.412302 A    
C146  C186  1.398425 A    
H8    C208  1.084045 S    
O25   C27   1.278683 A    
C6    C204  1.393748 A    
C107  H55   1.082585 S    
Zn6   O42   1.917929 S    
Zn14  O26   1.917463 S    
C118  H58   1.084838 S    
Zn3   O5    1.936013 S    
C141  C181  1.398423 A    
C7    C199  1.433475 S    
C185  C193  1.433118 S    
C40   C56   1.398077 A    
Zn15  O51   1.937076 S    
C122  H62   1.084795 S    
C168  C176  1.395772 A    
C6    C198  1.433475 S    
Zn1   O37   1.917930 S    
C158  C166  1.406450 A    
Zn3   O39   1.917898 S    
C148  H72   1.083585 S    
C130  C138  1.412323 A    
O17   C21   1.280781 A    
C70   C78   1.397619 A    
C91   C99   1.410928 A    
C117  H57   1.084797 S    
C119  C127  1.400101 A    
N8    O68   1.301466 A    
C74   C82   1.397785 A    
C66   N6    1.438162 S    
C76   C116  1.395851 A    
C151  C159  1.406498 A    
H6    C206  1.084040 S    
C152  H76   1.083016 S    
Zn9   O21   1.917460 S    
C85   C134  1.483570 S    
Zn14  O50   1.937063 S    
Zn4   O40   1.917900 S    
Zn11  O23   1.917504 S    
C82   H46   1.083660 S    
C30   C49   1.474240 S    
C36   H12   1.083609 S    
N5    O61   1.301464 A    
C88   C135  1.483954 S    
C63   N3    1.438156 S    
C40   H16   1.083611 S    
O14   C18   1.280779 A    
Zn15  O27   1.917504 S    
O22   C26   1.278684 A    
C154  H78   1.083022 S    
O34   C32   1.281371 A    
Zn4   O6    1.936015 S    
C45   C51   1.406404 A    
C48   H24   1.082938 S    
H29   C113  1.082508 S    
O50   C14   1.269826 A    
C5    C203  1.393710 A    
Zn8   O10   1.936015 S    
C37   C55   1.398082 A    
C74   C114  1.396656 A    
C38   C56   1.398082 A    
C143  C151  1.396072 A    
C57   C58   1.201443 T    
C75   C83   1.397576 A    
C99   Cl7   1.760240 S    
C178  C186  1.398146 A    
C97   Cl5   1.760417 S    
C36   C44   1.395584 A    
C127  C135  1.412307 A    
O31   C29   1.281377 A    
C96   Cl4   1.760246 S    
O24   C26   1.278667 A    
H26   C110  1.082508 S    
Zn13  O25   1.917460 S    
C186  C194  1.433120 S    
N6    O64   1.301468 A    
C90   C137  1.483565 S    
C105  H53   1.082749 S    
C77   H41   1.083620 S    
C183  C191  1.433118 S    
C31   C52   1.474240 S    
Zn2   O38   1.917929 S    
C32   C51   1.474240 S    
C53   C57   1.432192 S    
C123  H63   1.084775 S    
Zn1   O1    1.935651 S    
C120  C139  1.391381 A    
C121  C134  1.391105 A    
Zn15  O19   1.918699 S    
Zn16  O20   1.918701 S    
H3    C203  1.084043 S    
N7    O65   1.301496 A    
C39   C47   1.395584 A    
O41   C21   1.280842 A    
C70   C110  1.396116 A    
Zn13  O3    1.933899 S    
C37   C45   1.395580 A    
C35   H11   1.083610 S    
C83   H47   1.083239 S    
H7    C207  1.084051 S    
C108  H56   1.082497 S    
C43   C49   1.406404 A    
H2    C202  1.084045 S    
C75   C115  1.395943 A    
N3    O58   1.301324 A    
Zn7   O33   1.917995 S    
C23   C158  1.474777 S    
C160  C168  1.406451 A    
C148  C156  1.396072 A    
C161  C169  1.406453 A    
C103  H51   1.082615 S    
C169  C177  1.395766 A    
H31   C115  1.082481 S    
C156  C164  1.406499 A    
O43   C23   1.280816 A    
O8    C12   1.271551 A    
Zn11  O15   1.918699 S    
C8    C206  1.393717 A    
C151  H75   1.083018 S    
C189  C194  1.202004 T    
C152  C160  1.406500 A    
C175  C183  1.398152 A    
C79   C87   1.405871 A    
C167  H83   1.082932 S    
O46   C10   1.269846 A    
Zn6   O36   1.918006 S    
C191  C196  1.202001 T    
O26   C28   1.278657 A    
C177  H93   1.083608 S    
C92   C100  1.410773 A    
C172  C180  1.395774 A    
C174  H90   1.083603 S    
Zn1   O31   1.918005 S    
C11   C126  1.455075 S    
C187  C195  1.433120 S    
Zn3   O29   1.917995 S    
C155  C163  1.406500 A    
C3    C65   1.419816 A    
H27   C111  1.082493 S    
Zn2   O32   1.918006 S    
Zn7   O43   1.917898 S    
C162  C170  1.406449 A    
C117  C125  1.400129 A    
C106  C114  1.397645 A    
C2    C25   1.473585 S    
C144  C152  1.396072 A    
C179  C187  1.398153 A    
C62   C202  1.400525 A    
C91   C140  1.483954 S    
C154  C162  1.406499 A    
O6    C10   1.271583 A    
C92   C139  1.483829 S    
C3    C67   1.419728 A    
C13   C132  1.455076 S    
C95   Cl3   1.760270 S    
C14   C131  1.455082 S    
Zn12  O24   1.917508 S    
C15   C130  1.455067 S    
C123  C136  1.391414 A    
C33   C41   1.395580 A    
C35   C43   1.395584 A    
Zn3   O1    1.935673 S    
Zn9   O1    1.933899 S    
C143  H67   1.083584 S    
N2    O55   1.301316 A    
C166  C174  1.395768 A    
C41   H17   1.082944 S    
N4    O60   1.301494 A    
C120  H60   1.084772 S    
C79   H43   1.083267 S    
C104  C112  1.397184 A    
C146  H70   1.083584 S    
C165  H81   1.082932 S    
C99   C107  1.400964 A    
H4    C204  1.084048 S    
C105  C113  1.397320 A    
C124  H64   1.084776 S    
C190  C193  1.202000 T    
C197  C198  1.201971 T    
O23   C25   1.278544 A    
C94   C102  1.400997 A    
C71   C79   1.397584 A    
Zn4   O30   1.917994 S    
C69   C77   1.397776 A    
O28   C28   1.278539 A    
N1    O53   1.301464 A    
O35   C31   1.281374 A    
C72   C80   1.397572 A    
Zn12  O48   1.937071 S    
C73   C81   1.397623 A    
N1    O54   1.301321 A    
C8    C208  1.393709 A    
C9    C128  1.455072 S    
Zn10  O22   1.917463 S    
C86   C133  1.483948 S    
C10   C127  1.455075 S    
C38   H14   1.083610 S    
C145  C153  1.396076 A    
C80   H44   1.083243 S    
Zn16  O4    1.933809 S    
Zn1   O7    1.935994 S    
C65   C205  1.400522 A    
C172  H88   1.082933 S    
Zn2   O8    1.935990 S    
O36   C32   1.281373 A    
C44   C50   1.406405 A    
C7    C207  1.393759 A    
C61   N1    1.438162 S    
Zn5   O11   1.935994 S    
C1    C63   1.419847 A    
