data_mof_unit_42921.cif
_audit_creation_date              2012-12-11T16:05:04-0500
_audit_creation_method            fapswitch 2.2
_symmetry_space_group_name_H-M    P1
_symmetry_Int_Tables_number       1
_space_group_crystal_system       triclinic
_cell_length_a                    10.738835
_cell_length_b                    10.635105
_cell_length_c                    16.925357
_cell_angle_alpha                 98.707843
_cell_angle_beta                  98.986583
_cell_angle_gamma                 60.939375
_cell_volume                      1662.52852068

loop_
_atom_site_label
_atom_site_type_symbol
_atom_type_description
_atom_site_fract_x
_atom_site_fract_y
_atom_site_fract_z
_atom_type_partial_charge
C1    C     C_R   0.354843 0.773305 0.398152 0.540077
C2    C     C_3   0.727679 0.350672 0.245316 -0.143224
C3    C     C_3   0.824831 0.346094 0.323101 0.075575
C4    C     C_3   0.947565 0.206001 0.291981 -0.183594
C5    C     C_3   0.002060 0.296271 0.258264 -0.150816
C6    C     C_3   0.876366 0.435688 0.288808 0.281203
C7    C     C_3   0.779993 0.441779 0.211112 -0.116407
C8    C     C_3   0.905768 0.301515 0.180262 0.016086
C9    C     C_3   0.426743 0.880082 0.236855 0.021500
C10   C     C_3   0.478161 0.732696 0.268327 -0.119007
C11   C     C_3   0.348473 0.805360 0.317786 0.047618
C12   C     C_R   0.368625 0.344621 0.359461 0.537167
C13   C     C_3   0.299710 0.951723 0.288464 -0.186549
C14   C     C_3   0.208670 0.913093 0.219287 -0.136013
C15   C     C_3   0.258681 0.765695 0.249253 -0.104841
C16   C     C_3   0.386506 0.695273 0.197996 -0.147447
C17   C     C_3   0.336322 0.842383 0.167883 0.070651
C18   C     C_3   0.432131 0.216449 0.762645 0.273463
C19   C     C_3   0.382918 0.365983 0.737063 -0.010044
C20   C     C_3   0.325342 0.319497 0.655105 0.003419
C21   C     C_3   0.373798 0.168306 0.681773 -0.179375
C22   C     C_3   0.226375 0.226341 0.715141 -0.177158
C23   C     C_R   0.773481 0.378572 0.400893 0.529687
C24   C     C_3   0.179698 0.375682 0.686625 0.260275
C25   C     C_3   0.235803 0.424674 0.768766 -0.119801
C26   C     C_3   0.287016 0.274125 0.795975 0.004799
C27   C     C_1   0.846137 0.328370 0.705962 0.004253
C28   C     C_1   0.892493 0.295110 0.773296 -0.058124
C29   C     C_1   0.336397 0.815942 0.709091 -0.000024
C30   C     C_1   0.311220 0.842585 0.777830 -0.031062
C31   C     C_R   0.954999 0.285172 0.102692 0.540634
C32   C     C_R   0.294226 0.263650 0.123292 0.542351
C33   C     C_R   0.297494 0.887592 0.087307 0.546175
C34   C     C_R   0.355654 0.773646 0.626604 0.578608
C35   C     C_R   0.942254 0.275667 0.856053 0.535481
C36   C     C_R   0.276997 0.250494 0.877200 0.547047
C37   C     C_R   0.279050 0.886251 0.858658 0.526997
C38   C     C_R   0.366905 0.344060 0.583984 0.572965
C39   C     C_R   0.778356 0.377114 0.628917 0.595911
C40   C     C_1   0.331386 0.321582 0.277159 -0.083261
C41   C     C_1   0.311646 0.297761 0.206572 -0.076541
C42   C     C_3   0.852343 0.209825 0.212284 -0.117702
Cr1   Cr    Cr6+3 0.608340 0.611040 0.520430 1.032168
Cr2   Cr    Cr6+3 0.287650 0.601120 0.489350 1.000443
Cr3   Cr    Cr6+3 0.604040 0.287870 0.490280 1.013819
Cr4   Cr    Cr6+3 0.054020 0.052700 0.970850 1.001117
Cr5   Cr    Cr6+3 0.059230 0.375120 0.993390 1.029043
Cr6   Cr    Cr6+3 0.374950 0.061200 0.992340 1.082282
H1    H     H_    0.615006 0.372506 0.242690 0.128189
H2    H     H_    0.097343 0.980735 0.195596 0.141822
H3    H     H_    0.188018 0.719341 0.255180 0.132911
H4    H     H_    0.422795 0.591356 0.159984 0.125485
H5    H     H_    0.429012 0.063976 0.645229 0.118814
H6    H     H_    0.162123 0.168541 0.706970 0.091079
H7    H     H_    0.177708 0.529969 0.803958 0.141028
H8    H     H_    0.841283 0.117306 0.178396 0.149338
H9    H     H_    0.010362 0.112620 0.328622 0.117026
H10   H     H_    0.114652 0.271348 0.263204 0.085693
H11   H     H_    0.712602 0.535895 0.175461 0.143776
H12   H     H_    0.587744 0.663783 0.294895 0.164405
H13   H     H_    0.267233 0.053641 0.327979 0.094605
O1    O     O_R   0.751220 0.499230 0.435170 -0.512644
O2    O     O_R   0.297880 0.469080 0.560050 -0.484062
O3    O     O_R   0.489720 0.254590 0.564810 -0.521270
O4    O     O_R   0.725220 0.304230 0.585080 -0.499463
O5    O     O_3   0.500010 0.500010 0.500020 -0.232546
O6    O     O_R   0.171830 0.913880 0.057510 -0.531908
O7    O     O_R   0.940690 0.186050 0.054730 -0.483506
O8    O     O_R   0.920470 0.405720 0.075010 -0.509811
O9    O     O_R   0.196690 0.370460 0.084120 -0.506832
O10   O     O_R   0.412990 0.180750 0.091610 -0.462835
O11   O     O_R   0.366620 0.943130 0.065760 -0.475428
O12   O     O_R   0.477220 0.727600 0.436870 -0.512492
O13   O     O_R   0.160510 0.906330 0.879210 -0.529436
O14   O     O_R   0.930190 0.179050 0.889450 -0.494795
O15   O     O_R   0.909140 0.398170 0.896710 -0.480096
O16   O     O_R   0.186190 0.363460 0.918830 -0.512178
O17   O     O_R   0.401670 0.173200 0.913310 -0.432985
O18   O     O_R   0.356120 0.936130 0.900470 -0.502594
O19   O     O_3   0.162740 0.163010 0.985530 -0.345860
O20   O     O_R   0.258650 0.745120 0.411470 -0.540018
O21   O     O_R   0.297070 0.467240 0.395960 -0.509965
O22   O     O_R   0.488830 0.252610 0.387790 -0.527617
O23   O     O_R   0.724400 0.302390 0.420980 -0.517652
O24   O     O_R   0.752100 0.501210 0.612190 -0.476183
O25   O     O_R   0.478040 0.729440 0.600970 -0.480266
O26   O     O_R   0.259530 0.747110 0.588490 -0.519370
C43   C     C_2   0.468531 0.445335 0.756814 0.204921
H14   H     H_    0.499845 0.468596 0.819078 0.126318
O27   O     O_2   0.503534 0.483844 0.703770 -0.497483
O28   O     O_3   0.565055 0.128238 0.804365 -0.523366
C44   C     C_3   0.678514 0.088102 0.757394 0.000440
H15   H     H_    0.703581 0.178430 0.760786 0.160318
H16   H     H_    0.654556 0.057282 0.693275 0.131847
C45   C     C_3   0.810572 0.958185 0.790367 -0.330806
H17   H     H_    0.790750 0.863645 0.783188 0.163919
H18   H     H_    0.903153 0.931116 0.757195 0.111990
H19   H     H_    0.836627 0.982210 0.855087 0.194218
O29   O     O_3   0.041185 0.462247 0.650250 -0.551055
C46   C     C_3   0.033695 0.437957 0.565429 0.036161
H20   H     H_    0.958691 0.394827 0.543704 0.161479
H21   H     H_    0.132219 0.353112 0.539667 0.079886
C47   C     C_3   0.981497 0.580691 0.530056 -0.298257
H22   H     H_    0.033747 0.642640 0.564667 0.164832
H23   H     H_    0.008298 0.559374 0.467304 0.157491
H24   H     H_    0.864081 0.647736 0.532071 0.154202
O30   O     O_3   0.884473 0.555853 0.332514 -0.573678
C48   C     C_3   0.928442 0.621020 0.283972 -0.012035
H25   H     H_    0.858559 0.648900 0.226642 0.181408
H26   H     H_    0.040943 0.548283 0.270533 0.140861
C49   C     C_3   0.918711 0.760541 0.328476 -0.348827
H27   H     H_    0.996312 0.736646 0.382857 0.156590
H28   H     H_    0.943102 0.818357 0.288867 0.110496
H29   H     H_    0.808928 0.831689 0.346680 0.160065
C50   C     C_2   0.528245 0.936316 0.231350 0.224378
H30   H     H_    0.531683 0.020163 0.275266 0.118521
O31   O     O_2   0.612216 0.883366 0.180036 -0.507020

loop_
_geom_bond_atom_site_label_1
_geom_bond_atom_site_label_2
_ccdc_geom_bond_type
Cr1   O12   S    
Cr4   O19   S    
C37   O13   A    
C24   O29   S    
Cr2   O5    S    
C19   C20   S    
C1    C11   S    
C3    C6    S    
C45   H19   S    
C7    C8    S    
C22   H6    S    
C37   O18   A    
C35   O14   A    
C5    H10   S    
C18   O28   S    
Cr6   O18   S    
C44   H15   S    
C8    C42   S    
Cr5   O15   S    
Cr2   O21   S    
C36   O16   A    
C5    C6    S    
C1    O20   A    
C50   H30   S    
C18   C21   S    
C48   H25   S    
C18   C19   S    
C34   O25   A    
Cr6   O17   S    
C9    C13   S    
Cr5   O8    S    
C33   O11   A    
C42   H8    S    
Cr3   O4    S    
C3    C23   S    
C23   O1    A    
C49   H27   S    
C28   C35   S    
C27   C39   S    
C16   C17   S    
C50   O31   D    
C18   C26   S    
C4    H9    S    
C6    O30   S    
C15   H3    S    
C49   H29   S    
Cr2   O26   S    
C9    C10   S    
C21   C22   S    
C39   O4    A    
C14   C17   S    
Cr3   O22   S    
C17   C33   S    
Cr5   O19   S    
Cr6   O11   S    
C7    H11   S    
Cr4   O14   S    
C32   O10   A    
C38   O3    A    
Cr2   O2    S    
C31   O7    A    
C35   O15   A    
C23   O23   A    
Cr1   O24   S    
C25   H7    S    
C24   C25   S    
C49   H28   S    
C19   C43   S    
O28   C44   S    
C32   O9    A    
C25   C26   S    
C29   C34   S    
C46   C47   S    
C12   O22   A    
Cr3   O5    S    
C9    C50   S    
C12   C40   S    
C10   H12   S    
Cr5   O9    S    
Cr4   O7    S    
C29   C30   T    
C2    H1    S    
C20   C38   S    
O29   C46   S    
C32   C41   S    
C44   H16   S    
C12   O21   A    
C47   H23   S    
C20   C21   S    
C9    C17   S    
C40   C41   T    
C46   H21   S    
C43   O27   D    
Cr2   O20   S    
C11   C15   S    
C2    C7    S    
C22   C24   S    
Cr3   O23   S    
Cr5   O16   S    
O30   C48   S    
C3    C4    S    
Cr4   O13   S    
C33   O6    A    
C38   O2    A    
C26   C36   S    
C8    C31   S    
C16   H4    S    
C4    C5    S    
C5    C8    S    
C45   H18   S    
C6    C7    S    
Cr3   O3    S    
C48   C49   S    
C1    O12   A    
Cr6   O19   S    
C2    C3    S    
C45   H17   S    
Cr4   O6    S    
C10   C16   S    
C21   H5    S    
C11   C13   S    
C14   H2    S    
C4    C42   S    
C2    C42   S    
Cr1   O5    S    
C46   H20   S    
C48   H26   S    
C47   H24   S    
C34   O26   A    
C44   C45   S    
C19   C25   S    
Cr1   O25   S    
C10   C11   S    
C31   O8    A    
C13   H13   S    
C43   H14   S    
C30   C37   S    
C22   C26   S    
C47   H22   S    
C39   O24   A    
C14   C15   S    
C36   O17   A    
Cr6   O10   S    
C13   C14   S    
C20   C24   S    
C15   C16   S    
Cr1   O1    S    
C27   C28   T    
