data_mof_unit_53081.cif
_audit_creation_date              2013-03-05T16:34:52-0500
_audit_creation_method            fapswitch 2.2
_symmetry_space_group_name_H-M    P1
_symmetry_Int_Tables_number       1
_space_group_crystal_system       triclinic
_cell_length_a                    15.057934
_cell_length_b                    9.101633
_cell_length_c                    7.794383
_cell_angle_alpha                 89.94765
_cell_angle_beta                  89.999378
_cell_angle_gamma                 89.994486
_cell_volume                      1068.23368345

loop_
_atom_site_label
_atom_site_type_symbol
_atom_site_description
_atom_site_fract_x
_atom_site_fract_y
_atom_site_fract_z
_atom_type_partial_charge
O1    O     O_R   0.500000 0.288390 0.642760 -0.560311
O2    O     O_R   0.500000 0.711610 0.357240 -0.560244
O3    O     O_R   0.500000 0.711610 0.642760 -0.584438
O4    O     O_R   0.500000 0.288390 0.357240 -0.584392
H1    H     H_    0.920345 0.128807 0.534299 0.194587
H2    H     H_    0.079632 0.871225 0.465494 0.194616
H3    H     H_    0.920230 0.871179 0.465534 0.194661
H4    H     H_    0.079755 0.128844 0.534244 0.194733
C1    C     C_R   0.500001 0.220041 0.500032 0.907637
C2    C     C_R   0.500012 0.779959 0.499968 0.907875
O5    O     O_R   0.370260 0.500000 0.642800 -0.567328
O6    O     O_R   0.629740 0.500000 0.357200 -0.567306
O7    O     O_R   0.629740 0.500000 0.642800 -0.567264
O8    O     O_R   0.370260 0.500000 0.357200 -0.567227
C3    C     C_R   0.328731 0.500042 0.500000 0.927994
C4    C     C_R   0.671268 0.499974 0.499998 0.927641
Cu1   Cu    Cu3+1 0.500000 0.500000 0.669080 1.123848
Cu2   Cu    Cu3+1 0.500000 0.500000 0.330920 1.123883
N1    N     N_1   0.500000 0.500000 0.076820 -0.021549
N2    N     N_1   0.500000 0.500000 0.923180 -0.021552
C5    C     C_R   0.813068 0.634437 0.494425 0.236893
C6    C     C_R   0.186924 0.365598 0.505443 0.236827
C7    C     C_R   0.813101 0.365517 0.505515 0.236874
C8    C     C_R   0.186894 0.634536 0.494531 0.236799
C9    C     C_R   0.767473 0.499973 0.499993 -0.264055
C10   C     C_R   0.232523 0.500067 0.499986 -0.264163
C11   C     C_R   0.906375 0.365233 0.507887 0.016406
C12   C     C_R   0.093617 0.634809 0.492055 0.016387
C13   C     C_R   0.906338 0.634758 0.492010 0.016417
C14   C     C_R   0.093654 0.365277 0.507856 0.016441
C15   C     C_R   0.953099 0.500007 0.499948 0.014800
C16   C     C_R   0.046894 0.500031 0.499950 0.014801
C17   C     C_R   0.953947 0.233174 0.521484 -0.129880
C18   C     C_R   0.046040 0.766859 0.478375 -0.129811
C19   C     C_R   0.953867 0.766835 0.478367 -0.129843
C20   C     C_R   0.046121 0.233196 0.521457 -0.129797
C21   C     C_1   0.500007 0.065358 0.500046 -0.020476
C22   C     C_1   0.500011 0.934642 0.499955 -0.020384
N3    N     N_R   0.764270 0.770035 0.493627 0.112970
O9    O     O_R   0.769576 0.859026 0.623742 -0.300144
O10   O     O_R   0.711752 0.801766 0.366368 -0.325220
N4    N     N_R   0.235721 0.229996 0.506162 0.113046
O11   O     O_R   0.230348 0.140994 0.376055 -0.300243
O12   O     O_R   0.288278 0.198243 0.633361 -0.325226
N5    N     N_R   0.764337 0.229897 0.506256 0.113059
O13   O     O_R   0.711646 0.198272 0.633297 -0.325369
O14   O     O_R   0.769785 0.140838 0.376209 -0.300181
N6    N     N_R   0.235649 0.770179 0.494074 0.113301
O15   O     O_R   0.288792 0.801598 0.367638 -0.325889
O16   O     O_R   0.229815 0.859399 0.623920 -0.300202

loop_
_geom_bond_atom_site_label_1
_geom_bond_atom_site_label_2
_geom_bond_distance
_ccdc_geom_bond_type
N4    O12   1.300856 A    
C21   C22   1.189735 T    
C7    N5    1.436320 S    
O7    Cu1   1.964323 S    
O2    Cu2   1.937078 S    
C8    C12   1.404692 A    
C13   C19   1.403035 A    
O1    Cu1   1.937079 S    
N1    N2    1.197530 T    
C5    N3    1.436285 S    
C14   C20   1.403078 A    
C2    C22   1.407864 S    
O4    Cu2   1.936706 S    
Cu1   N2    1.980552 S    
O5    C3    1.276684 A    
C1    C21   1.407861 S    
Cu1   Cu2   2.635749 S    
C12   C18   1.403109 A    
C13   C15   1.415458 A    
O3    C2    1.274533 A    
N5    O13   1.300916 A    
C11   C17   1.403081 A    
C14   C16   1.415452 A    
C6    N4    1.436310 S    
H3    C19   1.080848 S    
O6    C4    1.276664 A    
N6    O16   1.301118 A    
N6    O15   1.301088 A    
C8    C10   1.404112 A    
O3    Cu1   1.936705 S    
C7    C11   1.404639 A    
C7    C9    1.404018 A    
H4    C20   1.080848 S    
C18   C19   1.387941 A    
O7    C4    1.276674 A    
N4    O11   1.301029 A    
N3    O9    1.300952 A    
C11   C15   1.415476 A    
C8    N6    1.436427 S    
H2    C18   1.080819 S    
C12   C16   1.415483 A    
C17   C20   1.387956 A    
O1    C1    1.275094 A    
N3    O10   1.300816 A    
Cu2   N1    1.980552 S    
C6    C10   1.404001 A    
N5    O14   1.301041 A    
O6    Cu2   1.964328 S    
C4    C9    1.448647 S    
C5    C9    1.403966 A    
O8    C3    1.276674 A    
O5    Cu1   1.964329 S    
C3    C10   1.448689 S    
C6    C14   1.404593 A    
O4    C1    1.274536 A    
C5    C13   1.404583 A    
O8    Cu2   1.964325 S    
C15   C16   1.412359 A    
H1    C17   1.080844 S    
O2    C2    1.275097 A    
