data_mof_unit_37225.cif
_audit_creation_date              2012-12-10T17:42:40-0500
_audit_creation_method            fapswitch 2.2
_symmetry_space_group_name_H-M    P1
_symmetry_Int_Tables_number       1
_space_group_crystal_system       triclinic
_cell_length_a                    9.895214
_cell_length_b                    10.755721
_cell_length_c                    13.213346
_cell_angle_alpha                 91.002848
_cell_angle_beta                  70.377499
_cell_angle_gamma                 90.659063
_cell_volume                      1324.40213687

loop_
_atom_site_label
_atom_site_type_symbol
_atom_type_description
_atom_site_fract_x
_atom_site_fract_y
_atom_site_fract_z
_atom_type_partial_charge
C1    C     C_R   0.504823 0.738807 0.490306 0.893616
C2    C     C_R   0.465319 0.544959 0.969927 0.033212
C3    C     C_R   0.471638 0.481705 0.874279 -0.010070
C4    C     C_R   0.565402 0.511132 0.019779 0.033792
C5    C     C_R   0.689474 0.439648 0.963815 -0.019305
C6    C     C_R   0.689919 0.373950 0.870503 0.293272
C7    C     C_R   0.577313 0.390114 0.831313 -0.189598
C8    C     C_R   0.532889 0.530016 0.129341 -0.167958
C9    C     C_R   0.765983 0.456897 0.120021 -0.221388
C10   C     C_R   0.376023 0.514420 0.820320 -0.070192
C11   C     C_R   0.323091 0.874929 0.393487 -0.095689
C12   C     C_R   0.421014 0.497719 0.703902 0.868271
C13   C     C_R   0.200909 0.931233 0.386301 -0.096893
C14   C     C_R   0.158276 0.045399 0.436605 -0.133016
C15   C     C_R   0.244483 0.107889 0.485752 -0.093390
C16   C     C_R   0.378533 0.058164 0.482970 0.067415
C17   C     C_R   0.405337 0.933782 0.450312 0.089417
C18   C     C_R   0.510451 0.870871 0.479277 -0.159326
C19   C     C_R   0.607584 0.934461 0.516575 -0.225127
C20   C     C_R   0.600020 0.060562 0.529803 0.272556
C21   C     C_R   0.487087 0.125092 0.511461 -0.197298
C22   C     C_R   0.801667 0.666317 0.636972 -0.231697
C23   C     C_R   0.495401 0.259495 0.506243 0.916988
C24   C     C_R   0.843554 0.747867 0.703863 -0.190536
C25   C     C_R   0.982864 0.745977 0.704992 0.293374
C26   C     C_R   0.080752 0.661994 0.639269 -0.211053
C27   C     C_R   0.042979 0.580285 0.568475 0.136680
C28   C     C_R   0.898644 0.581305 0.567820 0.185105
C29   C     C_R   0.956629 0.422537 0.435020 -0.054447
C30   C     C_R   0.099921 0.422825 0.434821 -0.107723
C31   C     C_R   0.579461 0.501223 0.296432 0.894779
C32   C     C_R   0.797784 0.426915 0.011553 0.329293
C33   C     C_R   0.629279 0.498622 0.180112 -0.116711
C34   C     C_R   0.262378 0.595084 0.869363 -0.162459
C35   C     C_R   0.255649 0.658237 0.963247 -0.117036
C36   C     C_R   0.361501 0.641228 0.009604 0.239441
H1    H     H_    0.844980 0.440355 0.158480 0.184955
H2    H     H_    0.352551 0.785316 0.354240 0.177549
H3    H     H_    0.136596 0.884201 0.345150 0.170785
H4    H     H_    0.058657 0.086209 0.437020 0.182357
H5    H     H_    0.198659 0.190875 0.530190 0.199444
H6    H     H_    0.925705 0.359230 0.382013 0.154570
H7    H     H_    0.692752 0.673935 0.641870 0.222233
H8    H     H_    0.766856 0.812791 0.755144 0.211792
H9    H     H_    0.184758 0.663262 0.646048 0.217361
H10   H     H_    0.176880 0.359787 0.381553 0.149087
H11   H     H_    0.425876 0.557978 0.177694 0.192992
H12   H     H_    0.188072 0.620100 0.829029 0.194996
H13   H     H_    0.175465 0.729730 0.994083 0.205973
H14   H     H_    0.573798 0.330694 0.765218 0.209880
H15   H     H_    0.688868 0.885691 0.538338 0.195975
N1    N     N_R   0.856860 0.501200 0.500990 -0.108964
N2    N     N_R   0.142450 0.501280 0.501020 -0.114006
O1    O     O_R   0.385310 0.683220 0.500000 -0.646561
O2    O     O_R   0.614640 0.683250 0.500010 -0.643510
O3    O     O_R   0.328400 0.499950 0.653610 -0.610731
O4    O     O_R   0.557730 0.499970 0.653620 -0.630506
O5    O     O_R   0.385360 0.316750 0.499990 -0.635849
O6    O     O_R   0.614690 0.316780 0.500000 -0.568487
O7    O     O_R   0.442270 0.500030 0.346380 -0.626149
O8    O     O_R   0.671600 0.500050 0.346390 -0.616858
Zn1   Zn    Zn3+2 0.346880 0.499980 0.499990 0.954748
Zn2   Zn    Zn3+2 0.653120 0.500020 0.500010 0.972846
Br1   Br    Br    0.744921 0.132018 0.580608 -0.492148
Br2   Br    Br    0.040419 0.859839 0.795741 -0.445868
Br3   Br    Br    0.817679 0.239661 0.805542 -0.337765
Br4   Br    Br    0.993195 0.379934 0.936974 -0.446770
Br5   Br    Br    0.374854 0.773319 0.106493 -0.549669

loop_
_geom_bond_atom_site_label_1
_geom_bond_atom_site_label_2
_ccdc_geom_bond_type
C31   O7    A    
C35   H13   S    
C23   O5    A    
C2    C4    A    
C1    O1    A    
C27   N2    A    
C20   Br1   S    
C16   C21   A    
C29   H6    S    
C11   H2    S    
C11   C13   A    
N2    Zn1   S    
C31   O8    A    
O6    Zn2   S    
C19   C20   A    
C9    C32   A    
C4    C8    A    
C5    C32   A    
C36   Br5   S    
C2    C3    A    
C1    C18   S    
C8    H11   S    
C10   C34   A    
C3    C10   A    
C22   C28   A    
C13   C14   A    
C24   C25   A    
C23   O6    A    
C28   N1    A    
O3    Zn1   S    
C26   C27   A    
C29   C30   A    
C10   C12   S    
O5    Zn1   S    
C9    C33   A    
C32   Br4   S    
C12   O4    A    
C9    H1    S    
C12   O3    A    
N1    Zn2   S    
C17   C18   A    
C6    C7    A    
C3    C7    A    
C8    C33   A    
C21   C23   S    
C1    O2    A    
C5    C6    A    
C24   H8    S    
C30   N2    A    
C22   C24   A    
C13   H3    S    
C34   H12   S    
C31   C33   S    
C14   H4    S    
C15   C16   A    
O4    Zn2   S    
C16   C17   A    
C19   H15   S    
C6    Br3   S    
C25   Br2   S    
C20   C21   A    
C15   H5    S    
O7    Zn1   S    
C34   C35   A    
C2    C36   A    
C27   C28   A    
O8    Zn2   S    
C14   C15   A    
C18   C19   A    
O1    Zn1   S    
C26   H9    S    
C25   C26   A    
C30   H10   S    
C22   H7    S    
C11   C17   A    
C35   C36   A    
C7    H14   S    
C4    C5    A    
C29   N1    A    
O2    Zn2   S    
