data_mof_unit_58272.cif
_audit_creation_date              2012-12-10T17:59:34-0500
_audit_creation_method            fapswitch 2.2
_symmetry_space_group_name_H-M    P1
_symmetry_Int_Tables_number       1
_space_group_crystal_system       triclinic
_cell_length_a                    18.355884
_cell_length_b                    18.320662
_cell_length_c                    34.328469
_cell_angle_alpha                 90.051988
_cell_angle_beta                  89.807603
_cell_angle_gamma                 90.307528
_cell_volume                      11544.1517192

loop_
_atom_site_label
_atom_site_type_symbol
_atom_type_description
_atom_site_fract_x
_atom_site_fract_y
_atom_site_fract_z
_atom_type_partial_charge
C1    C     C_R   0.938307 0.525848 0.418317 -0.247291
C2    C     C_R   0.560964 0.978699 0.081099 -0.240708
C3    C     C_R   0.444847 0.038101 0.541100 0.071310
C4    C     C_R   0.936770 0.528009 0.459181 0.066387
C5    C     C_R   0.060687 0.475459 0.540403 0.092969
C6    C     C_R   0.442365 0.034052 0.459170 0.063869
C7    C     C_R   0.551591 0.956074 0.540924 0.073264
C8    C     C_R   0.564613 0.987118 0.958989 0.090435
C9    C     C_R   0.440377 0.036013 0.041065 0.057156
C10   C     C_R   0.045783 0.449501 0.958948 0.061413
C11   C     C_R   0.949418 0.543484 0.041002 0.069997
C12   C     C_R   0.437715 0.031313 0.959162 0.062924
C13   C     C_R   0.950751 0.542617 0.918429 -0.246478
C14   C     C_R   0.561817 0.978731 0.040331 0.092475
C15   C     C_R   0.945742 0.539045 0.959198 0.062498
C16   C     C_R   0.042492 0.446252 0.040925 0.069830
C17   C     C_R   0.195284 0.696393 0.249851 -0.363951
C18   C     C_R   0.803387 0.303990 0.750130 -0.324793
C19   C     C_R   0.302037 0.195180 0.251502 -0.352819
C20   C     C_R   0.695678 0.803642 0.749508 -0.335154
C21   C     C_R   0.803793 0.304646 0.249912 -0.373359
C22   C     C_R   0.197087 0.696306 0.750218 -0.391379
C23   C     C_R   0.697032 0.803867 0.250244 -0.372618
C24   C     C_R   0.042899 0.449457 0.081803 -0.235558
C25   C     C_R   0.304094 0.196129 0.750246 -0.346508
C26   C     C_R   0.196057 0.303036 0.749412 -0.353972
C27   C     C_R   0.804367 0.696288 0.249875 -0.353790
C28   C     C_R   0.304302 0.804267 0.750085 -0.377974
C29   C     C_R   0.695867 0.197329 0.249929 -0.372911
C30   C     C_R   0.802193 0.695270 0.751740 -0.345953
C31   C     C_R   0.195469 0.303517 0.249754 -0.346003
C32   C     C_R   0.695820 0.196267 0.750015 -0.343537
C33   C     C_R   0.305583 0.801335 0.249540 -0.361769
C34   C     C_R   0.000012 0.505396 0.479559 -0.027483
C35   C     C_R   0.562246 0.983469 0.918405 -0.246564
C36   C     C_R   0.000136 0.505126 0.520289 -0.027434
C37   C     C_R   0.498541 0.997359 0.479630 -0.025527
C38   C     C_R   0.498347 0.997197 0.520478 -0.029147
C39   C     C_R   0.501037 0.008894 0.979528 -0.027219
C40   C     C_R   0.501198 0.008388 0.020266 -0.026863
C41   C     C_R   0.995739 0.494267 0.979617 -0.024499
C42   C     C_R   0.995840 0.494583 0.020442 -0.028146
C43   C     C_3   0.201807 0.462649 0.458972 -0.436874
C44   C     C_3   0.222171 0.538393 0.443276 -0.839670
C45   C     C_3   0.822552 0.608609 0.542689 -0.410399
C46   C     C_R   0.440622 0.031019 0.081872 -0.244745
C47   C     C_3   0.758575 0.562250 0.557199 -0.883116
C48   C     C_3   0.680239 0.900691 0.457732 -0.402587
C49   C     C_3   0.673767 0.822470 0.442671 -0.897879
C50   C     C_3   0.334315 0.123215 0.543001 -0.415511
C51   C     C_3   0.369984 0.194524 0.556396 -0.862015
C52   C     C_3   0.803307 0.569447 0.458004 -0.416977
C53   C     C_3   0.766427 0.498692 0.444539 -0.839271
C54   C     C_3   0.173292 0.393352 0.539174 -0.433946
C55   C     C_3   0.133983 0.324071 0.553080 -0.878831
C56   C     C_3   0.314730 0.088600 0.457900 -0.401531
C57   C     C_R   0.044403 0.450986 0.918018 -0.238281
C58   C     C_3   0.316527 0.168211 0.444804 -0.889163
C59   C     C_3   0.654922 0.862113 0.542003 -0.421428
C60   C     C_3   0.612076 0.794785 0.555458 -0.847749
C61   C     C_3   0.703137 0.969324 0.958900 -0.433158
C62   C     C_3   0.721333 0.045429 0.942964 -0.845826
C63   C     C_3   0.324632 0.112863 0.042863 -0.411272
C64   C     C_3   0.259497 0.067634 0.056847 -0.885157
C65   C     C_3   0.157476 0.366402 0.957549 -0.403657
C66   C     C_3   0.135849 0.290521 0.942904 -0.895140
C67   C     C_3   0.851386 0.642801 0.042734 -0.416300
C68   C     C_R   0.953676 0.545379 0.081844 -0.249825
C69   C     C_3   0.896455 0.709371 0.054969 -0.859271
C70   C     C_3   0.305030 0.075050 0.958013 -0.417897
C71   C     C_3   0.266203 0.005065 0.944961 -0.841557
C72   C     C_3   0.675950 0.898706 0.038877 -0.433859
C73   C     C_3   0.638135 0.828255 0.052254 -0.877738
C74   C     C_3   0.825296 0.607664 0.958164 -0.407771
C75   C     C_3   0.834289 0.686623 0.944780 -0.884080
C76   C     C_3   0.128177 0.335983 0.042400 -0.422462
C77   C     C_3   0.074713 0.278094 0.057527 -0.843568
C78   C     C_3   0.237027 0.860940 0.164174 0.175269
C79   C     C_R   0.999709 0.501898 0.398276 -0.056476
C80   C     C_3   0.236459 0.851984 0.119908 -0.323650
C81   C     C_3   0.175160 0.895577 0.101372 -0.994092
C82   C     C_3   0.629488 0.237502 0.830156 0.112856
C83   C     C_3   0.594449 0.202513 0.866059 -0.316143
C84   C     C_3   0.521721 0.237993 0.876039 -1.006619
C85   C     C_3   0.068932 0.183468 0.258866 0.122565
C86   C     C_3   0.989868 0.169900 0.246670 -0.321634
C87   C     C_3   0.947375 0.128099 0.277786 -1.030236
C88   C     C_3   0.876882 0.776601 0.823692 0.159485
C89   C     C_3   0.858845 0.850276 0.842771 -0.332009
C90   C     C_R   0.000193 0.502057 0.601646 -0.048486
C91   C     C_3   0.863235 0.846995 0.887095 -1.027310
C92   C     C_3   0.793476 0.119159 0.178960 0.177762
C93   C     C_3   0.805654 0.105305 0.135495 -0.320880
C94   C     C_3   0.881897 0.075874 0.127524 -0.989432
C95   C     C_3   0.342359 0.792370 0.837783 0.126141
C96   C     C_3   0.316332 0.734421 0.866893 -0.319846
C97   C     C_3   0.377164 0.712108 0.894570 -0.995810
C98   C     C_3   0.929607 0.822973 0.249945 0.125292
C99   C     C_3   0.005057 0.840448 0.233153 -0.314985
C100  C     C_3   0.050343 0.887094 0.260927 -1.017307
C101  C     C_R   0.500087 0.999775 0.398171 -0.022987
C102  C     C_3   0.114293 0.205417 0.820905 0.173857
C103  C     C_3   0.057602 0.147245 0.831645 -0.322188
C104  C     C_3   0.065144 0.122715 0.873923 -1.003386
C105  C     C_3   0.183044 0.070746 0.744313 0.126521
C106  C     C_3   0.166469 0.992895 0.757660 -0.323915
C107  C     C_3   0.128395 0.948580 0.726028 -1.018250
C108  C     C_3   0.767565 0.881587 0.175069 0.172786
C109  C     C_3   0.837850 0.867239 0.152098 -0.329382
C110  C     C_3   0.828738 0.884171 0.108960 -1.052210
C111  C     C_3   0.106077 0.780114 0.816753 0.184092
C112  C     C_R   0.060295 0.476559 0.581161 -0.237877
C113  C     C_R   0.499831 0.999320 0.601866 -0.031981
C114  C     C_3   0.124936 0.851776 0.837635 -0.346283
C115  C     C_3   0.057586 0.898417 0.844317 -1.018384
C116  C     C_3   0.795970 0.344626 0.163117 0.143697
C117  C     C_3   0.734528 0.324241 0.135001 -0.336248
C118  C     C_3   0.710410 0.390085 0.111182 -0.999415
C119  C     C_3   0.826083 0.922279 0.735276 0.121121
C120  C     C_3   0.847636 0.001102 0.744482 -0.313773
C121  C     C_3   0.893150 0.034563 0.711730 -1.021308
C122  C     C_3   0.195085 0.106343 0.184622 0.180234
C123  C     C_3   0.129177 0.055333 0.179891 -0.324929
C124  C     C_R   0.500011 0.003430 0.898271 -0.055696
C125  C     C_3   0.087267 0.070961 0.142528 -0.984468
C126  C     C_3   0.844437 0.267695 0.841272 0.141088
C127  C     C_3   0.867987 0.309628 0.877708 -0.310404
C128  C     C_3   0.931369 0.272622 0.898185 -0.981074
C129  C     C_3   0.223949 0.645822 0.165076 0.109494
C130  C     C_3   0.186680 0.618949 0.127941 -0.305803
C131  C     C_3   0.220399 0.548133 0.113161 -1.015783
C132  C     C_3   0.758502 0.339334 0.656165 0.171147
C133  C     C_3   0.770461 0.316661 0.613711 -0.322607
C134  C     C_3   0.711403 0.346285 0.586964 -0.971675
C135  C     C_R   0.500429 0.003121 0.101619 -0.046170
C136  C     C_3   0.144132 0.721031 0.334311 0.118941
C137  C     C_3   0.165051 0.786769 0.359605 -0.320831
C138  C     C_3   0.098914 0.817542 0.380941 -1.001053
C139  C     C_3   0.570479 0.683074 0.764483 0.128064
C140  C     C_3   0.493265 0.660469 0.752979 -0.328261
C141  C     C_3   0.453524 0.621791 0.786177 -1.023625
C142  C     C_3   0.374334 0.271218 0.326077 0.160049
C143  C     C_3   0.354214 0.342921 0.346630 -0.332210
C144  C     C_3   0.360346 0.336911 0.390809 -1.031737
C145  C     C_3   0.282612 0.603657 0.685820 0.178912
C146  C     C_R   0.999135 0.498704 0.898219 -0.032603
C147  C     C_3   0.357781 0.622724 0.668901 -0.346433
C148  C     C_3   0.405010 0.555033 0.664318 -1.006282
C149  C     C_3   0.841171 0.293129 0.337421 0.127854
C150  C     C_3   0.815714 0.233434 0.365646 -0.322388
C151  C     C_3   0.877660 0.208273 0.391865 -0.997401
C152  C     C_3   0.426347 0.325816 0.753277 0.121790
C153  C     C_3   0.504705 0.340474 0.740018 -0.315676
C154  C     C_3   0.544860 0.390685 0.768294 -1.022663
C155  C     C_3   0.623139 0.728284 0.326390 0.172019
C156  C     C_3   0.627870 0.653884 0.346762 -0.338086
C157  C     C_R   0.999673 0.498938 0.101791 -0.038830
C158  C     C_3   0.617253 0.660214 0.390717 -1.028468
C159  C     C_3   0.681020 0.573105 0.243907 0.126491
C160  C     C_3   0.660660 0.496188 0.257338 -0.322190
C161  C     C_3   0.621957 0.453069 0.225453 -1.012470
C162  C     C_3   0.267035 0.377445 0.674172 0.166239
C163  C     C_3   0.336643 0.357943 0.651690 -0.328373
C164  C     C_3   0.328691 0.372782 0.608244 -1.045602
C165  C     C_3   0.603911 0.281231 0.315802 0.187814
C166  C     C_3   0.621651 0.353198 0.336654 -0.348887
C167  C     C_3   0.553558 0.399075 0.342971 -1.012420
C168  C     C_R   0.127318 0.462540 0.479378 0.108935
C169  C     C_3   0.293503 0.843767 0.663027 0.133457
C170  C     C_3   0.231087 0.820900 0.636055 -0.323382
C171  C     C_3   0.206050 0.884527 0.610837 -1.003432
C172  C     C_3   0.321088 0.424954 0.239737 0.128101
C173  C     C_3   0.337561 0.504484 0.250110 -0.320866
C174  C     C_3   0.378967 0.543309 0.217502 -1.025071
C175  C     C_3   0.695458 0.593668 0.692943 0.162435
C176  C     C_3   0.651132 0.523093 0.689514 -0.334430
C177  C     C_3   0.630587 0.507244 0.647362 -1.017345
C178  C     C_3   0.386857 0.721960 0.319588 0.172876
C179  C     C_R   0.878965 0.563038 0.520825 0.125948
C180  C     C_3   0.362491 0.649237 0.337843 -0.339948
C181  C     C_3   0.427085 0.599980 0.346510 -1.018823
C182  C     C_3   0.737228 0.132933 0.668736 0.099073
C183  C     C_3   0.702703 0.099293 0.632421 -0.304978
C184  C     C_3   0.742920 0.030783 0.619446 -1.030608
C185  C     C_R   0.611582 0.924746 0.479345 0.124490
C186  C     C_R   0.388453 0.075117 0.520767 0.129852
C187  C     C_R   0.874469 0.553919 0.479760 0.122091
C188  C     C_R   0.446311 0.037054 0.418309 -0.240437
C189  C     C_R   0.120857 0.446426 0.519529 0.115200
C190  C     C_R   0.383913 0.067331 0.479654 0.122891
C191  C     C_R   0.605733 0.915939 0.520355 0.122469
C192  C     C_R   0.628679 0.967394 0.979285 0.108091
C193  C     C_R   0.380302 0.066649 0.020884 0.126550
C194  C     C_R   0.095064 0.403637 0.979303 0.121947
C195  C     C_R   0.898239 0.587399 0.020675 0.128994
C196  C     C_R   0.375787 0.058005 0.979778 0.123811
C197  C     C_R   0.622506 0.950916 0.019393 0.113122
C198  C     C_R   0.892262 0.579697 0.979655 0.124470
C199  C     C_R   0.550318 0.957476 0.581840 -0.236621
C200  C     C_R   0.088499 0.396866 0.020428 0.121402
C201  C     C_R   0.500163 0.000002 0.355859 0.800798
C202  C     C_R   0.500131 0.999892 0.644156 0.773776
C203  C     C_R   0.999871 0.500189 0.355888 0.783211
C204  C     C_R   0.000084 0.500321 0.644084 0.810682
C205  C     C_R   0.000025 0.499853 0.855879 0.795155
C206  C     C_R   0.000313 0.499852 0.144128 0.780247
C207  C     C_R   0.499899 0.000420 0.855893 0.784716
C208  C     C_R   0.500107 0.000459 0.144071 0.808385
C209  C     C_R   0.359274 0.139715 0.250534 0.914744
C210  C     C_R   0.061546 0.480775 0.418411 -0.241859
C211  C     C_R   0.640075 0.860043 0.749749 0.899280
C212  C     C_R   0.860098 0.360107 0.250027 0.861708
C213  C     C_R   0.140379 0.640116 0.750087 0.920688
C214  C     C_R   0.640421 0.859922 0.250108 0.907968
C215  C     C_R   0.360077 0.140152 0.750129 0.893082
C216  C     C_R   0.139622 0.640139 0.250038 0.876310
C217  C     C_R   0.859797 0.360081 0.750128 0.967215
C218  C     C_R   0.360173 0.860075 0.750050 0.865576
C219  C     C_R   0.640128 0.140298 0.250026 0.926070
C220  C     C_R   0.859260 0.639671 0.750631 0.920704
C221  C     C_R   0.940222 0.529500 0.581873 -0.244583
C222  C     C_R   0.139982 0.359978 0.249835 0.894314
C223  C     C_R   0.639934 0.139959 0.749958 0.890572
C224  C     C_R   0.360432 0.859257 0.249826 0.938169
C225  C     C_R   0.140024 0.359583 0.749779 0.914437
C226  C     C_R   0.860038 0.640073 0.249969 0.892101
C227  C     C_R   0.268744 0.784836 0.214665 0.312843
C228  C     C_R   0.720890 0.224498 0.785669 0.322681
C229  C     C_R   0.177396 0.231698 0.238610 0.295370
C230  C     C_R   0.818193 0.766625 0.765087 0.313582
C231  C     C_R   0.740071 0.207454 0.216641 0.312511
C232  C     C_R   0.552960 0.961047 0.418036 -0.240989
C233  C     C_R   0.266275 0.788617 0.784695 0.344647
C234  C     C_R   0.821191 0.766759 0.236156 0.311247
C235  C     C_R   0.180989 0.234010 0.765934 0.300533
C236  C     C_R   0.233221 0.178937 0.763160 0.295821
C237  C     C_R   0.765729 0.818184 0.232845 0.318723
C238  C     C_R   0.207372 0.740549 0.783600 0.329811
C239  C     C_R   0.788361 0.266397 0.215370 0.329298
C240  C     C_R   0.767482 0.822036 0.759462 0.302360
C241  C     C_R   0.232301 0.178788 0.236351 0.302789
C242  C     C_R   0.776282 0.277208 0.785816 0.299682
C243  C     C_R   0.447926 0.039166 0.582005 -0.244921
C244  C     C_R   0.217007 0.728466 0.214434 0.313607
C245  C     C_R   0.776049 0.278207 0.714371 0.304495
C246  C     C_R   0.228888 0.716248 0.284975 0.341144
C247  C     C_R   0.676714 0.730881 0.740783 0.297167
C248  C     C_R   0.316862 0.265322 0.266954 0.318994
C249  C     C_R   0.241695 0.706547 0.716923 0.331061
C250  C     C_R   0.765004 0.289652 0.284394 0.347780
C251  C     C_R   0.320984 0.266744 0.736923 0.311128
C252  C     C_R   0.682979 0.735090 0.267519 0.322084
C253  C     C_R   0.733982 0.679574 0.263425 0.311603
C254  C     C_R   0.438841 0.028068 0.918287 -0.241050
C255  C     C_R   0.265303 0.317626 0.732813 0.313330
C256  C     C_R   0.705914 0.241880 0.283208 0.324317
C257  C     C_R   0.288913 0.766050 0.715565 0.342449
C258  C     C_R   0.266434 0.320975 0.261772 0.305343
C259  C     C_R   0.731151 0.677423 0.739204 0.293312
C260  C     C_R   0.289440 0.762270 0.284060 0.325296
C261  C     C_R   0.723717 0.222141 0.714410 0.307909
C262  C     C_R   0.063600 0.483400 0.459039 0.087341
C263  C     C_R   0.939447 0.533243 0.541047 0.059246
C264  C     C_R   0.555075 0.961096 0.458974 0.067158
H1    H     H_    0.892664 0.543926 0.401220 0.178434
H2    H     H_    0.607207 0.959559 0.097501 0.164524
H3    H     H_    0.229117 0.793406 0.112444 0.241565
H4    H     H_    0.121363 0.875810 0.112036 0.278006
H5    H     H_    0.177282 0.889219 0.069221 0.272822
H6    H     H_    0.181368 0.954190 0.108612 0.270293
H7    H     H_    0.589338 0.235662 0.805874 0.115463
H8    H     H_    0.643172 0.295460 0.836876 0.164365
H9    H     H_    0.585180 0.143466 0.860470 0.239424
H10   H     H_    0.631889 0.207939 0.891298 0.222449
H11   H     H_    0.529609 0.297035 0.882202 0.267388
H12   H     H_    0.498010 0.211370 0.902263 0.273362
H13   H     H_    0.916958 0.578888 0.901606 0.155377
H14   H     H_    0.482921 0.231392 0.851494 0.256020
H15   H     H_    0.069097 0.221217 0.284376 0.101694
H16   H     H_    0.093877 0.130629 0.267497 0.159977
H17   H     H_    0.962955 0.223052 0.241458 0.249644
H18   H     H_    0.988342 0.138281 0.219045 0.228864
H19   H     H_    0.970222 0.072516 0.281404 0.271549
H20   H     H_    0.889410 0.123078 0.268928 0.263965
H21   H     H_    0.950013 0.157383 0.306034 0.264568
H22   H     H_    0.930123 0.757813 0.835005 0.153768
H23   H     H_    0.836165 0.734325 0.832807 0.107146
H24   H     H_    0.078111 0.415358 0.099020 0.164091
H25   H     H_    0.896906 0.892867 0.831754 0.242862
H26   H     H_    0.802462 0.866377 0.835413 0.261577
H27   H     H_    0.817094 0.814228 0.898634 0.271044
H28   H     H_    0.859052 0.903000 0.899280 0.279168
H29   H     H_    0.915361 0.822661 0.896769 0.267503
H30   H     H_    0.783663 0.066112 0.193839 0.147999
H31   H     H_    0.844530 0.142916 0.191399 0.149686
H32   H     H_    0.764115 0.065823 0.124775 0.199844
H33   H     H_    0.799279 0.157105 0.119112 0.241422
H34   H     H_    0.923387 0.118211 0.134495 0.280578
H35   H     H_    0.608105 0.962924 0.901976 0.175627
H36   H     H_    0.887236 0.061164 0.096268 0.272241
H37   H     H_    0.892319 0.026804 0.145509 0.269319
H38   H     H_    0.371320 0.836337 0.853926 0.168375
H39   H     H_    0.382920 0.768711 0.817137 0.092350
H40   H     H_    0.270228 0.756343 0.884341 0.244721
H41   H     H_    0.296903 0.685456 0.850784 0.231453
H42   H     H_    0.424380 0.690421 0.878045 0.260735
H43   H     H_    0.356841 0.668968 0.914602 0.273221
H44   H     H_    0.395223 0.759692 0.912220 0.268760
H45   H     H_    0.936226 0.790251 0.277054 0.104824
H46   H     H_    0.394413 0.048190 0.099033 0.169283
H47   H     H_    0.901727 0.875208 0.257046 0.165981
H48   H     H_    0.034422 0.788717 0.227197 0.252410
H49   H     H_    0.998978 0.870261 0.205167 0.219504
H50   H     H_    0.023330 0.940330 0.266155 0.269281
H51   H     H_    0.104923 0.897446 0.247922 0.266272
H52   H     H_    0.057550 0.858450 0.289086 0.264809
H53   H     H_    0.100576 0.257196 0.836101 0.132847
H54   H     H_    0.168544 0.187528 0.831836 0.149258
H55   H     H_    0.002073 0.169355 0.826968 0.207458
H56   H     H_    0.064407 0.098953 0.812411 0.238884
H57   H     H_    0.078285 0.415589 0.900614 0.157561
H58   H     H_    0.118566 0.095794 0.878359 0.274558
H59   H     H_    0.021164 0.083042 0.881067 0.270834
H60   H     H_    0.060802 0.169987 0.893980 0.272038
H61   H     H_    0.220576 0.068408 0.718729 0.103741
H62   H     H_    0.131071 0.097169 0.735559 0.162229
H63   H     H_    0.218123 0.965480 0.765605 0.252946
H64   H     H_    0.130900 0.994694 0.783857 0.229877
H65   H     H_    0.074437 0.972530 0.719418 0.271350
H66   H     H_    0.120318 0.891570 0.736184 0.265306
H67   H     H_    0.161879 0.947797 0.699100 0.261913
H68   H     H_    0.919927 0.580879 0.099230 0.162880
H69   H     H_    0.745966 0.935719 0.166391 0.169583
H70   H     H_    0.724880 0.840696 0.166884 0.100948
H71   H     H_    0.882825 0.901205 0.164049 0.236492
H72   H     H_    0.852883 0.808886 0.154682 0.255734
H73   H     H_    0.787705 0.846685 0.096123 0.272727
H74   H     H_    0.881494 0.876530 0.093619 0.282288
H75   H     H_    0.811029 0.941353 0.104730 0.277600
H76   H     H_    0.060868 0.753124 0.832861 0.167507
H77   H     H_    0.085032 0.791609 0.786900 0.122981
H78   H     H_    0.150766 0.839854 0.866152 0.246084
H79   H     H_    0.184821 0.556693 0.420011 0.268457
H80   H     H_    0.163510 0.883922 0.819611 0.254393
H81   H     H_    0.029852 0.909488 0.816234 0.276034
H82   H     H_    0.073821 0.951265 0.857648 0.280221
H83   H     H_    0.019556 0.870106 0.864430 0.278587
H84   H     H_    0.840756 0.370922 0.146280 0.168193
H85   H     H_    0.776546 0.386300 0.184412 0.088178
H86   H     H_    0.753603 0.281033 0.114743 0.233796
H87   H     H_    0.687149 0.302779 0.151745 0.231813
H88   H     H_    0.690887 0.434317 0.130646 0.259791
H89   H     H_    0.665274 0.373756 0.091509 0.273531
H90   H     H_    0.221313 0.579057 0.467300 0.258101
H91   H     H_    0.756394 0.411003 0.093184 0.266597
H92   H     H_    0.791940 0.921661 0.708474 0.106168
H93   H     H_    0.876648 0.890293 0.730014 0.167182
H94   H     H_    0.797684 0.034162 0.748900 0.226695
H95   H     H_    0.879745 0.002564 0.771885 0.226066
H96   H     H_    0.945395 0.004891 0.708578 0.270165
H97   H     H_    0.905142 0.092650 0.718560 0.273104
H98   H     H_    0.863213 0.031812 0.683732 0.265624
H99   H     H_    0.241222 0.084124 0.167314 0.127254
H100  H     H_    0.182551 0.160929 0.171936 0.149794
H101  H     H_    0.278060 0.536919 0.430786 0.248399
H102  H     H_    0.147656 0.997765 0.179775 0.189427
H103  H     H_    0.091423 0.061715 0.204935 0.244720
H104  H     H_    0.062346 0.126017 0.144045 0.281959
H105  H     H_    0.043284 0.029708 0.138869 0.274491
H106  H     H_    0.123983 0.068597 0.116871 0.258550
H107  H     H_    0.893396 0.255101 0.823288 0.152999
H108  H     H_    0.818474 0.215474 0.850528 0.166844
H109  H     H_    0.884868 0.365906 0.869507 0.248316
H110  H     H_    0.821074 0.313604 0.898148 0.212032
H111  H     H_    0.916992 0.215389 0.905768 0.267253
H112  H     H_    0.106569 0.457486 0.597568 0.164621
H113  H     H_    0.246983 0.449332 0.478838 0.208585
H114  H     H_    0.944706 0.302786 0.925342 0.276741
H115  H     H_    0.980085 0.273211 0.878951 0.269379
H116  H     H_    0.223573 0.600450 0.186686 0.119591
H117  H     H_    0.281402 0.660922 0.158051 0.153940
H118  H     H_    0.127912 0.609379 0.133882 0.249996
H119  H     H_    0.191484 0.661396 0.104965 0.214270
H120  H     H_    0.279302 0.556273 0.106930 0.268808
H121  H     H_    0.192760 0.530821 0.085918 0.274352
H122  H     H_    0.213642 0.504179 0.135182 0.255540
H123  H     H_    0.769944 0.398729 0.658945 0.152095
H124  H     H_    0.203159 0.421385 0.435286 0.205007
H125  H     H_    0.700093 0.330717 0.664170 0.155941
H126  H     H_    0.824552 0.336877 0.603652 0.217538
H127  H     H_    0.770348 0.256202 0.611590 0.238200
H128  H     H_    0.656908 0.326105 0.596301 0.276463
H129  H     H_    0.721688 0.327614 0.556671 0.268434
H130  H     H_    0.711852 0.406708 0.587282 0.264110
H131  H     H_    0.113967 0.680962 0.352629 0.162276
H132  H     H_    0.105878 0.737951 0.310845 0.091997
H133  H     H_    0.206360 0.769956 0.381393 0.245263
H134  H     H_    0.189180 0.830212 0.340956 0.228459
H135  H     H_    0.777885 0.519391 0.577395 0.253259
H136  H     H_    0.056616 0.834590 0.359826 0.260652
H137  H     H_    0.115651 0.865841 0.398373 0.272653
H138  H     H_    0.075455 0.775894 0.400936 0.267465
H139  H     H_    0.567321 0.724545 0.788198 0.102683
H140  H     H_    0.599645 0.633993 0.775345 0.170350
H141  H     H_    0.462074 0.709750 0.744480 0.238612
H142  H     H_    0.495977 0.623028 0.727548 0.236318
H143  H     H_    0.481325 0.569922 0.793467 0.271092
H144  H     H_    0.396688 0.609294 0.777263 0.267800
H145  H     H_    0.452209 0.657114 0.812380 0.264002
H146  H     H_    0.719281 0.597498 0.572994 0.247120
H147  H     H_    0.427778 0.252738 0.337276 0.156079
H148  H     H_    0.334406 0.227370 0.333978 0.103932
H149  H     H_    0.390353 0.387614 0.336112 0.247304
H150  H     H_    0.297004 0.357283 0.339971 0.257397
H151  H     H_    0.317586 0.299486 0.402077 0.273562
H152  H     H_    0.351967 0.391476 0.404168 0.279108
H153  H     H_    0.414793 0.316516 0.399440 0.269202
H154  H     H_    0.258488 0.559294 0.667941 0.163934
H155  H     H_    0.288531 0.581378 0.715913 0.128261
H156  H     H_    0.351368 0.649287 0.640025 0.252529
H157  H     H_    0.729853 0.535531 0.532621 0.271464
H158  H     H_    0.386358 0.660976 0.688724 0.246388
H159  H     H_    0.409401 0.525467 0.692459 0.276920
H160  H     H_    0.460503 0.571413 0.654660 0.277352
H161  H     H_    0.381313 0.518310 0.642005 0.276949
H162  H     H_    0.869320 0.336666 0.354285 0.167285
H163  H     H_    0.882336 0.270991 0.316628 0.094007
H164  H     H_    0.770774 0.254693 0.384170 0.243626
H165  H     H_    0.794899 0.185891 0.348839 0.232974
H166  H     H_    0.923415 0.186740 0.374117 0.261002
H167  H     H_    0.857682 0.164260 0.411449 0.272733
H168  H     H_    0.847683 0.637782 0.567633 0.192267
H169  H     H_    0.897679 0.254374 0.410025 0.268648
H170  H     H_    0.427673 0.295709 0.781492 0.103774
H171  H     H_    0.398441 0.379079 0.757535 0.171165
H172  H     H_    0.534305 0.287874 0.737823 0.239259
H173  H     H_    0.504398 0.366337 0.710725 0.227709
H174  H     H_    0.519269 0.445461 0.768590 0.271994
H175  H     H_    0.602553 0.396715 0.758917 0.271044
H176  H     H_    0.543554 0.367619 0.798188 0.261784
H177  H     H_    0.572936 0.756190 0.336530 0.161175
H178  H     H_    0.669720 0.763820 0.335576 0.095643
H179  H     H_    0.802862 0.654575 0.524649 0.190708
H180  H     H_    0.586034 0.616364 0.334635 0.238435
H181  H     H_    0.682242 0.629616 0.341765 0.265076
H182  H     H_    0.664903 0.688266 0.403832 0.276507
H183  H     H_    0.612993 0.604781 0.403607 0.276279
H184  H     H_    0.566828 0.690754 0.397819 0.268307
H185  H     H_    0.718199 0.569054 0.218253 0.106114
H186  H     H_    0.630314 0.602119 0.235337 0.158475
H187  H     H_    0.710844 0.466664 0.265904 0.248454
H188  H     H_    0.624224 0.499994 0.283168 0.230231
H189  H     H_    0.570363 0.480357 0.217259 0.270066
H190  H     H_    0.665915 0.783366 0.466978 0.269128
H191  H     H_    0.609084 0.397306 0.236193 0.265826
H192  H     H_    0.657484 0.448404 0.199384 0.261862
H193  H     H_    0.247722 0.431490 0.664125 0.159189
H194  H     H_    0.222544 0.337901 0.666897 0.102956
H195  H     H_    0.383381 0.390096 0.663138 0.250665
H196  H     H_    0.348439 0.299015 0.655459 0.250241
H197  H     H_    0.283627 0.339183 0.596294 0.272097
H198  H     H_    0.379965 0.358256 0.592910 0.285600
H199  H     H_    0.317126 0.431314 0.602901 0.264302
H200  H     H_    0.558578 0.253938 0.331663 0.169364
H201  H     H_    0.627006 0.817002 0.422475 0.263178
H202  H     H_    0.583419 0.292343 0.285795 0.120606
H203  H     H_    0.647105 0.341678 0.365318 0.246734
H204  H     H_    0.660374 0.385543 0.318791 0.250996
H205  H     H_    0.525699 0.409166 0.314812 0.278180
H206  H     H_    0.568930 0.452457 0.356016 0.275688
H207  H     H_    0.515756 0.370630 0.363192 0.277903
H208  H     H_    0.336870 0.870308 0.645266 0.168181
H209  H     H_    0.274555 0.885759 0.684231 0.089580
H210  H     H_    0.249484 0.775742 0.616800 0.246153
H211  H     H_    0.184300 0.801037 0.653805 0.228946
H212  H     H_    0.724350 0.807765 0.426742 0.242327
H213  H     H_    0.187270 0.930471 0.629359 0.260294
H214  H     H_    0.160165 0.866470 0.592101 0.274602
H215  H     H_    0.251322 0.903770 0.591823 0.266347
H216  H     H_    0.286026 0.423773 0.213260 0.103783
H217  H     H_    0.373392 0.396587 0.233465 0.162108
H218  H     H_    0.285623 0.533642 0.255690 0.236567
H219  H     H_    0.370779 0.506399 0.277102 0.233136
H220  H     H_    0.432977 0.517566 0.212986 0.272722
H221  H     H_    0.387382 0.601510 0.225493 0.267304
H222  H     H_    0.347646 0.540710 0.189914 0.261380
H223  H     H_    0.407717 0.067729 0.401276 0.149512
H224  H     H_    0.692841 0.937959 0.433131 0.195426
H225  H     H_    0.746845 0.588070 0.675960 0.147091
H226  H     H_    0.663264 0.638799 0.679920 0.162201
H227  H     H_    0.683484 0.476835 0.701078 0.221793
H228  H     H_    0.600533 0.527799 0.707220 0.233857
H229  H     H_    0.595370 0.551250 0.635800 0.274455
H230  H     H_    0.600499 0.454586 0.645710 0.276005
H231  H     H_    0.680443 0.503488 0.629195 0.263497
H232  H     H_    0.430026 0.746322 0.338199 0.166302
H233  H     H_    0.412519 0.711899 0.290544 0.130360
H234  H     H_    0.332171 0.659847 0.365338 0.253989
H235  H     H_    0.729385 0.907004 0.476140 0.189816
H236  H     H_    0.326322 0.619545 0.317353 0.246686
H237  H     H_    0.458596 0.589296 0.319437 0.271973
H238  H     H_    0.407150 0.547014 0.358248 0.278160
H239  H     H_    0.462907 0.625858 0.368558 0.281157
H240  H     H_    0.736247 0.091204 0.692316 0.121520
H241  H     H_    0.794719 0.148344 0.662062 0.162372
H242  H     H_    0.645004 0.084861 0.638741 0.237683
H243  H     H_    0.703574 0.139700 0.608308 0.223447
H244  H     H_    0.800988 0.043669 0.613198 0.270572
H245  H     H_    0.717490 0.009183 0.592488 0.268234
H246  H     H_    0.418763 0.184963 0.574592 0.269645
H247  H     H_    0.739644 0.988210 0.642421 0.259168
H248  H     H_    0.386518 0.227760 0.530790 0.261767
H249  H     H_    0.330097 0.225919 0.573869 0.249826
H250  H     H_    0.286301 0.139259 0.525905 0.217918
H251  H     H_    0.310447 0.093100 0.568041 0.185597
H252  H     H_    0.801807 0.466765 0.424688 0.264610
H253  H     H_    0.752508 0.464217 0.470128 0.257814
H254  H     H_    0.715375 0.511814 0.428816 0.248537
H255  H     H_    0.589589 0.928249 0.599102 0.159949
H256  H     H_    0.762188 0.598256 0.475624 0.220219
H257  H     H_    0.813152 0.606721 0.433066 0.190172
H258  H     H_    0.094377 0.335518 0.576695 0.260279
H259  H     H_    0.104783 0.298033 0.528361 0.265082
H260  H     H_    0.174378 0.284594 0.564448 0.241460
H261  H     H_    0.216073 0.372881 0.519386 0.212091
H262  H     H_    0.201752 0.420735 0.563598 0.203792
H263  H     H_    0.318180 0.205720 0.470130 0.269522
H264  H     H_    0.364992 0.178996 0.426234 0.261863
H265  H     H_    0.266780 0.180102 0.427684 0.242738
H266  H     H_    0.107315 0.460284 0.401897 0.175712
H267  H     H_    0.305824 0.052877 0.432222 0.196021
H268  H     H_    0.265221 0.077190 0.475483 0.189740
H269  H     H_    0.567351 0.809425 0.575741 0.268888
H270  H     H_    0.588388 0.766122 0.529899 0.261268
H271  H     H_    0.649201 0.756673 0.570698 0.241871
H272  H     H_    0.700357 0.841035 0.524282 0.217725
H273  H     H_    0.682398 0.888937 0.566932 0.188822
H274  H     H_    0.683793 0.062090 0.919427 0.266459
H275  H     H_    0.718752 0.086430 0.966790 0.257029
H276  H     H_    0.777458 0.045568 0.930759 0.246882
H277  H     H_    0.894318 0.547310 0.599067 0.169325
H278  H     H_    0.748608 0.957539 0.978865 0.207878
H279  H     H_    0.705654 0.927874 0.935335 0.204379
H280  H     H_    0.229788 0.043026 0.031995 0.272008
H281  H     H_    0.277579 0.023218 0.076423 0.262714
H282  H     H_    0.221490 0.103438 0.073125 0.239826
H283  H     H_    0.350066 0.140791 0.068124 0.192012
H284  H     H_    0.306223 0.159713 0.025078 0.189720
H285  H     H_    0.090193 0.294280 0.921978 0.257364
H286  H     H_    0.182945 0.265028 0.927865 0.244007
H287  H     H_    0.118837 0.254744 0.967378 0.270727
H288  H     H_    0.592093 0.931398 0.400693 0.148398
H289  H     H_    0.176959 0.400196 0.932797 0.193036
H290  H     H_    0.207164 0.363373 0.975716 0.188196
H291  H     H_    0.944062 0.694096 0.072927 0.268080
H292  H     H_    0.916454 0.739085 0.028831 0.260588
H293  H     H_    0.861718 0.746530 0.072318 0.253171
H294  H     H_    0.805228 0.664034 0.025779 0.218032
H295  H     H_    0.824662 0.616973 0.068309 0.185806
H296  H     H_    0.300650 0.971827 0.925257 0.264633
H297  H     H_    0.251477 0.971412 0.970731 0.257868
H298  H     H_    0.215454 0.019287 0.929227 0.246695
H299  H     H_    0.409053 0.068769 0.599499 0.155034
H300  H     H_    0.264871 0.105460 0.975494 0.219423
H301  H     H_    0.315841 0.111555 0.932863 0.189096
H302  H     H_    0.597591 0.838332 0.075592 0.260485
H303  H     H_    0.610297 0.801771 0.027223 0.264454
H304  H     H_    0.679284 0.789753 0.063797 0.241087
H305  H     H_    0.719485 0.879718 0.019131 0.211776
H306  H     H_    0.703423 0.926300 0.063531 0.202774
H307  H     H_    0.881824 0.692393 0.924961 0.260387
H308  H     H_    0.784449 0.703134 0.928920 0.242341
H309  H     H_    0.841900 0.724068 0.969809 0.269723
H310  H     H_    0.393046 0.045623 0.901154 0.179598
H311  H     H_    0.812626 0.572808 0.932579 0.195972
H312  H     H_    0.775405 0.601384 0.976184 0.190467
H313  H     H_    0.034375 0.301437 0.078083 0.269152
H314  H     H_    0.045020 0.252839 0.032756 0.259614
H315  H     H_    0.105175 0.234674 0.072974 0.243812
H316  H     H_    0.167898 0.305857 0.024502 0.218186
H317  H     H_    0.161330 0.358869 0.066496 0.188977
H318  H     H_    0.250704 0.918557 0.171284 0.150577
H319  H     H_    0.181071 0.849627 0.175663 0.139748
H320  H     H_    0.289552 0.870762 0.107744 0.221234
O1    O     O_3   0.500000 0.000000 0.250000 -0.500687
O2    O     O_R   0.500000 0.939270 0.662450 -0.640250
O3    O     O_R   0.939270 0.500000 0.337550 -0.649414
O4    O     O_R   0.060730 0.500000 0.662450 -0.655104
O5    O     O_R   0.000000 0.439270 0.837550 -0.656557
O6    O     O_R   0.000000 0.560730 0.162450 -0.646607
O7    O     O_R   0.560730 0.000000 0.837550 -0.650732
O8    O     O_R   0.439270 1.000000 0.162450 -0.651693
O9    O     O_R   0.000000 0.560730 0.837550 -0.646910
O10   O     O_R   1.000000 0.439270 0.162450 -0.642782
O11   O     O_R   0.439270 0.000000 0.837550 -0.645954
O12   O     O_3   0.500000 0.000000 0.750000 -0.510765
O13   O     O_R   0.560730 1.000000 0.162450 -0.654075
O14   O     O_R   0.414490 0.146150 0.273020 -0.635186
O15   O     O_R   0.585510 0.853850 0.726980 -0.608143
O16   O     O_R   0.853850 0.414490 0.273020 -0.619252
O17   O     O_R   0.146150 0.585510 0.726980 -0.631181
O18   O     O_R   0.585510 0.853850 0.273020 -0.629804
O19   O     O_R   0.414490 0.146150 0.726980 -0.608587
O20   O     O_R   0.146150 0.585510 0.273020 -0.623075
O21   O     O_R   0.853850 0.414490 0.726980 -0.635091
O22   O     O_R   0.414490 0.853850 0.726980 -0.618650
O23   O     O_3   0.000000 0.500000 0.250000 -0.508924
O24   O     O_R   0.585510 0.146150 0.273020 -0.635043
O25   O     O_R   0.853850 0.585510 0.726980 -0.631738
O26   O     O_R   0.146150 0.414490 0.273020 -0.610192
O27   O     O_R   0.585510 0.146150 0.726980 -0.622773
O28   O     O_R   0.414490 0.853850 0.273020 -0.635444
O29   O     O_R   0.146150 0.414490 0.726980 -0.637261
O30   O     O_R   0.853850 0.585510 0.273020 -0.608730
O31   O     O_R   0.914490 0.646150 0.773020 -0.634397
O32   O     O_R   0.085510 0.353850 0.226980 -0.608128
O33   O     O_R   0.353850 0.914490 0.773020 -0.623262
O34   O     O_3   0.000000 0.500000 0.750000 -0.498249
O35   O     O_R   0.646150 0.085510 0.226980 -0.614732
O36   O     O_R   0.085510 0.353850 0.773020 -0.617607
O37   O     O_R   0.914490 0.646150 0.226980 -0.608419
O38   O     O_R   0.646150 0.085510 0.773020 -0.616745
O39   O     O_R   0.353850 0.914490 0.226980 -0.625666
O40   O     O_R   0.914490 0.353850 0.226980 -0.624427
O41   O     O_R   0.085510 0.646150 0.773020 -0.630659
O42   O     O_R   0.353850 0.085510 0.226980 -0.620330
O43   O     O_R   0.646150 0.914490 0.773020 -0.611902
O44   O     O_R   0.085510 0.646150 0.226980 -0.618461
O45   O     O_R   0.500000 0.939270 0.337550 -0.649906
O46   O     O_R   0.914490 0.353850 0.773020 -0.643952
O47   O     O_R   0.646150 0.914490 0.226980 -0.634522
O48   O     O_R   0.353850 0.085510 0.773020 -0.607955
O49   O     O_3   0.291808 0.815533 0.179828 -0.620721
O50   O     O_3   0.693309 0.198618 0.820633 -0.618412
O51   O     O_3   0.107145 0.214326 0.227093 -0.600536
O52   O     O_3   0.884045 0.783606 0.782604 -0.618722
O53   O     O_3   0.731421 0.164129 0.183851 -0.609631
O54   O     O_3   0.282108 0.824879 0.819112 -0.618696
O55   O     O_3   0.890052 0.782927 0.221887 -0.609581
O56   O     O_R   0.500000 0.060730 0.662450 -0.641583
O57   O     O_3   0.112024 0.217266 0.780104 -0.612411
O58   O     O_3   0.215661 0.109067 0.775458 -0.600220
O59   O     O_3   0.781584 0.884873 0.215671 -0.623903
O60   O     O_3   0.165733 0.731158 0.816990 -0.619115
O61   O     O_3   0.824947 0.281332 0.180834 -0.605945
O62   O     O_3   0.786391 0.893864 0.767137 -0.612604
O63   O     O_3   0.215510 0.108169 0.224449 -0.619462
O64   O     O_3   0.795093 0.311478 0.820339 -0.633959
O65   O     O_3   0.185920 0.707014 0.179523 -0.609402
O66   O     O_3   0.808408 0.300800 0.679796 -0.634589
O67   O     O_R   0.060730 0.500000 0.337550 -0.645086
O68   O     O_3   0.207257 0.685699 0.320115 -0.616006
O69   O     O_3   0.605596 0.712704 0.731411 -0.608237
O70   O     O_3   0.382165 0.281528 0.285243 -0.615498
O71   O     O_3   0.234221 0.663719 0.683876 -0.614592
O72   O     O_3   0.780726 0.325677 0.318907 -0.616770
O73   O     O_3   0.390804 0.283968 0.724419 -0.608162
O74   O     O_3   0.616946 0.719284 0.285411 -0.614639
O75   O     O_3   0.716005 0.609456 0.274953 -0.610819
O76   O     O_3   0.280863 0.383455 0.714705 -0.623752
O77   O     O_3   0.664026 0.232864 0.316540 -0.619065
O78   O     O_R   0.939270 0.500000 0.662450 -0.654736
O79   O     O_3   0.324769 0.781898 0.680951 -0.612177
O80   O     O_3   0.285014 0.391954 0.271569 -0.609341
O81   O     O_3   0.712146 0.605117 0.732666 -0.622795
O82   O     O_3   0.328808 0.772878 0.317993 -0.616239
O83   O     O_3   0.697148 0.195321 0.679481 -0.615089
O84   O     O_R   0.500000 0.060730 0.337550 -0.649183
Zn1   Zn    Zn3+2 0.413190 1.000000 0.217350 0.968585
Zn2   Zn    Zn3+2 0.086810 0.500000 0.282650 0.962541
Zn3   Zn    Zn3+2 0.500000 0.913190 0.717350 0.968640
Zn4   Zn    Zn3+2 0.500000 0.086810 0.282650 0.957284
Zn5   Zn    Zn3+2 0.086810 0.500000 0.717350 0.957236
Zn6   Zn    Zn3+2 0.913190 0.500000 0.282650 0.959232
Zn7   Zn    Zn3+2 0.500000 0.086810 0.717350 0.969550
Zn8   Zn    Zn3+2 0.500000 0.913190 0.282650 0.959909
Zn9   Zn    Zn3+2 0.586810 1.000000 0.782650 0.968709
Zn10  Zn    Zn3+2 1.000000 0.413190 0.217350 0.963890
Zn11  Zn    Zn3+2 0.000000 0.586810 0.782650 0.960432
Zn12  Zn    Zn3+2 0.586810 1.000000 0.217350 0.963163
Zn13  Zn    Zn3+2 0.413190 1.000000 0.782650 0.962437
Zn14  Zn    Zn3+2 1.000000 0.586810 0.217350 0.964460
Zn15  Zn    Zn3+2 0.000000 0.413190 0.782650 0.965787
Zn16  Zn    Zn3+2 0.913190 0.500000 0.717350 0.966129

loop_
_geom_bond_atom_site_label_1
_geom_bond_atom_site_label_2
_ccdc_geom_bond_type
C209  O42   A    
C210  C262  A    
C115  H82   S    
C126  C127  S    
C172  H216  S    
C54   C189  S    
C166  H203  S    
C80   H3    S    
C59   C191  S    
C154  H175  S    
C54   H261  S    
C114  C115  S    
C99   H48   S    
C53   H253  S    
C43   C168  S    
C254  H310  S    
C91   H27   S    
C97   H42   S    
O22   Zn3   S    
O2    Zn3   S    
C178  O82   S    
C155  O74   S    
C127  H109  S    
C66   H287  S    
C201  O84   A    
C35   C124  A    
C104  H59   S    
C11   C195  A    
C132  H123  S    
C60   H269  S    
C63   H284  S    
C148  H160  S    
C9    C193  A    
C106  C107  S    
C167  H205  S    
C143  C144  S    
C5    C36   A    
C6    C188  A    
C108  C109  S    
C143  H150  S    
O20   Zn2   S    
C121  H98   S    
C172  H217  S    
C159  H185  S    
C182  C183  S    
C211  O15   A    
O12   Zn9   S    
C161  H192  S    
C131  H120  S    
C179  C263  A    
O26   Zn2   S    
C113  C243  A    
C81   H4    S    
C21   C239  A    
C176  C177  S    
C52   C187  S    
C180  H234  S    
O43   Zn9   S    
C101  C188  A    
C114  H78   S    
C245  O66   S    
C195  C198  A    
C123  H102  S    
C59   C60   S    
C158  H183  S    
C10   C41   A    
C12   C196  A    
C93   H33   S    
C172  O80   S    
C114  H80   S    
C252  O74   S    
C207  O7    A    
O17   Zn5   S    
C210  H266  S    
C90   C204  S    
C45   C47   S    
C183  H243  S    
C145  C147  S    
C150  H165  S    
C140  C141  S    
C65   H289  S    
C109  H71   S    
C11   C68   A    
C132  H125  S    
C162  O76   S    
C60   H271  S    
C93   H32   S    
O18   Zn8   S    
C108  H69   S    
C234  C237  A    
C186  C190  A    
C169  H209  S    
C43   C44   S    
C238  O60   S    
C23   C252  A    
C144  H153  S    
C236  O58   S    
C175  C176  S    
O30   Zn6   S    
O40   Zn10  S    
C130  H119  S    
C134  H129  S    
C178  H232  S    
O9    Zn11  S    
C215  O48   A    
O28   Zn8   S    
C139  H139  S    
C110  H74   S    
C69   H293  S    
C246  O68   S    
C43   H124  S    
C173  H218  S    
C84   H12   S    
C199  H255  S    
C1    C79   A    
O19   Zn7   S    
C176  H227  S    
C50   H251  S    
C21   C250  A    
C100  H51   S    
C248  O70   S    
C217  O46   A    
C120  H95   S    
C30   C220  S    
C65   C194  S    
O10   Zn10  S    
C61   H278  S    
O35   Zn12  S    
C239  O61   S    
C97   H44   S    
C103  H56   S    
O34   Zn16  S    
C87   H21   S    
C72   C73   S    
C33   C227  A    
C69   H292  S    
C119  H92   S    
C77   H314  S    
C105  O58   S    
C215  O19   A    
C161  H189  S    
C131  H122  S    
C75   H308  S    
C71   H296  S    
C64   H280  S    
C156  C158  S    
C130  C131  S    
O39   Zn1   S    
C5    C189  A    
C53   H252  S    
C101  C201  S    
C25   C251  A    
C95   O54   S    
C133  H126  S    
C8    C192  A    
C136  H131  S    
O16   Zn6   S    
C31   C229  A    
C81   H6    S    
C224  O39   A    
C91   H29   S    
C180  H236  S    
C2    C14   A    
C213  O17   A    
C151  H167  S    
C19   C241  A    
C149  H162  S    
C33   C224  S    
C251  O73   S    
C201  O45   A    
C62   H275  S    
C106  H64   S    
C98   C99   S    
C45   H168  S    
C155  C156  S    
C95   H39   S    
C177  H230  S    
C250  O72   S    
C94   H36   S    
C261  O83   S    
O14   Zn4   S    
C165  O77   S    
C252  C253  A    
C79   C210  A    
O31   Zn11  S    
C147  H158  S    
C211  O43   A    
C118  H91   S    
C139  O69   S    
C147  C148  S    
C65   H290  S    
C145  O71   S    
C245  C261  A    
C46   H46   S    
C129  H116  S    
C222  O32   A    
C85   C86   S    
C144  H151  S    
C51   H246  S    
C73   H302  S    
C92   H31   S    
C115  H83   S    
C11   C42   A    
C160  H187  S    
C230  O52   S    
C153  H173  S    
C170  H211  S    
O1    Zn8   S    
C26   C255  A    
C78   C80   S    
C209  O14   A    
C170  C171  S    
C26   C225  S    
C2    H2    S    
C140  H142  S    
O6    Zn14  S    
C141  H143  S    
C241  O63   S    
O34   Zn5   S    
C120  H94   S    
C126  H107  S    
C104  H58   S    
C87   H20   S    
C108  O59   S    
C78   H318  S    
C72   C197  S    
C194  C200  A    
C74   C198  S    
C57   H57   S    
C155  H178  S    
C84   H14   S    
C85   H15   S    
C47   H146  S    
C89   C91   S    
C249  O71   S    
C16   C200  A    
C205  O9    A    
C235  O57   S    
C152  H171  S    
C126  O64   S    
C126  H108  S    
C71   H297  S    
O4    Zn5   S    
C146  C205  S    
C19   C248  A    
C223  O27   A    
C61   H279  S    
C250  C256  A    
C174  H221  S    
C56   C190  S    
C6    C37   A    
O44   Zn14  S    
C36   C263  A    
C32   C228  A    
C25   C215  S    
C90   C221  A    
O12   Zn13  S    
O23   Zn6   S    
C49   H201  S    
C39   C40   A    
C121  H96   S    
C24   C157  A    
C20   C240  A    
O7    Zn9   S    
C111  H77   S    
C218  O33   A    
C82   H7    S    
C223  O38   A    
C125  H105  S    
C96   H41   S    
C83   C84   S    
C193  C196  A    
C181  H239  S    
C122  H99   S    
C86   H18   S    
C225  O29   A    
C94   H34   S    
C219  O35   A    
C207  O11   A    
C163  H195  S    
O27   Zn7   S    
C184  H244  S    
C89   H25   S    
C232  H288  S    
O24   Zn4   S    
C182  H241  S    
C244  O65   S    
C147  H156  S    
C118  H89   S    
C173  H219  S    
C181  H237  S    
C145  H154  S    
C66   H286  S    
C138  H137  S    
C50   C186  S    
O37   Zn14  S    
C64   H282  S    
C129  C130  S    
C73   H304  S    
C54   C55   S    
C115  H81   S    
C203  O3    A    
C232  C264  A    
C166  H204  S    
C136  C137  S    
C154  H176  S    
C100  H50   S    
C5    C112  A    
C142  H147  S    
C248  C258  A    
C2    C135  A    
C21   C212  S    
O34   Zn11  S    
C104  H60   S    
C37   C264  A    
C48   C185  S    
C60   H270  S    
C117  C118  S    
C63   H283  S    
C18   C245  A    
O8    Zn1   S    
C168  C262  A    
C51   H248  S    
C71   H298  S    
C105  H62   S    
C75   H309  S    
C56   C58   S    
C143  H149  S    
C101  C232  A    
C121  H97   S    
C49   H190  S    
C61   C62   S    
C117  H87   S    
C161  H191  S    
C162  H193  S    
C63   C64   S    
C9    C46   A    
C102  H53   S    
C152  C153  S    
C70   C196  S    
C22   C213  S    
C98   H47   S    
C119  H93   S    
C111  H76   S    
C134  H128  S    
C96   H40   S    
C83   H9    S    
C225  O36   A    
C58   H263  S    
C216  O20   A    
C24   H24   S    
C169  O79   S    
C158  H184  S    
O23   Zn2   S    
C41   C42   A    
C102  O57   S    
C88   O52   S    
C175  H226  S    
C72   H306  S    
C92   O53   S    
C56   H267  S    
C107  H65   S    
C203  O67   A    
C184  H245  S    
C52   C53   S    
O1    Zn4   S    
C214  O47   A    
O25   Zn16  S    
O33   Zn13  S    
O3    Zn6   S    
C220  O25   A    
C10   C194  A    
O38   Zn9   S    
C123  C125  S    
C128  H115  S    
C179  C187  A    
C247  O69   S    
C74   H311  S    
C92   H30   S    
C256  O77   S    
C171  H214  S    
C107  H66   S    
C108  H70   S    
C169  C170  S    
C169  H208  S    
C27   C234  A    
C54   H262  S    
C46   C135  A    
C230  C240  A    
C20   C247  A    
O78   Zn16  S    
C55   H260  S    
C163  C164  S    
C25   C236  A    
C3    C38   A    
C134  H130  S    
C235  C236  A    
C142  O70   S    
C70   C71   S    
C17   C216  S    
C52   H256  S    
C110  H75   S    
C227  O49   S    
C18   C242  A    
C127  H110  S    
C164  H198  S    
C57   C146  A    
C7    C191  A    
C204  O4    A    
C176  H228  S    
C58   H264  S    
O1    Zn12  S    
C154  H174  S    
C100  H52   S    
O12   Zn3   S    
C185  C191  A    
O45   Zn8   S    
C152  H170  S    
C91   H28   S    
C97   H43   S    
C119  O62   S    
C103  H55   S    
C48   H224  S    
C99   H49   S    
C29   C231  A    
C124  C254  A    
C216  O44   A    
C69   H291  S    
C88   H23   S    
C133  H127  S    
C15   C198  A    
C77   H313  S    
C86   C87   S    
C202  O2    A    
C167  H206  S    
C131  H121  S    
C128  H111  S    
C9    C40   A    
C75   H307  S    
C168  C189  A    
C170  H210  S    
C237  O59   S    
C159  H186  S    
C233  C238  A    
C206  O6    A    
O42   Zn1   S    
C205  O5    A    
C31   C222  S    
C229  C241  A    
C251  C255  A    
C159  C160  S    
O5    Zn15  S    
C70   H300  S    
C98   H45   S    
C81   H5    S    
C50   C51   S    
C113  C202  S    
C15   C41   A    
C224  O28   A    
C48   C49   S    
C62   H276  S    
C228  O50   S    
C158  H182  S    
C124  C207  S    
C217  O21   A    
C133  C134  S    
C47   H157  S    
C165  H202  S    
C94   H37   S    
C118  H88   S    
C68   C157  A    
O23   Zn10  S    
C47   H135  S    
C32   C223  S    
C180  C181  S    
C162  C163  S    
C253  O75   S    
C184  H247  S    
C182  O83   S    
C148  H159  S    
C19   C209  S    
C44   H90   S    
C150  H164  S    
C157  C206  S    
C249  C257  A    
C221  C263  A    
O41   Zn11  S    
C109  H72   S    
C178  C180  S    
C119  C120  S    
C185  C264  A    
C144  H152  S    
C188  H223  S    
C35   H35   S    
C105  C106  S    
C70   H301  S    
C177  H231  S    
C160  H188  S    
C156  H181  S    
C178  H233  S    
C12   C39   A    
C52   H257  S    
C51   H249  S    
C153  H172  S    
C149  C150  S    
C44   H101  S    
C139  C140  S    
C212  O40   A    
C55   H258  S    
O46   Zn15  S    
C48   H235  S    
C130  H118  S    
C92   C93   S    
O15   Zn3   S    
C111  C114  S    
C76   H317  S    
C258  O80   S    
C87   H19   S    
C139  H140  S    
C110  H73   S    
C246  C260  A    
C78   H319  S    
C222  O26   A    
C67   H294  S    
O32   Zn10  S    
C80   H320  S    
C111  O60   S    
C82   C83   S    
C155  H177  S    
C84   H11   S    
C103  C104  S    
C112  H112  S    
C142  C143  S    
C45   H179  S    
C163  H196  S    
C50   H250  S    
C219  O24   A    
C59   H272  S    
O47   Zn12  S    
C8    C35   A    
C53   H254  S    
C240  O62   S    
C22   C238  A    
C23   C214  S    
C26   C235  A    
O21   Zn16  S    
C165  C166  S    
C182  H240  S    
C116  H84   S    
O34   Zn15  S    
C260  O82   S    
C95   C96   S    
C90   C112  A    
C136  O68   S    
C148  H161  S    
C77   H315  S    
C13   H13   S    
C226  O37   A    
C173  C174  S    
C221  H277  S    
C174  H222  S    
C37   C38   A    
C17   C246  A    
C4    C187  A    
C82   H8    S    
C208  O8    A    
C218  O22   A    
C123  H103  S    
C95   H38   S    
C23   C237  A    
O48   Zn13  S    
C20   C211  S    
C132  O66   S    
O1    Zn1   S    
C231  C239  A    
C116  C117  S    
C116  H85   S    
C177  H229  S    
C214  O18   A    
C29   C256  A    
C78   O49   S    
C242  O64   S    
C137  H133  S    
C228  C242  A    
C149  H163  S    
C234  O55   S    
C86   H17   S    
C128  H114  S    
C62   H274  S    
C17   C244  A    
C106  H63   S    
C61   C192  S    
C171  H215  S    
C63   C193  S    
C85   O51   S    
C208  O13   A    
C8    C39   A    
C31   C258  A    
C34   C36   A    
C136  H132  S    
C28   C233  A    
C88   C89   S    
C183  H242  S    
C16   C24   A    
C226  O30   A    
C141  H145  S    
C102  C103  S    
C13   C146  A    
C138  H138  S    
C67   C195  S    
C213  O41   A    
C129  H117  S    
C257  O79   S    
C152  O73   S    
C113  C199  A    
C1    H1    S    
C73   H303  S    
C4    C34   A    
C12   C254  A    
C74   C75   S    
C34   C262  A    
C30   C259  A    
O84   Zn4   S    
C10   C57   A    
C76   C77   S    
O67   Zn2   S    
C22   C249  A    
C76   C200  S    
C132  C133  S    
C116  O61   S    
C49   H212  S    
C83   H10   S    
C142  H148  S    
C192  C197  A    
C140  H141  S    
C164  H199  S    
O56   Zn7   S    
C212  O16   A    
C141  H144  S    
C67   C69   S    
C137  H134  S    
C183  C184  S    
C88   H22   S    
C32   C261  A    
C122  H100  S    
C99   C100  S    
C227  C244  A    
C167  H207  S    
C255  O76   S    
C159  O75   S    
C96   C97   S    
C6    C190  A    
C105  H61   S    
C120  C121  S    
C85   H16   S    
C55   H259  S    
C93   C94   S    
C3    C243  A    
C107  H67   S    
C27   C253  A    
C117  H86   S    
O12   Zn7   S    
C162  H194  S    
C98   O55   S    
C102  H54   S    
C28   C257  A    
C79   C203  S    
C13   C15   A    
C166  C167  S    
C151  H169  S    
C68   H68   S    
C3    C186  A    
C16   C42   A    
C259  O81   S    
C172  C173  S    
C174  H220  S    
C28   C218  S    
C175  O81   S    
C150  C151  S    
O13   Zn12  S    
C80   C81   S    
C175  H225  S    
C231  O53   S    
C56   H268  S    
C247  C259  A    
C27   C226  S    
C165  H200  S    
C44   H79   S    
C145  H155  S    
C137  C138  S    
C43   H113  S    
C66   H285  S    
C204  O78   A    
C206  O10   A    
C164  H197  S    
C1    C4    A    
C160  C161  S    
C30   C230  A    
O29   Zn5   S    
C59   H273  S    
C58   H265  S    
C125  H106  S    
C151  H166  S    
C229  O51   S    
C125  H104  S    
C233  O54   S    
C74   H312  S    
C33   C260  A    
C171  H213  S    
C7    C38   A    
O11   Zn13  S    
C156  H180  S    
C7    C199  A    
C14   C197  A    
C72   H305  S    
O23   Zn14  S    
C202  O56   A    
C122  O63   S    
C45   C179  S    
C14   C40   A    
C89   H26   S    
C29   C219  S    
C129  O65   S    
C65   C66   S    
O36   Zn15  S    
C109  C110  S    
C122  C123  S    
C181  H238  S    
C135  C208  S    
C138  H136  S    
C76   H316  S    
C220  O31   A    
C153  C154  S    
C18   C217  S    
C82   O50   S    
C243  H299  S    
C127  C128  S    
C149  O72   S    
C67   H295  S    
C64   H281  S    
