data_mof_unit_37772.cif
_audit_creation_date              2012-12-10T18:18:26-0500
_audit_creation_method            fapswitch 2.2
_symmetry_space_group_name_H-M    P1
_symmetry_Int_Tables_number       1
_space_group_crystal_system       triclinic
_cell_length_a                    14.012671
_cell_length_b                    14.998665
_cell_length_c                    15.32573
_cell_angle_alpha                 90.183828
_cell_angle_beta                  67.279051
_cell_angle_gamma                 90.426489
_cell_volume                      2970.98520508

loop_
_atom_site_label
_atom_site_type_symbol
_atom_type_description
_atom_site_fract_x
_atom_site_fract_y
_atom_site_fract_z
_atom_type_partial_charge
C1    C     C_R   0.500219 0.673488 0.500080 0.878757
C2    C     C_R   0.500184 0.769282 0.500827 -0.087327
C3    C     C_R   0.591494 0.185827 0.484901 -0.241975
C4    C     C_R   0.407569 0.814193 0.518592 -0.233162
C5    C     C_R   0.592861 0.093489 0.485099 0.012649
C6    C     C_R   0.405834 0.906548 0.520092 0.012462
C7    C     C_R   0.499394 0.046410 0.502913 -0.008672
C8    C     C_R   0.499217 0.953643 0.502631 -0.009463
C9    C     C_R   0.406078 0.092208 0.520733 0.071771
C10   C     C_R   0.592583 0.907855 0.484552 0.072320
C11   C     C_R   0.685888 0.047528 0.466643 0.534272
C12   C     C_R   0.499653 0.326520 0.500302 0.879140
C13   C     C_R   0.312627 0.952512 0.539456 0.534013
C14   C     C_R   0.684770 0.954597 0.467358 -0.330023
C15   C     C_R   0.313702 0.045435 0.538863 -0.331031
C16   C     C_R   0.435101 0.499519 0.677265 0.892981
C17   C     C_R   0.564941 0.497424 0.322743 0.891417
C18   C     C_R   0.215055 0.426915 0.467383 0.006327
C19   C     C_R   0.783970 0.572333 0.534640 -0.041540
C20   C     C_R   0.188327 0.572475 0.533224 -0.024806
C21   C     C_R   0.810902 0.426865 0.468580 0.013802
C22   C     C_R   0.087148 0.573798 0.534891 -0.047791
C23   C     C_R   0.371326 0.428705 0.111575 0.397542
C24   C     C_R   0.911094 0.424771 0.469056 -0.056563
C25   C     C_R   0.049878 0.499158 0.501549 0.008559
C26   C     C_R   0.948407 0.499447 0.502296 0.018877
C27   C     C_R   0.113947 0.424167 0.467862 -0.096455
C28   C     C_R   0.884323 0.574418 0.535936 -0.099772
C29   C     C_R   0.022455 0.647492 0.570215 -0.297692
C30   C     C_R   0.974856 0.350283 0.435779 -0.292447
C31   C     C_R   0.922288 0.649061 0.569706 0.508557
C32   C     C_R   0.074956 0.348739 0.436203 0.549942
C33   C     C_R   0.393789 0.488044 0.780434 -0.220843
C34   C     C_R   0.610848 0.396713 0.898668 0.405668
C35   C     C_R   0.605451 0.479433 0.220411 -0.208991
C36   C     C_R   0.255346 0.473287 0.935267 -0.246195
C37   C     C_R   0.735136 0.426513 0.072299 -0.255426
C38   C     C_R   0.287511 0.490867 0.838314 0.464030
C39   C     C_R   0.706824 0.449333 0.168031 0.470599
C40   C     C_R   0.465074 0.469245 0.820848 -0.224322
C41   C     C_R   0.533961 0.480390 0.177714 -0.223232
C42   C     C_R   0.434016 0.446202 0.915773 0.057765
C43   C     C_R   0.556626 0.443589 0.088410 0.056051
C44   C     C_R   0.327927 0.453708 0.975108 -0.101533
C45   C     C_R   0.296789 0.443515 0.073265 0.385809
C46   C     C_R   0.660536 0.423053 0.031918 -0.096578
C47   C     C_R   0.508138 0.425127 0.954190 -0.169014
C48   C     C_R   0.478456 0.433029 0.052465 -0.176205
C49   C     C_3   0.174270 0.536078 0.170437 0.108354
C50   C     C_3   0.060369 0.545016 0.233156 -0.796240
C51   C     C_3   0.840263 0.443300 0.823375 0.121366
C52   C     C_3   0.947411 0.412453 0.758255 -0.774359
C53   C     C_3   0.864208 0.782468 0.537644 0.054271
C54   C     C_3   0.944380 0.855339 0.527386 -0.809670
C55   C     C_3   0.132643 0.216709 0.471744 0.018438
C56   C     C_R   0.687266 0.398640 0.936899 0.377102
C57   C     C_3   0.050423 0.144646 0.486658 -0.793816
C58   C     C_3   0.794495 0.354854 0.226630 0.069056
C59   C     C_3   0.903805 0.343648 0.222661 -0.793605
C60   C     C_3   0.191631 0.601290 0.812338 0.101501
C61   C     C_3   0.091548 0.618246 0.798501 -0.833128
C62   C     C_3   0.350455 0.314868 0.214581 -0.197903
C63   C     C_3   0.601711 0.274352 0.814539 -0.240768
C64   C     C_3   0.839999 0.094905 0.357876 -0.380850
C65   C     C_3   0.159876 0.903667 0.649109 -0.376045
C66   C     C_R   0.406722 0.184413 0.519592 -0.224215
C67   C     C_R   0.592292 0.815662 0.484083 -0.220644
C68   C     C_R   0.499142 0.230751 0.501459 -0.087655
H1    H     H_    0.266059 0.370671 0.441805 0.149312
H2    H     H_    0.814746 0.408621 0.031162 0.195455
H3    H     H_    0.335258 0.220016 0.533293 0.143652
H4    H     H_    0.663892 0.780112 0.469905 0.143326
H5    H     H_    0.662601 0.222968 0.470553 0.193028
H6    H     H_    0.336634 0.777004 0.532265 0.194413
H7    H     H_    0.756104 0.919259 0.454317 0.149670
H8    H     H_    0.242240 0.080710 0.552417 0.152178
H9    H     H_    0.193557 0.586799 0.113043 0.113191
H10   H     H_    0.219882 0.550415 0.214510 0.172279
H11   H     H_    0.039533 0.496121 0.291691 0.266046
H12   H     H_    0.732597 0.628336 0.560996 0.158560
H13   H     H_    0.044806 0.613175 0.263704 0.200586
H14   H     H_    0.012231 0.532778 0.191247 0.268904
H15   H     H_    0.849207 0.500046 0.866741 0.124147
H16   H     H_    0.799498 0.466879 0.778159 0.175021
H17   H     H_    0.940863 0.356042 0.713696 0.255991
H18   H     H_    0.989609 0.468032 0.711318 0.212202
H19   H     H_    0.991907 0.390797 0.800642 0.265868
H20   H     H_    0.787301 0.814476 0.559837 0.172403
H21   H     H_    0.879466 0.750879 0.467468 0.116525
H22   H     H_    0.023497 0.827067 0.498698 0.257187
H23   H     H_    0.217802 0.629191 0.559114 0.134266
H24   H     H_    0.939622 0.907453 0.477926 0.221558
H25   H     H_    0.929655 0.886575 0.597161 0.264956
H26   H     H_    0.120050 0.250630 0.540260 0.124228
H27   H     H_    0.208989 0.183663 0.449012 0.167974
H28   H     H_    0.062683 0.110997 0.418542 0.262423
H29   H     H_    0.055437 0.094232 0.537613 0.222245
H30   H     H_    0.971998 0.174296 0.515647 0.258173
H31   H     H_    0.784590 0.306695 0.175000 0.126295
H32   H     H_    0.738441 0.336598 0.298522 0.151663
H33   H     H_    0.915180 0.274050 0.240873 0.196494
H34   H     H_    0.781390 0.370040 0.442971 0.128239
H35   H     H_    0.960849 0.358987 0.150388 0.271232
H36   H     H_    0.917124 0.389464 0.273602 0.262722
H37   H     H_    0.255154 0.639874 0.758297 0.136756
H38   H     H_    0.180829 0.626288 0.884213 0.119980
H39   H     H_    0.026267 0.583271 0.854222 0.254322
H40   H     H_    0.075448 0.690863 0.802799 0.201470
H41   H     H_    0.098004 0.593432 0.728360 0.257267
H42   H     H_    0.431692 0.293424 0.174819 0.129816
H43   H     H_    0.296804 0.276213 0.190803 0.184779
H44   H     H_    0.331863 0.298638 0.289807 0.197427
H45   H     H_    0.049563 0.704203 0.598412 0.170341
H46   H     H_    0.515744 0.270892 0.847267 0.154754
H47   H     H_    0.635729 0.231905 0.854495 0.166580
H48   H     H_    0.626322 0.246677 0.741977 0.195395
H49   H     H_    0.910255 0.134868 0.348316 0.200099
H50   H     H_    0.800492 0.127329 0.315791 0.158229
H51   H     H_    0.865714 0.026723 0.330483 0.173732
H52   H     H_    0.200713 0.870593 0.689666 0.159189
H53   H     H_    0.089635 0.863481 0.659138 0.199631
H54   H     H_    0.134086 0.971443 0.677887 0.175102
H55   H     H_    0.947263 0.293026 0.408815 0.172348
H56   H     H_    0.459193 0.510148 0.215328 0.217571
H57   H     H_    0.546332 0.476572 0.777949 0.229840
H58   H     H_    0.173539 0.476721 0.979146 0.194409
N1    N     N_R   0.249980 0.499930 0.499960 -0.102041
N2    N     N_R   0.750020 0.500070 0.500040 -0.099233
O1    O     O_R   0.419720 0.632140 0.499980 -0.635182
O2    O     O_3   0.786923 0.371724 0.882197 -0.596235
O3    O     O_3   0.859547 0.721291 0.609322 -0.627031
O4    O     O_3   0.136459 0.275483 0.398447 -0.631142
O5    O     O_3   0.779643 0.445078 0.208194 -0.596960
O6    O     O_3   0.214136 0.509233 0.801333 -0.593128
O7    O     O_3   0.337559 0.407308 0.206616 -0.607868
O8    O     O_3   0.637781 0.363046 0.808133 -0.611019
O9    O     O_3   0.776158 0.093244 0.454964 -0.613039
O10   O     O_3   0.222169 0.906867 0.551683 -0.614166
O11   O     O_R   0.580280 0.367860 0.500020 -0.635031
O12   O     O_R   0.580270 0.632160 0.499970 -0.634110
O13   O     O_R   0.419730 0.367840 0.500030 -0.633892
O14   O     O_R   0.373870 0.499980 0.632250 -0.563149
O15   O     O_R   0.626130 0.500020 0.367750 -0.566419
O16   O     O_R   0.534420 0.500000 0.632240 -0.613438
O17   O     O_R   0.465580 0.500000 0.367760 -0.608148
O18   O     O_3   0.193378 0.448860 0.132568 -0.586951
Zn1   Zn    Zn3+2 0.392800 0.499980 0.500010 0.962155
Zn2   Zn    Zn3+2 0.607200 0.500020 0.499990 0.961135

loop_
_geom_bond_atom_site_label_1
_geom_bond_atom_site_label_2
_ccdc_geom_bond_type
C66   C68   A    
C8    C10   A    
C34   C56   A    
C23   C45   A    
C22   C29   A    
C51   H15   S    
C35   C39   A    
C3    C68   A    
O16   Zn2   S    
C61   H41   S    
C50   H11   S    
O12   Zn2   S    
C7    C8    A    
C10   C67   A    
C12   O13   A    
C13   O10   S    
C12   C68   S    
C64   H51   S    
C59   H36   S    
C41   H56   S    
C52   H17   S    
C16   O16   A    
C24   C26   A    
C54   H22   S    
C1    O1    A    
C16   C33   S    
C11   C14   A    
C57   H30   S    
C19   N2    A    
C64   H50   S    
C49   H10   S    
C67   H4    S    
C61   H40   S    
C9    C66   A    
C54   H25   S    
C31   O3    S    
C63   H46   S    
C62   H43   S    
C47   C48   A    
C22   C25   A    
C53   O3    S    
C65   H53   S    
C43   C48   A    
C4    H6    S    
C63   H47   S    
C18   H1    S    
C40   C42   A    
C15   H8    S    
C37   H2    S    
C41   C43   A    
C42   C44   A    
C55   H26   S    
C61   H39   S    
O17   Zn1   S    
C51   O2    S    
C24   C30   A    
C64   O9    S    
C28   C31   A    
C58   O5    S    
O15   Zn2   S    
C20   H23   S    
O11   Zn2   S    
C33   C40   A    
C58   H31   S    
C45   O18   S    
C59   H33   S    
C58   H32   S    
C20   N1    A    
C4    C6    A    
C2    C67   A    
C10   C14   A    
C5    C7    A    
N2    Zn2   S    
C6    C8    A    
C25   C26   A    
C53   C54   S    
C57   H28   S    
C64   H49   S    
C51   C52   S    
C60   C61   S    
C62   O7    S    
C16   O14   A    
C54   H24   S    
C18   N1    A    
C2    C4    A    
C66   H3    S    
C62   H42   S    
C34   O8    S    
C57   H29   S    
C12   O11   A    
C65   H54   S    
C21   N2    A    
C19   C28   A    
C1    O12   A    
C21   H34   S    
C55   H27   S    
C20   C22   A    
C49   C50   S    
C13   C15   A    
C53   H21   S    
C17   O17   A    
C36   C44   A    
C65   O10   S    
C36   C38   A    
C60   O6    S    
C32   O4    S    
C60   H38   S    
C44   C45   A    
C50   H14   S    
C39   O5    S    
C7    C9    A    
C29   H45   S    
C23   C48   A    
C27   C32   A    
O14   Zn1   S    
C52   H19   S    
C36   H58   S    
C18   C27   A    
C3    C5    A    
C5    C11   A    
C25   C27   A    
C26   C28   A    
C33   C38   A    
C23   O7    S    
C17   O15   A    
C63   H48   S    
C59   H35   S    
C14   H7    S    
C55   C57   S    
C11   O9    S    
C29   C31   A    
C63   O8    S    
C6    C13   A    
C30   C32   A    
C40   H57   S    
C1    C2    S    
C52   H18   S    
C65   H52   S    
C49   H9    S    
C49   O18   S    
C53   H20   S    
C42   C47   A    
C38   O6    S    
C9    C15   A    
C19   H12   S    
C35   C41   A    
C43   C46   A    
C58   C59   S    
O1    Zn1   S    
O13   Zn1   S    
C62   H44   S    
C30   H55   S    
C37   C39   A    
C55   O4    S    
C21   C24   A    
C46   C56   A    
C34   C47   A    
C17   C35   S    
C3    H5    S    
C37   C46   A    
C51   H16   S    
C56   O2    S    
C60   H37   S    
C50   H13   S    
N1    Zn1   S    
