data_mof_unit_6091.cif
_audit_creation_date              2012-12-11T15:17:31-0500
_audit_creation_method            fapswitch 2.2
_symmetry_space_group_name_H-M    P1
_symmetry_Int_Tables_number       1
_space_group_crystal_system       triclinic
_cell_length_a                    15.753069
_cell_length_b                    15.75311
_cell_length_c                    34.605766
_cell_angle_alpha                 89.999565
_cell_angle_beta                  89.999641
_cell_angle_gamma                 119.999893
_cell_volume                      7437.22717617

loop_
_atom_site_label
_atom_site_type_symbol
_atom_type_description
_atom_site_fract_x
_atom_site_fract_y
_atom_site_fract_z
_atom_type_partial_charge
C1    C     C_R   0.578813 0.440925 0.555291 0.578899
C2    C     C_R   0.497838 0.967560 0.214686 0.349920
C3    C     C_3   0.632467 0.919814 0.169152 -0.365296
C4    C     C_3   0.287246 0.367683 0.169176 -0.365283
C5    C     C_3   0.080357 0.712726 0.169165 -0.365286
C6    C     C_R   0.469727 0.502181 0.214691 0.349957
C7    C     C_R   0.032499 0.530301 0.214696 0.349955
C8    C     C_R   0.002367 0.434072 0.854321 -0.116359
C9    C     C_R   0.565957 0.568350 0.854323 -0.116376
C10   C     C_R   0.431705 0.997662 0.854331 -0.116367
C11   C     C_R   0.434068 0.002364 0.354322 -0.116360
C12   C     C_R   0.568355 0.565958 0.354323 -0.116373
C13   C     C_R   0.997678 0.431713 0.354334 -0.116366
C14   C     C_R   0.038721 0.446446 0.891841 -0.126531
C15   C     C_R   0.559074 0.137888 0.555291 0.578895
C16   C     C_R   0.553570 0.592316 0.891843 -0.126530
C17   C     C_R   0.407745 0.961321 0.891854 -0.126534
C18   C     C_R   0.446441 0.038712 0.391844 -0.126529
C19   C     C_R   0.592320 0.553572 0.391843 -0.126525
C20   C     C_R   0.961315 0.407737 0.391853 -0.126534
C21   C     C_R   0.071090 0.613906 0.891804 -0.128426
C22   C     C_R   0.386140 0.457167 0.891813 -0.128444
C23   C     C_R   0.542784 0.928872 0.891797 -0.128446
C24   C     C_R   0.613909 0.071102 0.391802 -0.128430
C25   C     C_R   0.457161 0.386147 0.391815 -0.128444
C26   C     C_R   0.862110 0.421183 0.555292 0.578865
C27   C     C_R   0.928928 0.542816 0.391807 -0.128442
C28   C     C_R   0.035394 0.601763 0.854200 -0.116834
C29   C     C_R   0.398299 0.433621 0.854209 -0.116839
C30   C     C_R   0.566320 0.964560 0.854191 -0.116845
C31   C     C_R   0.601766 0.035411 0.354197 -0.116837
C32   C     C_R   0.433616 0.398305 0.354211 -0.116837
C33   C     C_R   0.964638 0.566368 0.354204 -0.116841
C34   C     C_R   0.004754 0.513114 0.834554 0.035355
C35   C     C_R   0.486936 0.491669 0.834559 0.035347
C36   C     C_R   0.508322 0.995230 0.834553 0.035349
C37   C     C_R   0.440925 0.578813 0.055291 0.578901
C38   C     C_R   0.513113 0.004765 0.334553 0.035354
C39   C     C_R   0.491669 0.486939 0.334559 0.035347
C40   C     C_R   0.995287 0.508360 0.334562 0.035349
C41   C     C_R   0.077300 0.537785 0.910211 0.024266
C42   C     C_R   0.462237 0.539522 0.910216 0.024274
C43   C     C_R   0.460484 0.922704 0.910214 0.024276
C44   C     C_R   0.537784 0.077299 0.410212 0.024268
C45   C     C_R   0.539521 0.462240 0.410216 0.024273
C46   C     C_R   0.922719 0.460490 0.410217 0.024272
C47   C     C_R   0.577927 0.442164 0.445615 0.552831
C48   C     C_R   0.137890 0.559074 0.055292 0.578886
C49   C     C_R   0.557840 0.135766 0.445614 0.552828
C50   C     C_R   0.864237 0.422074 0.445615 0.552821
C51   C     C_R   0.442163 0.577927 0.945614 0.552831
C52   C     C_R   0.135767 0.557840 0.945613 0.552825
C53   C     C_R   0.422074 0.864236 0.945615 0.552822
C54   C     C_R   0.911247 0.453804 0.593156 0.048057
C55   C     C_R   0.546180 0.457424 0.593155 0.048071
C56   C     C_R   0.542568 0.088755 0.593154 0.048068
C57   C     C_R   0.453809 0.911252 0.093154 0.048060
C58   C     C_R   0.457422 0.546180 0.093155 0.048068
C59   C     C_R   0.421184 0.862112 0.055291 0.578870
C60   C     C_R   0.088767 0.542573 0.093158 0.048065
C61   C     C_R   0.943353 0.398020 0.613800 0.232881
C62   C     C_R   0.601894 0.545345 0.613785 0.232873
C63   C     C_R   0.454646 0.056555 0.613784 0.232860
C64   C     C_R   0.398036 0.943374 0.113796 0.232882
C65   C     C_R   0.545345 0.601889 0.113785 0.232870
C66   C     C_R   0.056609 0.454668 0.113796 0.232860
C67   C     C_R   0.966019 0.417698 0.653183 -0.125273
C68   C     C_R   0.582220 0.548340 0.653168 -0.125274
C69   C     C_R   0.451645 0.033878 0.653167 -0.125290
C70   C     C_R   0.967544 0.497835 0.714688 0.349913
C71   C     C_R   0.417714 0.966044 0.153178 -0.125273
C72   C     C_R   0.548341 0.582214 0.153168 -0.125276
C73   C     C_R   0.033953 0.451682 0.153180 -0.125290
C74   C     C_R   0.957020 0.491561 0.672242 0.018159
C75   C     C_R   0.508437 0.465448 0.672243 0.018135
C76   C     C_R   0.534532 0.042972 0.672240 0.018142
C77   C     C_R   0.491566 0.957031 0.172241 0.018154
C78   C     C_R   0.465446 0.508436 0.172244 0.018136
C79   C     C_R   0.043025 0.534566 0.172248 0.018141
C80   C     C_R   0.931955 0.552327 0.650730 -0.017033
C81   C     C_R   0.502182 0.469726 0.714691 0.349958
C82   C     C_R   0.447737 0.379571 0.650744 -0.017051
C83   C     C_R   0.620408 0.068141 0.650741 -0.017039
C84   C     C_R   0.552323 0.931949 0.150731 -0.017034
C85   C     C_R   0.379566 0.447741 0.150745 -0.017048
C86   C     C_R   0.068152 0.620422 0.150742 -0.017036
C87   C     C_R   0.910819 0.533332 0.611378 -0.152725
C88   C     C_R   0.466719 0.377431 0.611390 -0.152743
C89   C     C_R   0.622556 0.089275 0.611388 -0.152735
C90   C     C_R   0.533329 0.910812 0.111378 -0.152727
C91   C     C_R   0.377425 0.466723 0.111391 -0.152742
C92   C     C_R   0.530251 0.032429 0.714686 0.349959
C93   C     C_R   0.089265 0.622555 0.111387 -0.152727
C94   C     C_R   0.985760 0.506615 0.792719 0.349301
C95   C     C_R   0.493441 0.479183 0.792724 0.349341
C96   C     C_R   0.520798 0.014217 0.792718 0.349350
C97   C     C_R   0.506613 0.985776 0.292718 0.349310
C98   C     C_R   0.479183 0.493442 0.292724 0.349342
C99   C     C_R   0.014286 0.520848 0.292728 0.349342
C100  C     C_3   0.919835 0.632481 0.669150 -0.365303
C101  C     C_3   0.367671 0.287255 0.669173 -0.365279
C102  C     C_3   0.712717 0.080372 0.669170 -0.365283
Cr1   Cr    Cr6+3 0.522350 0.263930 0.500020 1.045573
Cr2   Cr    Cr6+3 0.736070 0.258420 0.500020 1.045581
Cr3   Cr    Cr6+3 0.741580 0.477650 0.500020 1.045567
Cr4   Cr    Cr6+3 0.263930 0.522350 0.000020 1.045575
Cr5   Cr    Cr6+3 0.258420 0.736070 0.000020 1.045580
Cr6   Cr    Cr6+3 0.477650 0.741580 0.000020 1.045565
H1    H     H_    0.887345 0.577205 0.595429 0.153966
H2    H     H_    0.386226 0.041695 0.405602 0.134797
H3    H     H_    0.655549 0.613766 0.405595 0.134806
H4    H     H_    0.958327 0.344538 0.405613 0.134794
H5    H     H_    0.987752 0.372789 0.669393 0.120627
H6    H     H_    0.627075 0.615017 0.669365 0.120680
H7    H     H_    0.384969 0.012064 0.669365 0.120665
H8    H     H_    0.372813 0.987791 0.169386 0.120637
H9    H     H_    0.615019 0.627066 0.169365 0.120678
H10   H     H_    0.012171 0.385021 0.169383 0.120664
H11   H     H_    0.978139 0.364474 0.840070 0.139539
H12   H     H_    0.422896 0.310057 0.595451 0.154024
H13   H     H_    0.635549 0.613748 0.840072 0.139545
H14   H     H_    0.386352 0.021926 0.840090 0.139547
H15   H     H_    0.364465 0.978129 0.340074 0.139540
H16   H     H_    0.613757 0.635548 0.340071 0.139546
H17   H     H_    0.021923 0.386348 0.340089 0.139545
H18   H     H_    0.099582 0.684896 0.905455 0.132177
H19   H     H_    0.315156 0.414643 0.905466 0.132156
H20   H     H_    0.585263 0.900347 0.905439 0.132175
H21   H     H_    0.684902 0.099602 0.405451 0.132176
H22   H     H_    0.414632 0.315165 0.405469 0.132155
H23   H     H_    0.689932 0.112824 0.595450 0.154052
H24   H     H_    0.900421 0.585307 0.405452 0.132166
H25   H     H_    0.036476 0.663442 0.839898 0.137828
H26   H     H_    0.336633 0.373004 0.839910 0.137848
H27   H     H_    0.626887 0.963436 0.839882 0.137863
H28   H     H_    0.663449 0.036505 0.339893 0.137834
H29   H     H_    0.372994 0.336642 0.339912 0.137847
H30   H     H_    0.963547 0.626957 0.339899 0.137852
H31   H     H_    0.971057 0.290506 0.614309 0.316242
H32   H     H_    0.709293 0.680618 0.614270 0.316272
H33   H     H_    0.319377 0.028696 0.614270 0.316261
H34   H     H_    0.577195 0.887325 0.095432 0.153970
H35   H     H_    0.290538 0.971103 0.114301 0.316247
H36   H     H_    0.680620 0.709283 0.114269 0.316273
H37   H     H_    0.028806 0.319418 0.114293 0.316252
H38   H     H_    0.892012 0.666495 0.648305 0.127269
H39   H     H_    0.866283 0.602015 0.693259 0.165353
H40   H     H_    0.991604 0.691442 0.679977 0.164048
H41   H     H_    0.333702 0.225406 0.648332 0.127265
H42   H     H_    0.398212 0.264234 0.693276 0.165416
H43   H     H_    0.308656 0.299972 0.680007 0.164051
H44   H     H_    0.774571 0.108254 0.648330 0.127248
H45   H     H_    0.310049 0.422904 0.095453 0.154040
H46   H     H_    0.735740 0.133924 0.693276 0.165405
H47   H     H_    0.699990 0.008633 0.680000 0.164048
H48   H     H_    0.666476 0.891983 0.148308 0.127267
H49   H     H_    0.691437 0.991580 0.179979 0.164048
H50   H     H_    0.601993 0.866263 0.193261 0.165362
H51   H     H_    0.225394 0.333720 0.148336 0.127257
H52   H     H_    0.299955 0.308663 0.180010 0.164051
H53   H     H_    0.264233 0.398230 0.193279 0.165414
H54   H     H_    0.108208 0.774567 0.148321 0.127251
H55   H     H_    0.008614 0.699978 0.180000 0.164049
H56   H     H_    0.112782 0.689917 0.095444 0.154032
H57   H     H_    0.133924 0.735779 0.193267 0.165398
H58   H     H_    0.041715 0.386234 0.905597 0.134797
H59   H     H_    0.613766 0.655540 0.905597 0.134803
H60   H     H_    0.344569 0.958367 0.905621 0.134792
N1    N     N_R   0.949721 0.419745 0.773948 -0.226747
N2    N     N_R   0.415430 0.940549 0.235699 -0.227729
N3    N     N_R   0.525318 0.584563 0.235689 -0.227746
N4    N     N_R   0.059357 0.474771 0.235700 -0.227752
N5    N     N_R   0.003789 0.584654 0.733456 -0.229624
N6    N     N_R   0.415415 0.418932 0.733478 -0.229662
N7    N     N_R   0.581006 0.996406 0.733468 -0.229652
N8    N     N_R   0.584649 0.003762 0.233457 -0.229631
N9    N     N_R   0.418932 0.415415 0.233478 -0.229658
N10   N     N_R   0.996452 0.581036 0.233476 -0.229648
N11   N     N_R   0.012749 0.588998 0.771710 -0.228166
N12   N     N_R   0.580258 0.530238 0.773933 -0.226762
N13   N     N_R   0.411090 0.423558 0.771731 -0.228196
N14   N     N_R   0.576381 0.987449 0.771721 -0.228202
N15   N     N_R   0.588990 0.012722 0.271711 -0.228176
N16   N     N_R   0.423559 0.411091 0.271732 -0.228193
N17   N     N_R   0.987494 0.576412 0.271729 -0.228192
N18   N     N_R   0.469782 0.050031 0.773934 -0.226751
N19   N     N_R   0.419751 0.949782 0.273943 -0.226747
N20   N     N_R   0.530238 0.580259 0.273934 -0.226761
N21   N     N_R   0.050125 0.469854 0.273944 -0.226751
N22   N     N_R   0.940487 0.415422 0.735704 -0.227727
N23   N     N_R   0.584564 0.525318 0.735689 -0.227746
N24   N     N_R   0.474700 0.059262 0.735689 -0.227747
O1    O     O_R   0.498680 0.159540 0.541860 -0.446850
O2    O     O_R   0.358060 0.532760 0.040030 -0.527034
O3    O     O_R   0.174700 0.641940 0.040030 -0.527018
O4    O     O_R   0.467240 0.825300 0.040030 -0.527021
O5    O     O_R   0.498590 0.161190 0.456930 -0.519652
O6    O     O_R   0.838810 0.337400 0.456930 -0.519670
O7    O     O_R   0.662600 0.501410 0.456930 -0.519673
O8    O     O_R   0.161190 0.498590 0.956930 -0.519656
O9    O     O_R   0.337400 0.838810 0.956930 -0.519665
O10   O     O_R   0.501410 0.662600 0.956930 -0.519676
O11   O     O_R   0.532680 0.359580 0.461300 -0.506191
O12   O     O_R   0.840460 0.339140 0.541860 -0.446822
O13   O     O_R   0.640420 0.173100 0.461300 -0.506200
O14   O     O_R   0.826900 0.467320 0.461300 -0.506202
O15   O     O_R   0.359580 0.532680 0.961300 -0.506192
O16   O     O_R   0.173100 0.640420 0.961300 -0.506199
O17   O     O_R   0.467320 0.826900 0.961300 -0.506208
O18   O     O_3   0.666667 0.333333 0.499990 -0.262448
O19   O     O_3   0.333333 0.666667 0.999990 -0.262448
O20   O     O_3   0.948469 0.322649 0.595574 -0.679204
O21   O     O_3   0.677194 0.625862 0.595544 -0.679183
O22   O     O_3   0.374135 0.051353 0.595545 -0.679203
O23   O     O_R   0.660860 0.501320 0.541860 -0.446837
O24   O     O_3   0.322674 0.948503 0.095568 -0.679200
O25   O     O_3   0.625864 0.677184 0.095544 -0.679185
O26   O     O_3   0.051426 0.374161 0.095562 -0.679205
O27   O     O_R   0.159540 0.498680 0.041860 -0.446842
O28   O     O_R   0.339140 0.840460 0.041860 -0.446825
O29   O     O_R   0.501320 0.660860 0.041860 -0.446839
O30   O     O_R   0.532760 0.358060 0.540030 -0.527039
O31   O     O_R   0.641940 0.174700 0.540030 -0.527019
O32   O     O_R   0.825300 0.467240 0.540030 -0.527018

loop_
_geom_bond_atom_site_label_1
_geom_bond_atom_site_label_2
_ccdc_geom_bond_type
C44   C49   S    
N8    N15   A    
C11   C18   A    
Cr3   O23   S    
C22   C29   A    
C25   C45   A    
Cr2   O18   S    
C40   C99   S    
Cr5   O3    S    
Cr6   O17   S    
C85   C91   A    
Cr3   O14   S    
Cr4   O2    S    
C49   O5    A    
C27   C33   A    
C68   C75   A    
C95   N13   A    
C70   N22   A    
N3    N20   A    
Cr2   O12   S    
Cr4   O8    S    
C83   C102  S    
C9    C16   A    
C91   H45   S    
C80   C87   A    
C59   O28   A    
Cr1   O30   S    
C54   C87   A    
C81   N6    A    
C51   O15   A    
C6    C78   S    
C4    H51   S    
Cr5   O19   S    
N5    N11   A    
C16   H59   S    
C55   C62   A    
C101  H42   S    
C23   C43   A    
N6    N13   A    
C69   C76   A    
Cr1   O5    S    
C64   C71   A    
C55   C88   A    
C36   C96   S    
C81   N23   A    
C13   C40   A    
C98   N20   A    
C2    N8    A    
C20   H4    S    
N10   N17   A    
C24   H21   S    
C43   C53   S    
N9    N16   A    
H37   O26   S    
C63   C69   A    
C5    H54   S    
C100  H38   S    
C72   H9    S    
C1    O23   A    
C3    H50   S    
Cr6   O10   S    
C6    N9    A    
C48   C60   S    
C52   O8    A    
C5    H57   S    
C88   H12   S    
C58   C91   A    
C102  H46   S    
C41   C52   S    
C37   C58   S    
C51   O10   A    
C42   C51   S    
C22   C42   A    
C13   H17   S    
C60   C93   A    
C25   C32   A    
C29   H26   S    
C28   C34   A    
C74   C80   A    
C7    N4    A    
C80   C100  S    
C98   N16   A    
C27   H24   S    
C47   O7    A    
Cr6   O4    S    
C84   C90   A    
N1    N22   A    
C34   C94   S    
C38   C97   S    
C25   H22   S    
C26   C54   S    
C76   C83   A    
C97   N15   A    
C6    N3    A    
C45   C47   S    
C92   N7    A    
C50   O6    A    
C83   C89   A    
C1    C55   S    
C33   C40   A    
C57   C90   A    
C9    C35   A    
C28   H25   S    
C23   C30   A    
C96   N18   A    
C93   H56   S    
Cr4   O15   S    
C99   N21   A    
C75   C81   S    
C39   C98   S    
C4    C85   S    
C3    C84   S    
C77   C84   A    
C66   C73   A    
C101  H43   S    
C53   O9    A    
Cr3   O18   S    
C7    N10   A    
C1    O30   A    
C61   O20   S    
N2    N19   A    
C11   C38   A    
C26   O12   A    
C30   C36   A    
C5    H55   S    
C70   C74   S    
C86   C93   A    
C18   C44   A    
C61   C67   A    
C58   C65   A    
C9    H13   S    
C12   H16   S    
Cr3   O7    S    
C33   H30   S    
C73   C79   A    
C56   C63   A    
C47   O11   A    
C67   C74   A    
C8    C34   A    
Cr2   O13   S    
N18   N24   A    
Cr5   O16   S    
C90   H34   S    
H32   O21   S    
C76   C92   S    
N7    N14   A    
C21   C41   A    
C5    C86   S    
C50   O14   A    
C78   C85   A    
C53   O17   A    
C56   C89   A    
C21   C28   A    
C49   O13   A    
C35   C95   S    
C14   C41   A    
C48   O3    A    
C26   O32   A    
C24   C44   A    
C62   O21   S    
C14   H58   S    
Cr3   O32   S    
C16   C42   A    
C71   C77   A    
Cr6   O19   S    
C27   C46   A    
C57   C64   A    
C7    C79   S    
C97   N19   A    
C29   C35   A    
C69   H7    S    
C8    C14   A    
C73   H10   S    
Cr2   O31   S    
C13   C20   A    
C82   C101  S    
C2    N2    A    
Cr2   O6    S    
C64   O24   S    
C11   H15   S    
C18   H2    S    
C96   N14   A    
C31   H28   S    
C10   H14   S    
C17   H60   S    
H33   O22   S    
C3    H49   S    
C100  H39   S    
C19   C45   A    
C75   C82   A    
Cr5   O9    S    
C87   H1    S    
C54   C61   A    
C19   H3    S    
C59   O4    A    
C65   C72   A    
Cr1   O1    S    
N12   N23   A    
C46   C50   S    
H31   O20   S    
C89   H23   S    
C31   C38   A    
C62   C68   A    
N4    N21   A    
C15   C56   S    
C12   C39   A    
C67   H5    S    
C24   C31   A    
C37   O29   A    
C32   H29   S    
C94   N1    A    
C2    C77   S    
C37   O2    A    
C65   O25   S    
Cr6   O29   S    
C68   H6    S    
C22   H19   S    
C4    H52   S    
C100  H40   S    
C82   C88   A    
Cr4   O19   S    
C12   C19   A    
C101  H41   S    
C3    H48   S    
C99   N17   A    
C71   H8    S    
Cr4   O27   S    
C94   N11   A    
C63   O22   S    
C15   O31   A    
C70   N5    A    
Cr1   O11   S    
C57   C59   S    
C60   C66   A    
Cr5   O28   S    
C15   O1    A    
Cr1   O18   S    
C95   N12   A    
H36   O25   S    
C66   O26   S    
C30   H27   S    
C72   C78   A    
C17   C43   A    
C32   C39   A    
C4    H53   S    
C23   H20   S    
C10   C36   A    
C10   C17   A    
C21   H18   S    
C102  H47   S    
C79   C86   A    
C20   C46   A    
C92   N24   A    
C8    H11   S    
C102  H44   S    
H35   O24   S    
C48   O27   A    
C52   O16   A    
