data_mof_unit_23443.cif
_audit_creation_date              2012-12-10T17:34:58-0500
_audit_creation_method            fapswitch 2.2
_symmetry_space_group_name_H-M    P1
_symmetry_Int_Tables_number       1
_space_group_crystal_system       triclinic
_cell_length_a                    12.362763
_cell_length_b                    13.21053
_cell_length_c                    13.861478
_cell_angle_alpha                 106.109227
_cell_angle_beta                  73.778795
_cell_angle_gamma                 116.978532
_cell_volume                      1906.8690962

loop_
_atom_site_label
_atom_site_type_symbol
_atom_type_description
_atom_site_fract_x
_atom_site_fract_y
_atom_site_fract_z
_atom_type_partial_charge
C1    C     C_R   0.144215 0.713690 0.509403 0.901659
C2    C     C_1   0.973561 0.506687 0.791883 -0.108504
C3    C     C_R   0.735400 0.968830 0.382053 -0.136500
C4    C     C_R   0.774857 0.163522 0.471540 -0.067037
C5    C     C_R   0.180895 0.910598 0.600117 -0.237082
C6    C     C_R   0.262083 0.012582 0.648170 -0.114943
C7    C     C_R   0.388775 0.043808 0.619988 0.393798
C8    C     C_R   0.436810 0.981146 0.530309 -0.025007
C9    C     C_R   0.352918 0.876647 0.480623 -0.014167
C10   C     C_R   0.564705 0.016349 0.489156 0.098220
C11   C     C_R   0.608272 0.938319 0.415562 0.082483
C12   C     C_R   0.983848 0.504075 0.686387 0.861558
C13   C     C_R   0.524922 0.837377 0.367327 -0.210263
C14   C     C_R   0.399777 0.813155 0.391849 0.394564
C15   C     C_R   0.648855 0.130752 0.509484 -0.101436
C16   C     C_R   0.818912 0.080752 0.412097 -0.164313
C17   C     C_R   0.225483 0.837195 0.523359 -0.058383
C18   C     C_R   0.606494 0.610441 0.697216 0.359989
C19   C     C_R   0.259531 0.365077 0.353152 -0.022754
C20   C     C_R   0.353291 0.326020 0.322076 0.292244
C21   C     C_R   0.443410 0.363806 0.382278 0.333298
C22   C     C_R   0.443333 0.448081 0.472150 -0.178883
C23   C     C_R   0.856117 0.286189 0.486025 0.795635
C24   C     C_R   0.339607 0.479297 0.504765 0.082300
C25   C     C_R   0.539403 0.501659 0.533488 -0.078733
C26   C     C_R   0.511750 0.551279 0.637510 -0.080057
C27   C     C_R   0.392305 0.546717 0.674794 0.365332
C28   C     C_R   0.326857 0.542338 0.606126 0.328304
C29   C     C_R   0.662524 0.511606 0.495628 0.102571
C30   C     C_R   0.723650 0.614304 0.654769 0.011810
C31   C     C_R   0.015221 0.494721 0.313543 0.850258
C32   C     C_1   0.022583 0.489777 0.208090 -0.080363
C33   C     C_2   0.026675 0.481276 0.015103 -0.144239
C34   C     C_2   0.950750 0.511865 0.988145 0.270994
C35   C     C_1   0.963311 0.509134 0.881072 0.031312
C36   C     C_1   0.026084 0.485595 0.119767 0.057849
Cu1   Cu    Cu3+1 0.899780 0.525060 0.522890 0.989054
Cu2   Cu    Cu3+1 0.100220 0.474940 0.477110 1.026825
H1    H     H_    0.794990 0.655809 0.700931 0.163141
H2    H     H_    0.691979 0.480489 0.416963 0.181988
H3    H     H_    0.189355 0.332592 0.306893 0.177806
H4    H     H_    0.092023 0.452944 0.957285 0.193181
H5    H     H_    0.916410 0.104704 0.381848 0.168856
H6    H     H_    0.558223 0.783778 0.302915 0.180069
H7    H     H_    0.769616 0.908344 0.328156 0.152095
H8    H     H_    0.615920 0.197253 0.547107 0.208736
H9    H     H_    0.083353 0.882860 0.631927 0.178340
H10   H     H_    0.225566 0.061615 0.714669 0.190623
N1    N     N_R   0.748810 0.563010 0.557590 -0.229208
N2    N     N_R   0.250540 0.437620 0.443020 -0.204304
O1    O     O_R   0.025040 0.682470 0.528790 -0.597085
O2    O     O_R   0.194310 0.640150 0.490130 -0.500866
O3    O     O_R   0.903380 0.524130 0.659910 -0.591742
O4    O     O_R   0.072660 0.481800 0.621240 -0.541899
O5    O     O_R   0.805690 0.359850 0.509870 -0.559483
O6    O     O_R   0.974960 0.317530 0.471210 -0.596381
O7    O     O_R   0.927340 0.518200 0.378760 -0.588382
O8    O     O_R   0.096620 0.475870 0.340090 -0.553502
N3    N     N_2   0.864006 0.550624 0.062651 -0.424013
H11   H     H_    0.837486 0.524711 0.132357 0.265562
C37   C     C_3   0.764974 0.552380 0.027680 -0.537663
H12   H     H_    0.707152 0.585980 0.093183 0.231114
H13   H     H_    0.706070 0.463684 0.993804 0.247490
H14   H     H_    0.802915 0.610216 0.970525 0.239861
Cl1   Cl    Cl    0.311043 0.716748 0.298376 -0.572327
Cl2   Cl    Cl    0.323787 0.559284 0.805502 -0.472279
Cl3   Cl    Cl    0.592544 0.692179 0.820906 -0.471418
Cl4   Cl    Cl    0.534526 0.284008 0.354277 -0.566685
Cl5   Cl    Cl    0.351358 0.224390 0.208414 -0.470901
Cl6   Cl    Cl    0.301254 0.668944 0.640247 -0.540023
Cl7   Cl    Cl    0.475871 0.145477 0.712984 -0.568096

loop_
_geom_bond_atom_site_label_1
_geom_bond_atom_site_label_2
_ccdc_geom_bond_type
C2    C35   T    
C4    C16   A    
C37   H14   S    
C19   N2    A    
C9    C14   A    
C23   O5    A    
C6    C7    A    
Cu2   N2    S    
C7    Cl7   S    
C13   C14   A    
Cu2   O6    S    
Cu1   N1    S    
C1    C17   S    
C19   C20   A    
C18   C26   A    
Cu2   O2    S    
C2    C12   S    
C31   O7    A    
C4    C15   A    
C33   C34   D    
C18   Cl3   S    
Cu1   O3    S    
N3    H11   S    
C27   Cl2   S    
C29   N1    A    
C21   C22   A    
C24   N2    A    
C5    C6    A    
C11   C13   A    
C16   H5    S    
C23   O6    A    
C26   C27   A    
C34   N3    S    
C12   O3    A    
C6    H10   S    
C18   C30   A    
C33   H4    S    
C32   C36   T    
C31   O8    A    
C9    C17   A    
C5    H9    S    
Cu1   Cu2   S    
C3    H7    S    
C30   H1    S    
C22   C24   A    
C10   C15   A    
C21   Cl4   S    
C25   C29   A    
C37   H12   S    
Cu1   O1    S    
C1    O2    A    
Cu1   O7    S    
C20   Cl5   S    
N3    C37   S    
C3    C11   A    
C10   C11   A    
C12   O4    A    
Cu1   O5    S    
C19   H3    S    
C7    C8    A    
C33   C36   S    
C5    C17   A    
C20   C21   A    
C29   H2    S    
C24   C28   A    
C8    C10   A    
C34   C35   S    
C27   C28   A    
C37   H13   S    
C4    C23   S    
C14   Cl1   S    
C1    O1    A    
C15   H8    S    
C25   C26   A    
Cu2   O8    S    
C30   N1    A    
C13   H6    S    
C28   Cl6   S    
C3    C16   A    
C31   C32   S    
C8    C9    A    
C22   C25   A    
Cu2   O4    S    
