data_mof_unit_6521.cif
_audit_creation_date              2012-12-10T17:56:43-0500
_audit_creation_method            fapswitch 2.2
_symmetry_space_group_name_H-M    P1
_symmetry_Int_Tables_number       1
_space_group_crystal_system       triclinic
_cell_length_a                    10.831296
_cell_length_b                    9.522543
_cell_length_c                    10.781817
_cell_angle_alpha                 89.970589
_cell_angle_beta                  90.173433
_cell_angle_gamma                 89.953293
_cell_volume                      1112.04697096

loop_
_atom_site_label
_atom_site_type_symbol
_atom_type_description
_atom_site_fract_x
_atom_site_fract_y
_atom_site_fract_z
_atom_type_partial_charge
C1    C     C_R   0.262063 0.500003 0.499901 0.789330
C2    C     C_R   0.737918 0.499939 0.500091 0.762665
C3    C     C_R   0.935976 0.627631 0.499934 -0.200839
C4    C     C_R   0.063704 0.627668 0.499794 -0.186075
C5    C     C_R   0.421712 0.074523 0.424425 -0.021628
C6    C     C_R   0.578341 0.074289 0.575529 -0.020592
C7    C     C_R   0.421713 0.925714 0.424427 -0.020844
C8    C     C_R   0.578351 0.925482 0.575525 -0.020613
C9    C     C_R   0.504197 0.500078 0.262527 0.790254
C10   C     C_R   0.504272 0.500006 0.737489 0.792727
C11   C     C_R   0.700931 0.647664 0.129902 -0.175972
C12   C     C_R   0.701195 0.647075 0.871066 -0.188656
C13   C     C_R   0.792723 0.719158 0.065189 -0.132558
C14   C     C_R   0.792858 0.718854 0.936182 -0.141307
C15   C     C_R   0.605885 0.575768 0.934661 0.099018
C16   C     C_R   0.605786 0.575973 0.065858 0.094929
C17   C     C_R   0.512803 0.500012 0.128878 -0.098436
C18   C     C_R   0.512915 0.499801 0.871179 -0.100551
C19   C     C_R   0.426003 0.420613 0.063770 -0.204692
C20   C     C_R   0.426035 0.420544 0.935851 -0.199848
C21   C     C_R   0.063915 0.372427 0.500018 -0.191283
C22   C     C_R   0.936205 0.372393 0.500160 -0.180914
C23   C     C_R   0.871736 0.499982 0.500090 -0.012931
C24   C     C_R   0.128189 0.500057 0.499875 -0.017825
Cu1   Cu    Cu3+1 0.500000 0.640660 0.500000 0.936027
Cu2   Cu    Cu3+1 0.500000 0.359340 0.500000 0.942052
H1    H     H_    0.356005 0.360913 0.112394 0.144462
H2    H     H_    0.356027 0.360854 0.886873 0.150949
H3    H     H_    0.112021 0.272647 0.500042 0.147183
H4    H     H_    0.888256 0.272605 0.500318 0.147420
H5    H     H_    0.358992 0.130674 0.363854 0.116149
H6    H     H_    0.641104 0.130248 0.636054 0.120475
N1    N     N_R   0.500000 0.852070 0.500000 -0.158250
N2    N     N_R   0.500000 0.147940 0.500000 -0.158096
O1    O     O_R   0.319640 0.618740 0.499990 -0.585778
O2    O     O_R   0.680360 0.618740 0.500010 -0.603188
O3    O     O_R   0.319620 0.381170 0.499990 -0.590432
O4    O     O_R   0.680380 0.381170 0.500010 -0.586593
O5    O     O_R   0.500000 0.618810 0.319650 -0.584654
O6    O     O_R   0.500000 0.618810 0.680350 -0.580498
O7    O     O_R   0.499970 0.381240 0.319640 -0.575964
O8    O     O_R   0.500030 0.381240 0.680360 -0.577669
H7    H     H_    0.707123 0.647143 0.229962 0.149287
H8    H     H_    0.707644 0.645919 0.771070 0.138970
H9    H     H_    0.865014 0.773456 0.115413 0.133448
H10   H     H_    0.865251 0.772894 0.886288 0.132218
H11   H     H_    0.887837 0.727393 0.499907 0.146252
H12   H     H_    0.111657 0.727451 0.499636 0.147574
H13   H     H_    0.358987 0.869746 0.363874 0.120008
H14   H     H_    0.641138 0.869366 0.636033 0.115288

loop_
_geom_bond_atom_site_label_1
_geom_bond_atom_site_label_2
_ccdc_geom_bond_type
C15   C18   A    
C6    H6    S    
Cu2   O3    S    
C11   H7    S    
C10   O8    A    
C19   H1    S    
C11   C16   A    
C2    O4    A    
C3    C23   A    
C19   C20   A    
C12   C15   A    
C1    O3    A    
C6    N2    A    
C5    N2    A    
C14   H10   S    
C12   H8    S    
C21   C22   A    
Cu1   O5    S    
C13   H9    S    
C11   C13   A    
C7    H13   S    
C21   H3    S    
Cu1   O1    S    
C3    H11   S    
C17   C19   A    
C10   C18   S    
C18   C20   A    
C8    N1    A    
Cu1   O6    S    
C4    C24   A    
Cu1   N1    S    
C7    N1    A    
Cu1   O2    S    
C2    O2    A    
C15   C16   A    
C20   H2    S    
C8    H14   S    
C9    O5    A    
Cu2   O8    S    
C1    C24   S    
C10   O6    A    
C4    H12   S    
C21   C24   A    
C9    C17   S    
C2    C23   S    
C5    C7    A    
C1    O1    A    
C22   C23   A    
Cu2   O4    S    
C6    C8    A    
C22   H4    S    
Cu1   Cu2   S    
C13   C14   A    
C9    O7    A    
Cu2   N2    S    
C3    C4    A    
Cu2   O7    S    
C12   C14   A    
C16   C17   A    
C5    H5    S    
