data_mof_unit_33121.cif
_audit_creation_date              2012-12-10T17:41:00-0500
_audit_creation_method            fapswitch 2.2
_symmetry_space_group_name_H-M    P1
_symmetry_Int_Tables_number       1
_space_group_crystal_system       triclinic
_cell_length_a                    14.836149
_cell_length_b                    15.2593
_cell_length_c                    9.953978
_cell_angle_alpha                 89.941515
_cell_angle_beta                  89.618719
_cell_angle_gamma                 89.779229
_cell_volume                      2253.40585828

loop_
_atom_site_label
_atom_site_type_symbol
_atom_type_description
_atom_site_fract_x
_atom_site_fract_y
_atom_site_fract_z
_atom_type_partial_charge
Br1   Br    Br    0.692586 0.002742 0.153919 -0.516759
Br2   Br    Br    0.192586 0.502717 0.153931 -0.516730
C1    C     C_R   0.383275 0.877597 0.500452 0.839664
C2    C     C_R   0.688388 0.246503 0.410171 -0.188440
C3    C     C_R   0.164521 0.231811 0.528509 -0.198683
C4    C     C_R   0.188433 0.746465 0.410111 -0.188419
C5    C     C_R   0.689477 0.817478 0.498937 -0.072044
C6    C     C_R   0.695687 0.176490 0.499116 -0.094120
C7    C     C_R   0.189472 0.317474 0.498918 -0.071998
C8    C     C_R   0.195700 0.676479 0.499113 -0.094144
C9    C     C_R   0.335286 0.999843 0.141081 -0.122522
C10   C     C_R   0.835286 0.499848 0.141081 -0.122509
C11   C     C_R   0.254182 0.999501 0.071779 -0.186989
C12   C     C_R   0.380584 0.119745 0.500333 0.845773
C13   C     C_R   0.754181 0.499510 0.071779 -0.186963
C14   C     C_R   0.254232 0.999431 0.932677 -0.180358
C15   C     C_R   0.754232 0.499439 0.932677 -0.180371
C16   C     C_R   0.335395 0.999648 0.861945 -0.118909
C17   C     C_R   0.835395 0.499653 0.861944 -0.118915
C18   C     C_R   0.418909 0.999721 0.928625 0.149698
C19   C     C_R   0.918909 0.499724 0.928625 0.149711
C20   C     C_R   0.418905 0.999749 0.072994 0.110744
C21   C     C_R   0.918905 0.499752 0.072994 0.110735
C22   C     C_R   0.577711 0.000687 0.069214 0.314106
C23   C     C_R   0.883270 0.377601 0.500451 0.839641
C24   C     C_R   0.077712 0.500680 0.069216 0.314096
C25   C     C_R   0.623178 0.116215 0.499796 0.843311
C26   C     C_R   0.620147 0.880817 0.499688 0.843539
C27   C     C_R   0.123181 0.616211 0.499796 0.843338
C28   C     C_R   0.120145 0.380816 0.499685 0.843543
C29   C     C_R   0.577319 0.000493 0.926868 -0.142054
C30   C     C_R   0.077320 0.500486 0.926870 -0.142062
C31   C     C_R   0.436333 0.297657 0.448982 -0.164632
C32   C     C_R   0.413518 0.721739 0.666730 -0.192986
C33   C     C_R   0.936308 0.797629 0.448608 -0.164662
C34   C     C_R   0.880585 0.619747 0.500331 0.845770
C35   C     C_R   0.913551 0.221711 0.666623 -0.192972
C36   C     C_R   0.460749 0.384166 0.422179 -0.155719
C37   C     C_R   0.424283 0.647773 0.747286 -0.142884
C38   C     C_R   0.960709 0.884128 0.421695 -0.155720
C39   C     C_R   0.924339 0.147725 0.747129 -0.142861
C40   C     C_R   0.894989 0.949456 0.418310 -0.094546
C41   C     C_R   0.859232 0.082592 0.747428 -0.108535
C42   C     C_R   0.395028 0.449485 0.418689 -0.094649
C43   C     C_R   0.359177 0.582638 0.747576 -0.108533
C44   C     C_R   0.804896 0.928411 0.442379 -0.138977
C45   C     C_R   0.228957 0.167362 0.529741 -0.223968
C46   C     C_R   0.783255 0.091117 0.666946 -0.192798
C47   C     C_R   0.304919 0.428426 0.442574 -0.139063
C48   C     C_R   0.283225 0.591142 0.667040 -0.192789
C49   C     C_R   0.779285 0.841239 0.470716 0.083555
C50   C     C_R   0.770561 0.166185 0.585114 0.093392
C51   C     C_R   0.279294 0.341247 0.470838 0.083589
C52   C     C_R   0.270551 0.666193 0.585162 0.093379
C53   C     C_R   0.345282 0.275422 0.472980 0.100368
C54   C     C_R   0.336170 0.732281 0.585448 0.102332
C55   C     C_R   0.845272 0.775412 0.472806 0.100362
C56   C     C_R   0.251370 0.811255 0.411891 -0.217250
C57   C     C_R   0.836181 0.232272 0.585396 0.102333
C58   C     C_R   0.317878 0.189072 0.501112 -0.070583
C59   C     C_R   0.323101 0.805699 0.500789 -0.092391
C60   C     C_R   0.817883 0.689076 0.501105 -0.070608
C61   C     C_R   0.823089 0.305710 0.500788 -0.092365
C62   C     C_R   0.728982 0.667385 0.529907 -0.223965
C63   C     C_R   0.751329 0.311291 0.411946 -0.217256
C64   C     C_R   0.664546 0.731833 0.528683 -0.198677
H1    H     H_    0.209552 0.100332 0.551558 0.128308
H2    H     H_    0.140477 0.500875 0.871981 0.169571
H3    H     H_    0.488900 0.248646 0.452137 0.129914
H4    H     H_    0.467385 0.768960 0.667516 0.164722
H5    H     H_    0.988874 0.748614 0.451698 0.129980
H6    H     H_    0.967417 0.268932 0.667399 0.164697
H7    H     H_    0.530752 0.400543 0.404305 0.131646
H8    H     H_    0.483916 0.640536 0.808469 0.142870
H9    H     H_    0.030698 0.900492 0.403673 0.131625
H10   H     H_    0.983990 0.140472 0.808269 0.142862
H11   H     H_    0.913804 0.016622 0.397504 0.150268
H12   H     H_    0.242751 0.867162 0.345799 0.146583
H13   H     H_    0.868204 0.024600 0.808711 0.154026
H14   H     H_    0.413853 0.516656 0.397957 0.150264
H15   H     H_    0.368133 0.524659 0.808894 0.154058
H16   H     H_    0.755741 0.980703 0.438919 0.148592
H17   H     H_    0.736708 0.036973 0.667264 0.150343
H18   H     H_    0.255761 0.480708 0.439019 0.148588
H19   H     H_    0.236684 0.536993 0.667349 0.150368
H20   H     H_    0.595069 0.714757 0.549221 0.133897
H21   H     H_    0.632110 0.252638 0.341891 0.161730
H22   H     H_    0.095031 0.214725 0.548930 0.133890
H23   H     H_    0.709591 0.600371 0.551829 0.128321
H24   H     H_    0.132182 0.752581 0.341777 0.161728
H25   H     H_    0.329656 0.000411 0.247668 0.194174
H26   H     H_    0.829656 0.500413 0.247668 0.194176
H27   H     H_    0.190874 0.999472 0.126559 0.144315
H28   H     H_    0.690874 0.499481 0.126559 0.144332
H29   H     H_    0.742692 0.367217 0.345897 0.146552
H30   H     H_    0.190968 0.999394 0.879043 0.145389
H31   H     H_    0.690968 0.499404 0.879042 0.145388
H32   H     H_    0.330019 0.999958 0.755364 0.198090
H33   H     H_    0.830019 0.499960 0.755364 0.198079
H34   H     H_    0.640476 0.000887 0.871979 0.169594
N1    N     N_R   0.498810 1.000000 0.142780 -0.143977
N2    N     N_R   0.998810 0.500000 0.142780 -0.143980
N3    N     N_R   0.498740 0.000000 0.857170 -0.140170
N4    N     N_R   0.998740 0.500000 0.857170 -0.140161
O1    O     O_R   0.408390 0.908380 0.614690 -0.645766
O2    O     O_R   0.591620 0.908390 0.614640 -0.633978
O3    O     O_R   0.091620 0.591610 0.614640 -0.619788
O4    O     O_R   0.091620 0.408390 0.614640 -0.633976
O5    O     O_R   0.591610 0.091610 0.385310 -0.576571
O6    O     O_R   0.591610 0.908390 0.385310 -0.566878
O7    O     O_R   0.091610 0.591610 0.385310 -0.576611
O8    O     O_R   0.091610 0.408390 0.385310 -0.566860
O9    O     O_R   0.408390 0.091620 0.614690 -0.625154
O10   O     O_R   0.908390 0.408380 0.614690 -0.645747
O11   O     O_R   0.908390 0.591620 0.614690 -0.625138
O12   O     O_R   0.408370 0.908380 0.385360 -0.630632
O13   O     O_R   0.408370 0.091620 0.385360 -0.633845
O14   O     O_R   0.908370 0.408380 0.385360 -0.630618
O15   O     O_R   0.908370 0.591620 0.385360 -0.633884
O16   O     O_R   0.591620 0.091610 0.614640 -0.619793
Zn1   Zn    Zn3+2 0.500010 1.000000 0.653130 0.932909
Zn2   Zn    Zn3+2 0.000010 0.500000 0.653130 0.932923
Zn3   Zn    Zn3+2 0.499980 1.000000 0.346870 0.979082
Zn4   Zn    Zn3+2 0.999980 0.500000 0.346870 0.979068

loop_
_geom_bond_atom_site_label_1
_geom_bond_atom_site_label_2
_ccdc_geom_bond_type
C42   C47   A    
C31   C53   A    
C61   C63   A    
C24   C30   A    
O12   Zn3   S    
C4    C56   A    
C2    C6    A    
C23   O14   A    
C13   H28   S    
C55   C60   A    
C2    H21   S    
C25   O16   A    
C1    O1    A    
C32   C54   A    
C3    C45   A    
C10   C21   A    
C48   C52   A    
C20   N1    A    
C47   H18   S    
C17   C19   A    
O8    Zn4   S    
C1    O12   A    
C23   C61   S    
C2    C63   A    
N2    Zn4   S    
C21   N2    A    
N4    Zn2   S    
C1    C59   S    
C41   H13   S    
C22   N1    A    
C40   C44   A    
C37   H8    S    
C34   O15   A    
C60   C62   A    
C48   H19   S    
C45   C58   A    
C44   H16   S    
C19   N4    A    
C26   O2    A    
C30   N4    A    
C49   C55   A    
C41   C46   A    
C32   H4    S    
Br1   C22   S    
C31   H3    S    
C37   C43   A    
C56   C59   A    
C38   C40   A    
C33   H5    S    
O11   Zn2   S    
C53   C58   A    
C39   C41   A    
C62   H23   S    
C34   C60   S    
C45   H1    S    
C10   H26   S    
C36   C42   A    
C51   C53   A    
C52   C54   A    
C14   H30   S    
C32   C37   A    
C42   H14   S    
C18   N3    A    
C17   H33   S    
O5    Zn3   S    
C26   O6    A    
O15   Zn4   S    
C44   C49   A    
C5    C26   S    
C28   O8    A    
C29   N3    A    
C3    C7    A    
C50   C57   A    
O6    Zn3   S    
C10   C13   A    
C46   C50   A    
C12   O13   A    
O1    Zn1   S    
Br2   C24   S    
O14   Zn4   S    
C29   H34   S    
C35   C57   A    
C7    C28   S    
N1    Zn3   S    
C18   C20   A    
C19   C21   A    
C35   H6    S    
C7    C51   A    
N3    Zn1   S    
O16   Zn1   S    
C13   C15   A    
C6    C50   A    
C28   O4    A    
O7    Zn4   S    
C27   O7    A    
C43   H15   S    
O4    Zn2   S    
C64   H20   S    
C38   H9    S    
C12   O9    A    
C12   C58   S    
C9    C20   A    
C57   C61   A    
C31   C36   A    
C46   H17   S    
C30   H2    S    
C33   C55   A    
C33   C38   A    
O13   Zn3   S    
C22   C29   A    
C5    C49   A    
C4    H24   S    
C23   O10   A    
C24   N2    A    
C39   H10   S    
C9    C11   A    
C8    C27   S    
C43   C48   A    
C47   C51   A    
O2    Zn1   S    
C15   C17   A    
C16   C18   A    
C35   C39   A    
C8    C52   A    
C4    C8    A    
C56   H12   S    
O10   Zn2   S    
C9    H25   S    
C63   H29   S    
O9    Zn1   S    
C25   O5    A    
C40   H11   S    
C14   C16   A    
C11   C14   A    
C11   H27   S    
C3    H22   S    
C6    C25   S    
C54   C59   A    
C27   O3    A    
C16   H32   S    
O3    Zn2   S    
C34   O11   A    
C15   H31   S    
C62   C64   A    
C5    C64   A    
C36   H7    S    
