data_mof_unit_16735.cif
_audit_creation_date              2012-12-10T20:47:08-0500
_audit_creation_method            fapswitch 2.2
_symmetry_space_group_name_H-M    P1
_symmetry_Int_Tables_number       1
_space_group_crystal_system       triclinic
_cell_length_a                    10.605091
_cell_length_b                    8.934578
_cell_length_c                    8.116934
_cell_angle_alpha                 90.081188
_cell_angle_beta                  90.000021
_cell_angle_gamma                 90.0
_cell_volume                      769.095061623

loop_
_atom_site_label
_atom_site_type_symbol
_atom_type_description
_atom_site_fract_x
_atom_site_fract_y
_atom_site_fract_z
_atom_type_partial_charge
C1    C     C_R   0.500000 0.218046 0.499909 0.962329
C2    C     C_R   0.066265 0.574892 0.671481 0.041411
C3    C     C_R   0.130089 0.574338 0.516651 -0.121066
C4    C     C_R   0.869911 0.574337 0.516651 -0.121066
C5    C     C_R   0.065226 0.616054 0.374719 -0.207646
C6    C     C_R   0.934774 0.616054 0.374719 -0.207646
C7    C     C_1   0.500000 0.065189 0.499912 -0.190347
C8    C     C_1   0.500000 0.934794 0.500135 -0.164297
C9    C     C_1   0.228117 0.671106 0.869546 0.190852
C10   C     C_1   0.771884 0.671104 0.869548 0.190853
C11   C     C_R   0.500000 0.781986 0.500062 0.906583
C12   C     C_R   0.260718 0.524539 0.502634 0.871286
C13   C     C_R   0.739282 0.524538 0.502634 0.871286
C14   C     C_R   0.127697 0.568246 0.827492 0.037370
C15   C     C_R   0.872303 0.568244 0.827492 0.037370
C16   C     C_R   0.065300 0.501432 0.959005 -0.219563
C17   C     C_R   0.934701 0.501430 0.959005 -0.219564
C18   C     C_R   0.933735 0.574891 0.671481 0.041410
H1    H     H_    0.115659 0.641976 0.262858 0.161754
H2    H     H_    0.884341 0.641975 0.262858 0.161755
H3    H     H_    0.115895 0.470523 0.069294 0.163688
H4    H     H_    0.884107 0.470521 0.069294 0.163688
N1    N     N_1   0.500000 0.500000 0.073640 -0.029814
N2    N     N_1   0.500000 0.500000 0.926360 -0.027047
N3    N     N_1   0.307108 0.754800 0.904177 -0.175630
N4    N     N_1   0.692893 0.754798 0.904178 -0.175631
O1    O     O_R   0.500000 0.285350 0.636850 -0.606356
O2    O     O_R   0.500000 0.714650 0.636850 -0.607252
O3    O     O_R   0.500000 0.285360 0.363100 -0.607053
O4    O     O_R   0.500000 0.714640 0.363100 -0.619298
O5    O     O_R   0.316770 0.500000 0.636900 -0.624634
O6    O     O_R   0.683230 0.500000 0.636900 -0.624634
O7    O     O_R   0.316780 0.500000 0.363150 -0.621922
O8    O     O_R   0.683220 0.500000 0.363150 -0.621922
Zn1   Zn    Zn3+2 0.500000 0.500000 0.682780 1.001213
Zn2   Zn    Zn3+2 0.500000 0.500000 0.317220 0.989540

loop_
_geom_bond_atom_site_label_1
_geom_bond_atom_site_label_2
_ccdc_geom_bond_type
C15   C18   A    
C9    C14   S    
C15   C17   A    
C16   H3    S    
C5    H1    S    
C2    C18   A    
C6    H2    S    
C13   O6    A    
C17   H4    S    
O4    Zn2   S    
N1    N2    T    
C4    C18   A    
C10   N4    T    
C1    O3    A    
C2    C3    A    
C9    N3    T    
C13   O8    A    
O3    Zn2   S    
C11   O2    A    
C8    C11   S    
O5    Zn1   S    
O8    Zn2   S    
C10   C15   S    
C12   O5    A    
C5    C6    A    
C2    C14   A    
C14   C16   A    
N2    Zn1   S    
O6    Zn1   S    
C7    C8    T    
O7    Zn2   S    
O2    Zn1   S    
C4    C6    A    
N1    Zn2   S    
C4    C13   S    
C1    O1    A    
C3    C12   S    
O1    Zn1   S    
C12   O7    A    
C1    C7    S    
C11   O4    A    
C16   C17   A    
C3    C5    A    
