data_mof_unit_55614.cif
_audit_creation_date              2012-12-10T19:33:10-0500
_audit_creation_method            fapswitch 2.2
_symmetry_space_group_name_H-M    P1
_symmetry_Int_Tables_number       1
_space_group_crystal_system       triclinic
_cell_length_a                    8.73512
_cell_length_b                    15.798811
_cell_length_c                    17.085025
_cell_angle_alpha                 96.493704
_cell_angle_beta                  91.423779
_cell_angle_gamma                 84.563637
_cell_volume                      2331.90810629

loop_
_atom_site_label
_atom_site_type_symbol
_atom_type_description
_atom_site_fract_x
_atom_site_fract_y
_atom_site_fract_z
_atom_type_partial_charge
C1    C     C_R   0.504690 0.488918 0.348648 0.796957
C2    C     C_R   0.495313 0.511081 0.651352 0.796967
C3    C     C_R   0.412065 0.756029 0.467056 -0.092287
C4    C     C_R   0.587937 0.243971 0.532942 -0.092288
C5    C     C_R   0.416152 0.844554 0.463596 -0.114558
C6    C     C_R   0.583852 0.155445 0.536401 -0.114560
C7    C     C_R   0.536390 0.886875 0.503801 0.289577
C8    C     C_R   0.463612 0.113125 0.496197 0.289577
C9    C     C_R   0.643436 0.838745 0.547209 -0.453567
C10   C     C_R   0.356563 0.161255 0.452790 -0.453564
C11   C     C_R   0.629248 0.751030 0.553179 0.649060
C12   C     C_R   0.370750 0.248970 0.446821 0.649071
C13   C     C_R   0.205411 0.521838 0.500555 0.868935
C14   C     C_R   0.794589 0.478162 0.499443 0.868931
C15   C     C_2   0.040594 0.533875 0.500926 -0.369861
C16   C     C_2   0.959406 0.466125 0.499072 -0.369860
C17   C     C_R   0.518086 0.481671 0.262630 -0.087553
C18   C     C_R   0.481923 0.518327 0.737370 -0.087549
C19   C     C_R   0.453672 0.550433 0.224325 -0.254335
C20   C     C_R   0.546350 0.449568 0.775675 -0.254336
C21   C     C_R   0.459256 0.547469 0.143289 -0.175400
C22   C     C_R   0.540773 0.452533 0.856711 -0.175401
C23   C     C_R   0.532271 0.475655 0.098005 0.323155
C24   C     C_R   0.467750 0.524345 0.901996 0.323157
C25   C     C_R   0.602190 0.406668 0.135610 -0.065695
C26   C     C_R   0.397816 0.593329 0.864390 -0.065701
C27   C     C_R   0.593459 0.408436 0.218434 -0.095035
C28   C     C_R   0.406543 0.591560 0.781567 -0.095034
Cu1   Cu    Cu3+1 0.492520 0.415770 0.496210 0.983256
Cu2   Cu    Cu3+1 0.507480 0.584230 0.503790 0.983258
H1    H     H_    0.985838 0.598762 0.502707 0.188254
H2    H     H_    0.014162 0.401237 0.497289 0.188261
H3    H     H_    0.604006 0.393385 0.742713 0.163312
H4    H     H_    0.396021 0.606617 0.257287 0.163316
H5    H     H_    0.592826 0.397786 0.883695 0.169787
H6    H     H_    0.407213 0.602217 0.116305 0.169787
H7    H     H_    0.675532 0.277397 0.566018 0.156177
H8    H     H_    0.324472 0.722602 0.433979 0.156177
H9    H     H_    0.737347 0.870098 0.576615 0.162754
H10   H     H_    0.262651 0.129902 0.423385 0.162753
N1    N     N_2   0.541905 0.471697 0.014824 -0.255675
N2    N     N_2   0.458119 0.528304 0.985176 -0.255673
N3    N     N_R   0.518730 0.710760 0.509500 -0.194812
N4    N     N_R   0.481270 0.289240 0.490500 -0.194812
N5    N     N_2   0.559977 0.974962 0.499478 -0.222902
N6    N     N_2   0.440025 0.025038 0.500520 -0.222903
O1    O     O_R   0.493000 0.421040 0.382520 -0.537655
O2    O     O_R   0.507000 0.578960 0.617480 -0.537648
O3    O     O_R   0.505640 0.563310 0.388930 -0.596661
O4    O     O_R   0.494360 0.436690 0.611070 -0.596661
O5    O     O_R   0.269980 0.445280 0.497530 -0.529471
O6    O     O_R   0.730020 0.554720 0.502470 -0.529474
O7    O     O_R   0.282610 0.587550 0.503940 -0.608250
O8    O     O_R   0.717390 0.412450 0.496060 -0.608254
C29   C     C_R   0.688695 0.334062 0.087835 0.129222
C30   C     C_R   0.612227 0.281686 0.030684 -0.152469
C31   C     C_R   0.694039 0.213258 0.986060 -0.150888
C32   C     C_R   0.852358 0.196625 0.998225 -0.108751
C33   C     C_R   0.929226 0.248489 0.054950 -0.137320
C34   C     C_R   0.847934 0.317098 0.099565 -0.124259
H11   H     H_    0.489417 0.293638 0.021091 0.128264
H12   H     H_    0.634668 0.173035 0.942123 0.124249
H13   H     H_    0.915465 0.143576 0.963674 0.119125
H14   H     H_    0.051845 0.235608 0.064260 0.117788
H15   H     H_    0.908796 0.357063 0.143142 0.124223
C35   C     C_R   0.311291 0.665929 0.912164 0.129225
C36   C     C_R   0.387743 0.718319 0.969310 -0.152473
C37   C     C_R   0.305909 0.786742 0.013932 -0.150879
C38   C     C_R   0.147584 0.803354 0.001769 -0.108750
C39   C     C_R   0.070732 0.751475 0.945049 -0.137316
C40   C     C_R   0.152045 0.682872 0.900437 -0.124255
H16   H     H_    0.510558 0.706383 0.978900 0.128254
H17   H     H_    0.365268 0.826976 0.057864 0.124247
H18   H     H_    0.084460 0.856399 0.036318 0.119124
H19   H     H_    0.948108 0.764340 0.935742 0.117789
H20   H     H_    0.091196 0.642895 0.856865 0.124225
C41   C     C_R   0.660983 0.333551 0.257602 0.135643
C42   C     C_R   0.606356 0.252795 0.238386 -0.122011
C43   C     C_R   0.664163 0.183367 0.277759 -0.154429
C44   C     C_R   0.776129 0.194053 0.336878 -0.140405
C45   C     C_R   0.832440 0.273774 0.355684 -0.104025
C46   C     C_R   0.777263 0.342944 0.315339 -0.099803
H21   H     H_    0.517095 0.243990 0.193880 0.117807
H22   H     H_    0.620393 0.121590 0.263248 0.119496
H23   H     H_    0.818887 0.140666 0.368232 0.118869
H24   H     H_    0.918308 0.282096 0.401917 0.137539
H25   H     H_    0.821923 0.404417 0.330437 0.095558
C47   C     C_R   0.339002 0.666441 0.742398 0.135658
C48   C     C_R   0.222719 0.657040 0.684664 -0.099836
C49   C     C_R   0.167526 0.726207 0.644318 -0.104017
C50   C     C_R   0.223826 0.805931 0.663120 -0.140394
C51   C     C_R   0.335795 0.816625 0.722237 -0.154435
C52   C     C_R   0.393616 0.747201 0.761611 -0.122000
H26   H     H_    0.178068 0.595564 0.669568 0.095563
H27   H     H_    0.081655 0.717880 0.598089 0.137554
H28   H     H_    0.181058 0.859316 0.631766 0.118864
H29   H     H_    0.379556 0.878405 0.736746 0.119495
H30   H     H_    0.482878 0.756012 0.806115 0.117806
C53   C     C_R   0.702214 0.110803 0.584417 0.148559
C54   C     C_R   0.660396 0.072756 0.650255 -0.100097
C55   C     C_R   0.772390 0.027861 0.693464 -0.169582
C56   C     C_R   0.926579 0.021033 0.671535 -0.138701
C57   C     C_R   0.969241 0.059456 0.606587 -0.135105
C58   C     C_R   0.857680 0.104597 0.563332 -0.156264
H31   H     H_    0.541139 0.077088 0.667439 0.121772
H32   H     H_    0.739534 0.997961 0.743692 0.118185
H33   H     H_    0.012941 0.986063 0.704947 0.124051
H34   H     H_    0.088659 0.054000 0.589570 0.144895
H35   H     H_    0.892060 0.133508 0.512776 0.117550
C59   C     C_R   0.297795 0.889196 0.415577 0.148556
C60   C     C_R   0.142326 0.895398 0.436654 -0.156269
C61   C     C_R   0.030771 0.940540 0.393396 -0.135106
C62   C     C_R   0.073442 0.978969 0.328453 -0.138703
C63   C     C_R   0.227633 0.972145 0.306532 -0.169583
C64   C     C_R   0.339622 0.927248 0.349743 -0.100090
H36   H     H_    0.107939 0.866484 0.487206 0.117555
H37   H     H_    0.911351 0.945993 0.410407 0.144890
H38   H     H_    0.987083 0.013941 0.295041 0.124053
H39   H     H_    0.260496 0.002049 0.256308 0.118184
H40   H     H_    0.458881 0.922920 0.332565 0.121773
O9    O     O_3   0.730671 0.702766 0.598224 -0.562490
C65   C     C_3   0.761652 0.747535 0.672585 0.028678
H41   H     H_    0.660392 0.789640 0.696637 0.136451
H42   H     H_    0.858113 0.787548 0.667932 0.141774
C66   C     C_3   0.807688 0.683457 0.730990 -0.774280
H43   H     H_    0.709522 0.646448 0.740738 0.250873
H44   H     H_    0.905336 0.638248 0.708051 0.244089
H45   H     H_    0.842047 0.717716 0.788115 0.188677
O10   O     O_3   0.269322 0.297236 0.401780 -0.562491
C67   C     C_3   0.238320 0.252471 0.327420 0.028636
H46   H     H_    0.141854 0.212465 0.332077 0.141782
H47   H     H_    0.339569 0.210363 0.303364 0.136455
C68   C     C_3   0.192292 0.316552 0.269018 -0.774198
H48   H     H_    0.290480 0.353553 0.259271 0.250868
H49   H     H_    0.157919 0.282296 0.211889 0.188668
H50   H     H_    0.094650 0.361777 0.291966 0.244070

loop_
_geom_bond_atom_site_label_1
_geom_bond_atom_site_label_2
_ccdc_geom_bond_type
C29   C30   A    
C55   C56   A    
C2    C18   S    
C24   N2    S    
N1    N2    D    
C60   C61   A    
C45   C46   A    
C31   C32   A    
C31   H12   S    
C21   H6    S    
C41   C42   A    
C22   H5    S    
C3    N3    A    
C54   H31   S    
C44   H23   S    
Cu1   O1    S    
C7    N5    S    
Cu2   O2    S    
C19   C21   A    
C24   C26   A    
C62   C63   A    
C58   H35   S    
C5    C59   S    
C15   C16   D    
C9    H9    S    
C30   C31   A    
C10   H10   S    
C36   H16   S    
C48   H26   S    
C59   C60   A    
C54   C55   A    
C2    O4    A    
C56   C57   A    
C50   H28   S    
C13   O5    A    
C42   H21   S    
C14   O6    A    
C35   C40   A    
C3    H8    S    
C37   C38   A    
C28   C47   S    
C68   H50   S    
C11   N3    A    
C60   H36   S    
C18   C20   A    
C45   H24   S    
C35   C36   A    
C33   C34   A    
C29   C34   A    
C43   H22   S    
C11   O9    S    
C61   C62   A    
C51   H29   S    
C63   C64   A    
C13   O7    A    
Cu1   O4    S    
Cu2   O7    S    
C12   O10   S    
C36   C37   A    
C17   C27   A    
C38   H18   S    
C18   C28   A    
C4    C6    A    
C50   C51   A    
C5    C7    A    
C42   C43   A    
C1    O1    A    
C6    C8    A    
C4    N4    A    
C3    C5    A    
C37   H17   S    
N5    N6    D    
C62   H38   S    
C26   C35   S    
C67   H47   S    
Cu1   Cu2   S    
C66   H45   S    
C53   C54   A    
C33   H14   S    
C56   H33   S    
C47   C48   A    
C32   H13   S    
C9    C11   A    
O9    C65   S    
C39   C40   A    
C10   C12   A    
C20   H3    S    
C14   O8    A    
Cu2   O3    S    
C20   C22   A    
C34   H15   S    
C13   C15   S    
Cu1   N4    S    
C68   H48   S    
C22   C24   A    
Cu2   N3    S    
C67   C68   S    
C16   H2    S    
C65   H42   S    
C48   C49   A    
C40   H20   S    
C39   H19   S    
C68   H49   S    
O10   C67   S    
Cu1   O5    S    
C55   H32   S    
C7    C9    A    
Cu2   O6    S    
C47   C52   A    
C26   C28   A    
C25   C29   S    
C44   C45   A    
C27   C41   S    
C19   H4    S    
C49   H27   S    
C15   H1    S    
C25   C27   A    
C1    C17   S    
C23   N1    S    
C61   H37   S    
C2    O2    A    
C6    C53   S    
C65   C66   S    
C21   C23   A    
C67   H46   S    
C32   C33   A    
C12   N4    A    
C49   C50   A    
C66   H43   S    
C63   H39   S    
C41   C46   A    
C59   C64   A    
C51   C52   A    
C17   C19   A    
C53   C58   A    
C14   C16   S    
C23   C25   A    
C38   C39   A    
C8    N6    S    
C43   C44   A    
C4    H7    S    
C8    C10   A    
C64   H40   S    
Cu1   O8    S    
C57   C58   A    
C66   H44   S    
C30   H11   S    
C57   H34   S    
C65   H41   S    
C1    O3    A    
C52   H30   S    
C46   H25   S    
