data_mof_unit_40892.cif
_audit_creation_date              2012-12-10T18:37:08-0500
_audit_creation_method            fapswitch 2.2
_symmetry_space_group_name_H-M    P1
_symmetry_Int_Tables_number       1
_space_group_crystal_system       triclinic
_cell_length_a                    15.018799
_cell_length_b                    15.552311
_cell_length_c                    23.321927
_cell_angle_alpha                 90.737998
_cell_angle_beta                  103.987507
_cell_angle_gamma                 82.539288
_cell_volume                      5240.22111151

loop_
_atom_site_label
_atom_site_type_symbol
_atom_type_description
_atom_site_fract_x
_atom_site_fract_y
_atom_site_fract_z
_atom_type_partial_charge
C1    C     C_R   0.442191 0.661654 0.489624 0.917138
C2    C     C_R   0.479767 0.441324 0.287414 -0.083868
C3    C     C_R   0.386704 0.319050 0.286712 -0.051831
C4    C     C_R   0.455122 0.590483 0.753086 0.468831
C5    C     C_R   0.481026 0.453881 0.228116 0.463949
C6    C     C_R   0.490384 0.517044 0.789750 0.279167
C7    C     C_R   0.496841 0.535669 0.209385 0.195576
C8    C     C_R   0.408032 0.752714 0.474497 -0.084213
C9    C     C_R   0.592025 0.246026 0.507110 -0.099520
C10   C     C_R   0.284437 0.870081 0.437042 0.431392
C11   C     C_R   0.714857 0.127976 0.506151 0.438640
C12   C     C_R   0.314023 0.781725 0.451315 -0.313812
C13   C     C_R   0.557812 0.338142 0.508006 0.886190
C14   C     C_R   0.685790 0.216485 0.512335 -0.333066
C15   C     C_R   0.472783 0.810453 0.480771 -0.276535
C16   C     C_R   0.527354 0.187854 0.495796 -0.241357
C17   C     C_R   0.500144 0.501425 0.610196 0.900126
C18   C     C_R   0.499411 0.499987 0.389606 0.872097
C19   C     C_R   0.446632 0.897156 0.463738 0.007236
C20   C     C_R   0.552544 0.101195 0.484551 -0.001790
C21   C     C_R   0.350981 0.928257 0.444654 0.116418
C22   C     C_R   0.647957 0.070119 0.492473 0.107478
C23   C     C_R   0.513872 0.954450 0.469231 0.104822
C24   C     C_R   0.529020 0.440679 0.767999 -0.185052
C25   C     C_R   0.484787 0.044400 0.467391 0.089910
C26   C     C_R   0.389172 0.074583 0.447345 -0.284810
C27   C     C_R   0.609045 0.924580 0.476053 -0.269464
C28   C     C_R   0.323788 0.017183 0.434717 -0.182645
C29   C     C_R   0.674593 0.981765 0.486405 -0.176587
C30   C     C_R   0.839109 0.644352 0.584324 -0.429339
C31   C     C_R   0.161707 0.348922 0.424536 -0.283377
C32   C     C_R   0.750878 0.618386 0.571686 0.620531
C33   C     C_R   0.248002 0.375431 0.433440 0.562168
C34   C     C_R   0.794946 0.509499 0.507780 -0.158609
C35   C     C_R   0.512335 0.602742 0.249332 -0.137285
C36   C     C_R   0.204673 0.494097 0.490867 -0.138717
C37   C     C_R   0.885935 0.530905 0.520406 -0.001046
C38   C     C_R   0.114924 0.469648 0.482831 0.003166
C39   C     C_R   0.906450 0.601239 0.558369 0.133280
C40   C     C_R   0.094943 0.395518 0.448558 0.079769
C41   C     C_R   0.576790 0.548564 0.132879 0.502566
C42   C     C_R   0.409953 0.525163 0.867430 0.576107
C43   C     C_R   0.956221 0.485507 0.496417 0.098826
C44   C     C_R   0.045231 0.514625 0.507920 0.100955
C45   C     C_R   0.061716 0.586619 0.544696 -0.233585
C46   C     C_R   0.533000 0.436718 0.709219 -0.241546
C47   C     C_R   0.940666 0.410831 0.462335 -0.219055
C48   C     C_R   0.993760 0.628229 0.570020 -0.174429
C49   C     C_R   0.008880 0.367000 0.438866 -0.181179
C50   C     C_R   0.412090 0.562015 0.109009 0.508059
C51   C     C_R   0.572581 0.530598 0.890383 0.524441
C52   C     C_R   0.407685 0.559339 0.047864 -0.068342
C53   C     C_R   0.575829 0.541216 0.951061 -0.067960
C54   C     C_R   0.492213 0.552883 0.029809 -0.040540
C55   C     C_R   0.491544 0.545134 0.969220 -0.040619
C56   C     C_R   0.577615 0.552960 0.072596 -0.066160
C57   C     C_R   0.512431 0.589708 0.307953 -0.226468
C58   C     C_R   0.406694 0.540439 0.926743 -0.075160
C59   C     C_R   0.322409 0.560949 0.004797 -0.062835
C60   C     C_R   0.659782 0.549366 0.993564 -0.067230
C61   C     C_R   0.321940 0.551258 0.944636 -0.067997
C62   C     C_R   0.660742 0.554697 0.054005 -0.063630
C63   C     C_R   0.232114 0.572012 0.021463 0.192004
C64   C     C_R   0.184037 0.655304 0.023102 -0.109212
C65   C     C_R   0.100896 0.665972 0.040941 -0.139427
C66   C     C_R   0.065486 0.593710 0.057219 -0.100944
C67   C     C_R   0.112262 0.510482 0.054710 -0.131552
C68   C     C_R   0.498138 0.508989 0.671837 -0.088173
C69   C     C_R   0.195295 0.499464 0.036733 -0.099674
C70   C     C_R   0.747640 0.555031 0.975912 0.194287
C71   C     C_R   0.769569 0.635996 0.961937 -0.105206
C72   C     C_R   0.850513 0.641225 0.943319 -0.139095
C73   C     C_R   0.909854 0.565832 0.938648 -0.100246
C74   C     C_R   0.889161 0.485164 0.953446 -0.134361
C75   C     C_R   0.808290 0.479602 0.972101 -0.102817
C76   C     C_R   0.230837 0.556320 0.901152 0.192052
C77   C     C_R   0.183623 0.483266 0.890682 -0.108134
C78   C     C_R   0.097132 0.488821 0.850593 -0.139895
C79   C     C_R   0.495940 0.509738 0.327230 -0.140393
C80   C     C_R   0.057357 0.567200 0.820908 -0.113463
C81   C     C_R   0.103926 0.640212 0.831366 -0.136292
C82   C     C_R   0.190431 0.634956 0.871432 -0.093917
C83   C     C_R   0.749470 0.566296 0.096522 0.199092
C84   C     C_R   0.817226 0.494747 0.115669 -0.095589
C85   C     C_R   0.901764 0.506419 0.154128 -0.140290
C86   C     C_R   0.919022 0.589378 0.173674 -0.113128
C87   C     C_R   0.851852 0.660840 0.154666 -0.135564
C88   C     C_R   0.767255 0.649477 0.116134 -0.121373
C89   C     C_R   0.421604 0.662970 0.653405 0.076340
C90   C     C_R   0.458496 0.586518 0.693034 -0.152408
C91   C     C_R   0.477425 0.727960 0.651261 -0.113045
C92   C     C_R   0.438883 0.806218 0.621083 -0.146520
C93   C     C_R   0.344668 0.819792 0.592961 -0.092396
C94   C     C_R   0.289367 0.754227 0.593545 -0.154711
C95   C     C_R   0.327625 0.675975 0.623819 -0.138693
C96   C     C_R   0.470027 0.353966 0.307467 0.149100
C97   C     C_R   0.547138 0.302021 0.342162 -0.162871
C98   C     C_R   0.541399 0.215650 0.354838 -0.117764
C99   C     C_R   0.458356 0.181180 0.334054 -0.098207
C100  C     C_R   0.380834 0.233022 0.300412 -0.097851
H1    H     H_    0.363205 0.142347 0.438652 0.198411
H2    H     H_    0.877045 0.382773 0.453815 0.136007
H3    H     H_    0.556588 0.384683 0.796975 0.158177
H4    H     H_    0.524251 0.665138 0.234721 0.158333
H5    H     H_    0.562851 0.377133 0.692697 0.151643
H6    H     H_    0.524953 0.642435 0.338496 0.162273
H7    H     H_    0.251511 0.043237 0.419112 0.204828
H8    H     H_    0.746555 0.955961 0.490936 0.203327
H9    H     H_    0.456765 0.211256 0.496230 0.197274
H10   H     H_    0.543937 0.787568 0.501856 0.191295
H11   H     H_    0.736090 0.261985 0.520858 0.161115
H12   H     H_    0.634335 0.857280 0.471313 0.157669
H13   H     H_    0.263732 0.736359 0.445606 0.160081
H14   H     H_    0.211456 0.711701 0.011112 0.117230
H15   H     H_    0.064061 0.730261 0.042357 0.128412
H16   H     H_    0.001114 0.602126 0.070975 0.147820
H17   H     H_    0.084201 0.454585 0.066782 0.125999
H18   H     H_    0.231572 0.434843 0.035437 0.119026
H19   H     H_    0.723587 0.694660 0.964991 0.119596
H20   H     H_    0.867194 0.703673 0.932404 0.128367
H21   H     H_    0.972559 0.570089 0.924387 0.148105
H22   H     H_    0.935708 0.426987 0.950326 0.124094
H23   H     H_    0.009583 0.682455 0.598707 0.146911
H24   H     H_    0.792266 0.416785 0.982909 0.112605
H25   H     H_    0.154855 0.851776 0.414408 0.334794
H26   H     H_    0.844361 0.146119 0.521749 0.335196
H27   H     H_    0.358292 0.360926 0.404788 0.382082
H28   H     H_    0.706847 0.704797 0.622918 0.300879
H29   H     H_    0.213823 0.422363 0.913595 0.116282
H30   H     H_    0.060789 0.432475 0.842681 0.134851
H31   H     H_    0.990308 0.571437 0.789984 0.138900
H32   H     H_    0.072913 0.700907 0.808493 0.130625
H33   H     H_    0.225880 0.691906 0.879446 0.126436
H34   H     H_    0.994189 0.309695 0.413110 0.149084
H35   H     H_    0.804531 0.430283 0.100632 0.115306
H36   H     H_    0.953982 0.451211 0.168666 0.131809
H37   H     H_    0.984585 0.598331 0.203335 0.139512
H38   H     H_    0.865471 0.725070 0.169642 0.135013
H39   H     H_    0.715870 0.705268 0.101295 0.118068
H40   H     H_    0.549840 0.718989 0.674453 0.157619
H41   H     H_    0.481787 0.856676 0.619969 0.143211
H42   H     H_    0.314796 0.880719 0.570064 0.145950
H43   H     H_    0.216644 0.764501 0.571210 0.135207
H44   H     H_    0.283718 0.626632 0.625771 0.138035
H45   H     H_    0.226707 0.548739 0.516644 0.147714
H46   H     H_    0.612342 0.327545 0.357677 0.129528
H47   H     H_    0.601713 0.175144 0.380172 0.146531
H48   H     H_    0.454319 0.114105 0.343568 0.142352
H49   H     H_    0.316596 0.206211 0.284276 0.134632
H50   H     H_    0.326932 0.358090 0.259355 0.139729
H51   H     H_    0.395164 0.711245 0.748583 0.343705
H52   H     H_    0.481756 0.398726 0.152181 0.332142
H53   H     H_    0.771008 0.460310 0.477249 0.147968
H54   H     H_    0.854922 0.697549 0.613969 0.144678
H55   H     H_    0.147159 0.291670 0.398660 0.163680
H56   H     H_    0.126960 0.611956 0.555604 0.129252
N1    N     N_R   0.495307 0.551343 0.148938 -0.355535
N2    N     N_R   0.491240 0.522288 0.851079 -0.330780
N3    N     N_R   0.731690 0.552740 0.533440 -0.113322
N4    N     N_R   0.268310 0.447260 0.466560 -0.151701
O1    O     O_R   0.383120 0.605620 0.483150 -0.626495
O2    O     O_2   0.333318 0.512413 0.825846 -0.546873
O3    O     O_2   0.334781 0.572639 0.129462 -0.547291
O4    O     O_2   0.649421 0.528536 0.869857 -0.556285
O5    O     O_3   0.191625 0.900805 0.416625 -0.785718
O6    O     O_3   0.807324 0.097168 0.512386 -0.784527
O7    O     O_3   0.311139 0.325370 0.409143 -0.808517
O8    O     O_3   0.682257 0.658296 0.596639 -0.750073
O9    O     O_3   0.419652 0.664113 0.778388 -0.770636
O10   O     O_3   0.469153 0.384541 0.190421 -0.769841
O11   O     O_R   0.616880 0.394380 0.516850 -0.627379
O12   O     O_R   0.531890 0.639510 0.504600 -0.576446
O13   O     O_R   0.468110 0.360490 0.495400 -0.618978
O14   O     O_R   0.425590 0.483070 0.573110 -0.615748
O15   O     O_R   0.574410 0.516930 0.426890 -0.618427
O16   O     O_R   0.574360 0.516970 0.594570 -0.560470
O17   O     O_R   0.425640 0.483030 0.405430 -0.641830
O18   O     O_2   0.656229 0.538466 0.175528 -0.548884
Zn1   Zn    Zn3+2 0.400660 0.477370 0.485670 0.948583
Zn2   Zn    Zn3+2 0.599340 0.522630 0.514330 0.988958

loop_
_geom_bond_atom_site_label_1
_geom_bond_atom_site_label_2
_ccdc_geom_bond_type
C38   C40   A    
C49   H34   S    
C84   H35   S    
C37   C43   A    
C93   C94   A    
C22   C29   A    
C27   C29   A    
C34   C37   A    
C73   C74   A    
C57   C79   A    
C19   C23   A    
N3    Zn2   S    
C99   H48   S    
C38   C44   A    
C42   C58   A    
C48   H23   S    
C97   C98   A    
C41   C56   A    
C42   N2    A    
C77   C78   A    
C44   C45   A    
C15   C19   A    
C80   H31   S    
N4    Zn1   S    
C66   H16   S    
C94   H43   S    
C19   C21   A    
C9    C16   A    
C26   H1    S    
C11   C14   A    
C78   C80   A    
C34   H53   S    
C20   C25   A    
O13   Zn1   S    
C28   H7    S    
C40   C49   A    
C1    C8    S    
C46   H5    S    
C69   H18   S    
C31   C40   A    
C60   C62   A    
C97   H46   S    
C9    C13   S    
C2    C79   A    
C86   H37   S    
C3    C100  A    
C63   C69   A    
C18   O17   A    
C18   C79   S    
O17   Zn1   S    
C11   O6    S    
C50   C52   A    
C5    O10   S    
C31   C33   A    
C29   H8    S    
C3    C96   A    
C23   C27   A    
O1    Zn1   S    
C17   O16   A    
C16   C20   A    
C32   N3    A    
C18   O15   A    
O12   Zn2   S    
C58   C61   A    
C83   C88   A    
C1    O1    A    
C95   H44   S    
C50   N1    A    
C47   H2    S    
C65   H15   S    
C15   H10   S    
C33   O7    S    
C6    N2    S    
C53   C60   A    
C52   C54   A    
C16   H9    S    
C81   C82   A    
C4    C90   A    
C53   C55   A    
C61   C76   S    
C14   H11   S    
C54   C56   A    
C59   C61   A    
C64   H14   S    
C4    O9    S    
C13   O13   A    
C75   H24   S    
C41   O18   S    
C76   C77   A    
C4    C6    A    
C35   H4    S    
C74   C75   A    
C76   C82   A    
C91   C92   A    
C5    C7    A    
C86   C87   A    
C80   C81   A    
C81   H32   S    
C11   C22   A    
C25   C26   A    
C85   C86   A    
C63   C64   A    
C67   C69   A    
C62   C83   S    
C89   C95   A    
H25   O5    S    
C9    C14   A    
C88   H39   S    
C46   C68   A    
C52   C59   A    
H52   O10   S    
O16   Zn2   S    
C68   C90   A    
C83   C84   A    
C60   C70   S    
C8    C12   A    
C6    C24   A    
C96   C97   A    
C72   H20   S    
C42   O2    S    
C51   O4    S    
C45   H56   S    
C77   H29   S    
C84   C85   A    
C92   H41   S    
C67   H17   S    
C70   C71   A    
C10   C12   A    
C41   N1    A    
C74   H22   S    
C21   C28   A    
C20   C22   A    
C27   H12   S    
C98   C99   A    
C8    C15   A    
C73   H21   S    
C32   O8    S    
C43   C44   A    
C56   C62   A    
O11   Zn2   S    
C2    C5    A    
C89   C91   A    
C87   H38   S    
C57   H6    S    
C17   O14   A    
C3    H50   S    
C12   H13   S    
C45   C48   A    
C59   C63   S    
C54   C55   A    
C17   C68   S    
C1    O12   A    
C50   O3    S    
C7    C35   A    
C72   C73   A    
H26   O6    S    
C10   C21   A    
C31   H55   S    
C33   N4    A    
O15   Zn2   S    
C7    N1    S    
C100  H49   S    
C47   C49   A    
C51   N2    A    
C26   C28   A    
H51   O9    S    
C99   C100  A    
C71   H19   S    
C35   C57   A    
C24   H3    S    
C24   C46   A    
C64   C65   A    
C82   H33   S    
C36   C38   A    
C78   H30   S    
C71   C72   A    
C37   C39   A    
C34   N3    A    
C30   C32   A    
C10   O5    S    
C30   H54   S    
C2    C96   S    
C92   C93   A    
C30   C39   A    
C66   C67   A    
C23   C25   A    
C94   C95   A    
C36   N4    A    
C85   H36   S    
C91   H40   S    
C36   H45   S    
C13   O11   A    
C87   C88   A    
H27   O7    S    
C65   C66   A    
C98   H47   S    
C55   C58   A    
C70   C75   A    
H28   O8    S    
C51   C53   A    
C89   C90   S    
C43   C47   A    
O14   Zn1   S    
C93   H42   S    
C39   C48   A    
