data_mof_unit_51460.cif
_audit_creation_date              2012-12-10T18:50:01-0500
_audit_creation_method            fapswitch 2.2
_symmetry_space_group_name_H-M    P1
_symmetry_Int_Tables_number       1
_space_group_crystal_system       triclinic
_cell_length_a                    10.694294
_cell_length_b                    9.893671
_cell_length_c                    10.68339
_cell_angle_alpha                 90.123457
_cell_angle_beta                  91.281451
_cell_angle_gamma                 89.783711
_cell_volume                      1130.07173048

loop_
_atom_site_label
_atom_site_type_symbol
_atom_type_description
_atom_site_fract_x
_atom_site_fract_y
_atom_site_fract_z
_atom_type_partial_charge
C1    C     C_R   0.260212 0.500110 0.498944 0.979721
C2    C     C_R   0.577987 0.928104 0.578827 0.628973
C3    C     C_R   0.422629 0.928421 0.418975 -0.160647
C4    C     C_R   0.416437 0.072532 0.425758 -0.181312
C5    C     C_R   0.507394 0.499155 0.258151 1.010995
C6    C     C_R   0.739927 0.499806 0.499865 0.999282
C7    C     C_R   0.506131 0.499969 0.741737 0.920106
C8    C     C_3   0.585986 0.623187 0.073825 1.059680
C9    C     C_3   0.374240 0.506536 0.070133 1.023921
C10   C     C_3   0.590137 0.620685 0.929117 -0.380938
C11   C     C_3   0.373804 0.513523 0.925666 -0.314010
C12   C     C_3   0.570216 0.364047 0.925412 -0.478532
C13   C     C_3   0.578758 0.360834 0.070529 -0.220864
C14   C     C_3   0.512175 0.495870 0.121243 -0.344644
C15   C     C_3   0.510564 0.498838 0.878086 -0.315658
C16   C     C_2   0.351450 0.856830 0.318419 0.728437
C17   C     C_2   0.313326 0.145800 0.360326 0.626923
C18   C     C_2   0.722466 0.623928 0.880685 0.631008
C19   C     C_2   0.282712 0.413276 0.867316 0.567528
C20   C     C_2   0.716587 0.356694 0.112017 0.472645
C21   C     C_2   0.521406 0.227541 0.115242 0.583940
C22   C     C_R   0.066409 0.389397 0.548362 -0.145304
C23   C     C_R   0.063012 0.609193 0.445698 -0.214543
C24   C     C_R   0.938421 0.389582 0.550230 0.628246
C25   C     C_R   0.934798 0.608820 0.444819 0.683526
C26   C     C_R   0.872602 0.499390 0.498294 -0.355882
C27   C     C_R   0.127956 0.499754 0.497598 -0.207904
C28   C     C_R   0.579791 0.071496 0.576980 0.639361
F1    F     F_    0.705097 0.627463 0.128237 -0.601302
F2    F     F_    0.303722 0.399274 0.112525 -0.644482
F3    F     F_    0.527122 0.742336 0.108480 -0.579209
F4    F     F_    0.317100 0.622533 0.114943 -0.615225
F5    F     F_    0.879807 0.284649 0.605522 -0.561204
F6    F     F_    0.872206 0.713700 0.390078 -0.551301
F7    F     F_    0.659173 0.138740 0.655382 -0.558534
F8    F     F_    0.656272 0.860477 0.658311 -0.584636
H1    H     H_    0.545052 0.715635 0.894340 0.235718
H2    H     H_    0.298521 0.305427 0.876305 0.137884
H3    H     H_    0.790365 0.373589 0.045733 0.125946
H4    H     H_    0.564779 0.172145 0.192566 0.112619
H5    H     H_    0.339961 0.616142 0.897583 0.220038
H6    H     H_    0.662690 0.348019 0.882277 0.204289
H7    H     H_    0.514938 0.277819 0.887521 0.260447
H8    H     H_    0.117322 0.304836 0.589321 0.214821
H9    H     H_    0.111100 0.693730 0.404555 0.196648
H10   H     H_    0.314543 0.757638 0.331950 0.101732
H11   H     H_    0.329440 0.238964 0.311878 0.150841
H12   H     H_    0.760682 0.539836 0.828572 0.018474
N1    N     N_R   0.499970 0.857200 0.499970 -0.213793
N2    N     N_R   0.499970 0.142800 0.499970 -0.226400
O1    O     O_R   0.316750 0.614620 0.499990 -0.665797
O2    O     O_2   0.206572 0.102521 0.361965 -0.522033
O3    O     O_2   0.787790 0.723315 0.898817 -0.402407
O4    O     O_2   0.189542 0.453263 0.810479 -0.565404
O5    O     O_2   0.747101 0.338976 0.221656 -0.533841
O6    O     O_2   0.426122 0.180609 0.067605 -0.510646
O7    O     O_R   0.316750 0.385380 0.499990 -0.663979
O8    O     O_R   0.499970 0.614670 0.314790 -0.576241
O9    O     O_R   0.499970 0.385330 0.314790 -0.673917
O10   O     O_R   0.683220 0.614710 0.500010 -0.538286
O11   O     O_R   0.683220 0.385290 0.500010 -0.517583
O12   O     O_R   0.500010 0.614660 0.685200 -0.602325
O13   O     O_R   0.500010 0.385340 0.685200 -0.603026
O14   O     O_2   0.335204 0.908496 0.215575 -0.437301
Zn1   Zn    Zn3+2 0.499980 0.653120 0.500000 1.071588
Zn2   Zn    Zn3+2 0.499980 0.346880 0.500000 1.033770

loop_
_geom_bond_atom_site_label_1
_geom_bond_atom_site_label_2
_ccdc_geom_bond_type
C21   O6    D    
C8    C14   S    
C9    C14   S    
C7    O12   A    
C23   H9    S    
C19   H2    S    
C23   C27   A    
C1    O1    A    
C25   F6    S    
O8    Zn1   S    
C24   F5    S    
O12   Zn1   S    
C12   C15   S    
O7    Zn2   S    
C22   C27   A    
C11   C19   S    
C28   N2    A    
C7    C15   S    
C3    N1    A    
O13   Zn2   S    
C13   C21   S    
C13   C14   S    
C19   O4    D    
N2    Zn2   S    
C7    O13   A    
C5    C14   S    
C6    C26   S    
C21   H4    S    
N1    Zn1   S    
C5    O8    A    
C10   C18   S    
C20   O5    D    
C8    F1    S    
C9    F2    S    
C6    O11   A    
C2    N1    A    
C24   C26   A    
O10   Zn1   S    
C11   H5    S    
C12   H7    S    
C1    O7    A    
C10   C15   S    
C9    C11   S    
O9    Zn2   S    
O1    Zn1   S    
C22   C24   A    
C9    F4    S    
C2    C28   A    
C4    C17   S    
C2    F8    S    
C3    C4    A    
C6    O10   A    
C23   C25   A    
C12   C13   S    
C17   O2    D    
C8    C10   S    
C10   H1    S    
C16   H10   S    
C1    C27   S    
C20   H3    S    
C5    O9    A    
C12   H6    S    
C16   O14   D    
C18   O3    D    
C25   C26   A    
C8    F3    S    
C11   C15   S    
O11   Zn2   S    
C13   C20   S    
C22   H8    S    
C3    C16   S    
C17   H11   S    
C28   F7    S    
C4    N2    A    
C18   H12   S    
