data_mof_unit_52331.cif
_audit_creation_date              2012-12-10T16:49:27-0500
_audit_creation_method            fapswitch 2.2
_symmetry_space_group_name_H-M    P1
_symmetry_Int_Tables_number       1
_space_group_crystal_system       triclinic
_cell_length_a                    7.831544
_cell_length_b                    8.549756
_cell_length_c                    12.837569
_cell_angle_alpha                 90.105866
_cell_angle_beta                  86.445683
_cell_angle_gamma                 92.099215
_cell_volume                      857.346006667

loop_
_atom_site_label
_atom_site_type_symbol
_atom_type_description
_atom_site_fract_x
_atom_site_fract_y
_atom_site_fract_z
_atom_type_partial_charge
C1    C     C_R   0.457144 0.206451 0.500764 0.946770
C2    C     C_R   0.724118 0.524498 0.132918 -0.031550
C3    C     C_R   0.581631 0.545426 0.867020 -0.246164
C4    C     C_R   0.418369 0.454576 0.132980 -0.246164
C5    C     C_R   0.577219 0.524261 0.973162 0.155875
C6    C     C_R   0.422781 0.475742 0.026838 0.155874
C7    C     C_2   0.442400 0.046367 0.524754 -0.003307
C8    C     C_2   0.557600 0.953633 0.475246 -0.003304
C9    C     C_2   0.890065 0.542663 0.181815 0.915496
C10   C     C_2   0.109935 0.457340 0.818185 0.915496
C11   C     C_2   0.020855 0.702981 0.472428 1.121271
C12   C     C_R   0.542856 0.793549 0.499236 0.946769
C13   C     C_2   0.979145 0.297019 0.527573 1.121270
C14   C     C_3   0.342799 0.002195 0.626387 -0.842088
C15   C     C_3   0.657200 0.997805 0.373613 -0.842091
C16   C     C_R   0.463179 0.506151 0.700035 0.862400
C17   C     C_R   0.536822 0.493849 0.299965 0.862401
C18   C     C_R   0.564580 0.486260 0.187537 -0.127823
C19   C     C_R   0.435420 0.513742 0.812462 -0.127823
C20   C     C_R   0.273062 0.453583 0.974476 -0.216475
C21   C     C_R   0.726938 0.546420 0.025524 -0.216475
C22   C     C_R   0.275882 0.475505 0.867082 -0.031550
H1    H     H_    0.297887 0.418376 0.173732 0.201789
H2    H     H_    0.232582 0.923363 0.611548 0.299166
H3    H     H_    0.426791 0.943703 0.679809 0.234958
H4    H     H_    0.707331 0.892897 0.332442 0.246082
H5    H     H_    0.573204 0.056290 0.320189 0.234958
H6    H     H_    0.767413 0.076643 0.388450 0.299166
H7    H     H_    0.702113 0.581626 0.826268 0.201788
H8    H     H_    0.153451 0.421116 0.017593 0.174022
H9    H     H_    0.846549 0.578888 0.982407 0.174022
H10   H     H_    0.112406 0.667924 0.189223 0.369477
H11   H     H_    0.887594 0.332078 0.810777 0.369478
H12   H     H_    0.025719 0.903697 0.390358 0.352812
H13   H     H_    0.974278 0.096305 0.609642 0.352811
H14   H     H_    0.292676 0.107103 0.667559 0.246079
N1    N     N_2   0.054030 0.541640 0.471970 -0.163408
N2    N     N_2   0.945970 0.458360 0.528030 -0.163408
O1    O     O_R   0.609680 0.261530 0.506880 -0.633023
O2    O     O_R   0.998439 0.672300 0.156183 -0.782736
O3    O     O_2   0.061932 0.560637 0.762379 -0.588902
O4    O     O_R   0.001561 0.327703 0.843818 -0.782736
O5    O     O_2   0.988313 0.770193 0.555087 -0.635287
O6    O     O_R   0.041985 0.787656 0.379453 -0.812491
O7    O     O_2   0.011690 0.229807 0.444914 -0.635287
O8    O     O_R   0.958011 0.212345 0.620548 -0.812490
O9    O     O_R   0.390320 0.738470 0.493120 -0.633023
O10   O     O_R   0.323330 0.288220 0.488910 -0.612117
O11   O     O_R   0.676670 0.711780 0.511090 -0.612119
O12   O     O_R   0.619510 0.488830 0.661140 -0.607234
O13   O     O_R   0.380490 0.511170 0.338860 -0.607234
O14   O     O_R   0.333160 0.515520 0.643180 -0.606780
O15   O     O_R   0.666840 0.484480 0.356820 -0.606780
O16   O     O_2   0.938068 0.439365 0.237621 -0.588904
Zn1   Zn    Zn3+2 0.691200 0.482180 0.511990 1.029271
Zn2   Zn    Zn3+2 0.308800 0.517820 0.488010 1.029271

loop_
_geom_bond_atom_site_label_1
_geom_bond_atom_site_label_2
_ccdc_geom_bond_type
C1    O10   A    
C3    C19   A    
N1    N2    D    
C10   O4    S    
C6    C20   A    
C15   H5    S    
O12   Zn1   S    
C12   O9    A    
C8    C12   S    
C4    C18   A    
C17   O13   A    
C2    C21   A    
H10   O2    S    
C17   C18   S    
C13   N2    S    
C5    C21   A    
C11   O6    S    
N1    Zn2   S    
C20   H8    S    
C10   C22   S    
C10   O3    D    
C13   O7    D    
C2    C9    S    
C3    H7    S    
C15   H6    S    
C13   O8    S    
O14   Zn2   S    
C16   C19   S    
H11   O4    S    
C4    C6    A    
C16   O12   A    
C12   O11   A    
C8    C15   S    
O15   Zn1   S    
C14   H3    S    
C14   H14   S    
C5    C6    A    
O1    Zn1   S    
C11   O5    D    
C2    C18   A    
C1    O1    A    
C17   O15   A    
C7    C8    D    
C19   C22   A    
H12   O6    S    
O10   Zn2   S    
O13   Zn2   S    
C14   H2    S    
C11   N1    S    
C4    H1    S    
C15   H4    S    
C9    O16   D    
C3    C5    A    
C1    C7    S    
H13   O8    S    
C9    O2    S    
C7    C14   S    
N2    Zn1   S    
C16   O14   A    
C20   C22   A    
O9    Zn2   S    
C21   H9    S    
O11   Zn1   S    
