data_mof_unit_10587.cif
_audit_creation_date              2012-12-10T20:38:18-0500
_audit_creation_method            fapswitch 2.2
_symmetry_space_group_name_H-M    P1
_symmetry_Int_Tables_number       1
_space_group_crystal_system       triclinic
_cell_length_a                    9.853016
_cell_length_b                    10.667695
_cell_length_c                    16.570969
_cell_angle_alpha                 90.307225
_cell_angle_beta                  85.515345
_cell_angle_gamma                 89.589935
_cell_volume                      1736.34965067

loop_
_atom_site_label
_atom_site_type_symbol
_atom_type_description
_atom_site_fract_x
_atom_site_fract_y
_atom_site_fract_z
_atom_type_partial_charge
C1    C     C_R   0.499485 0.739779 0.500110 0.931532
C2    C     C_R   0.344731 0.429170 0.777591 -0.330640
C3    C     C_R   0.434726 0.317775 0.161546 -0.173607
C4    C     C_R   0.422468 0.373882 0.237284 -0.223798
C5    C     C_R   0.649321 0.460204 0.213538 -0.215252
C6    C     C_R   0.660799 0.405205 0.136865 -0.170177
C7    C     C_R   0.551971 0.336867 0.109918 0.199020
C8    C     C_2   0.444929 0.342483 0.984201 -0.168980
C9    C     C_2   0.552525 0.307420 0.023767 -0.276213
C10   C     C_R   0.528632 0.447204 0.263289 -0.020694
C11   C     C_R   0.387775 0.938312 0.530197 0.082367
C12   C     C_R   0.481454 0.495531 0.653670 0.902130
C13   C     C_R   0.497957 0.871312 0.494084 -0.173856
C14   C     C_R   0.602332 0.932206 0.447813 -0.341002
C15   C     C_R   0.602372 0.062504 0.444665 0.448111
C16   C     C_R   0.499428 0.128468 0.491112 -0.216319
C17   C     C_R   0.388048 0.066059 0.527813 0.060714
C18   C     C_3   0.323013 0.080636 0.611926 -0.507800
C19   C     C_3   0.323384 0.938163 0.615706 -0.196620
C20   C     C_R   0.919296 0.520910 0.570062 0.223586
C21   C     C_R   0.937199 0.468993 0.432270 -0.104497
C22   C     C_R   0.081073 0.468727 0.432296 -0.129125
C23   C     C_R   0.500611 0.260265 0.497885 0.914318
C24   C     C_R   0.061980 0.520588 0.570082 0.221562
C25   C     C_3   0.060293 0.635618 0.621428 -0.534515
C26   C     C_3   0.906258 0.636340 0.621303 -0.511329
C27   C     C_R   0.518465 0.492731 0.346524 0.847399
C28   C     C_R   0.470616 0.463959 0.739322 -0.089553
C29   C     C_R   0.588304 0.455399 0.780851 -0.210692
C30   C     C_R   0.580831 0.412570 0.859614 -0.237874
C31   C     C_R   0.455692 0.373997 0.897841 0.092061
C32   C     C_R   0.336592 0.380822 0.856261 0.501336
H1    H     H_    0.686526 0.482217 0.752666 0.162848
H2    H     H_    0.751727 0.420924 0.097202 0.130171
H3    H     H_    0.685022 0.879524 0.416369 0.179166
H4    H     H_    0.390130 0.128220 0.653375 0.190168
H5    H     H_    0.218951 0.121730 0.612331 0.200392
H6    H     H_    0.218346 0.900429 0.618680 0.144540
H7    H     H_    0.890624 0.446510 0.377193 0.144419
H8    H     H_    0.142304 0.445363 0.377257 0.144010
H9    H     H_    0.096727 0.616554 0.681994 0.194511
H10   H     H_    0.330651 0.357748 0.276023 0.148897
H11   H     H_    0.109092 0.716086 0.588751 0.214460
H12   H     H_    0.854162 0.618305 0.681955 0.194592
H13   H     H_    0.865460 0.717745 0.588935 0.222465
H14   H     H_    0.733754 0.513375 0.233681 0.142012
H15   H     H_    0.649210 0.283269 0.991376 0.152807
H16   H     H_    0.350759 0.263200 0.142120 0.135255
H17   H     H_    0.253002 0.437579 0.746089 0.171272
H18   H     H_    0.349667 0.367444 0.018151 0.188396
H19   H     H_    0.673206 0.414042 0.890724 0.150782
N1    N     N_R   0.857140 0.500860 0.500530 -0.106254
N2    N     N_R   0.142780 0.500820 0.500530 -0.105304
O1    O     O_R   0.385310 0.683210 0.499990 -0.613124
O2    O     O_R   0.614650 0.683240 0.500000 -0.618091
O3    O     O_R   0.371780 0.500000 0.615800 -0.622408
O4    O     O_R   0.601120 0.500040 0.615800 -0.620161
O5    O     O_R   0.385350 0.316760 0.500000 -0.622480
O6    O     O_R   0.614690 0.316790 0.500010 -0.568853
O7    O     O_R   0.398880 0.499960 0.384200 -0.625770
O8    O     O_R   0.628220 0.500000 0.384200 -0.622109
Zn1   Zn    Zn3+2 0.346870 0.499980 0.499990 0.940776
Zn2   Zn    Zn3+2 0.653130 0.500020 0.500010 0.962803
O9    O     O_3   0.708847 0.124456 0.403174 -0.589778
C33   C     C_3   0.689503 0.120299 0.319682 0.107463
H20   H     H_    0.595130 0.172343 0.307064 0.141871
H21   H     H_    0.683032 0.022001 0.297285 0.129071
C34   C     C_3   0.809934 0.181601 0.272867 -0.803418
H22   H     H_    0.905530 0.131063 0.284062 0.248207
H23   H     H_    0.795898 0.178622 0.207050 0.208753
H24   H     H_    0.818119 0.280715 0.292228 0.251867
C35   C     C_R   0.410436 0.884500 0.679196 0.170641
C36   C     C_R   0.350147 0.805362 0.739081 -0.176598
C37   C     C_R   0.426962 0.756456 0.799168 -0.129001
C38   C     C_R   0.565205 0.784295 0.799391 -0.113493
C39   C     C_R   0.626470 0.862825 0.740274 -0.160401
C40   C     C_R   0.549567 0.913811 0.680918 -0.139580
H25   H     H_    0.243273 0.782296 0.739796 0.120293
H26   H     H_    0.379463 0.696067 0.845280 0.148591
H27   H     H_    0.624751 0.745152 0.845466 0.131950
H28   H     H_    0.733506 0.884756 0.740662 0.132898
H29   H     H_    0.598759 0.975873 0.636419 0.142694
O10   O     O_3   0.211841 0.350940 0.896101 -0.636956
C41   C     C_3   0.142253 0.259567 0.852917 0.106139
H30   H     H_    0.122690 0.177714 0.893188 0.162179
H31   H     H_    0.199628 0.222675 0.796887 0.121680
C42   C     C_3   0.005427 0.312275 0.831656 -0.869822
H32   H     H_    0.020520 0.394361 0.791148 0.244156
H33   H     H_    0.948857 0.239360 0.800283 0.213232
H34   H     H_    0.943847 0.341792 0.887632 0.255576

loop_
_geom_bond_atom_site_label_1
_geom_bond_atom_site_label_2
_ccdc_geom_bond_type
C10   C27   S    
O5    Zn1   S    
C23   O5    A    
C30   H19   S    
C36   C37   A    
C41   C42   S    
C1    O1    A    
C25   H11   S    
C26   H12   S    
C23   O6    A    
C11   C19   S    
C29   C30   A    
C4    H10   S    
C12   C28   S    
C5    C6    A    
C2    C32   A    
C28   C29   A    
C2    H17   S    
C18   H5    S    
C41   H31   S    
C3    C7    A    
C27   O7    A    
C30   C31   A    
C15   C16   A    
C29   H1    S    
C3    H16   S    
O7    Zn1   S    
C18   C19   S    
O8    Zn2   S    
C27   O8    A    
C26   H13   S    
C41   H30   S    
C31   C32   A    
C8    C9    D    
C33   H21   S    
O2    Zn2   S    
C15   O9    S    
C38   H27   S    
C21   C22   A    
C19   C35   S    
C25   C26   S    
O4    Zn2   S    
C22   N2    A    
C37   C38   A    
C20   C24   A    
C24   C25   S    
C25   H9    S    
C14   H3    S    
C34   H22   S    
O1    Zn1   S    
C24   N2    A    
C6    H2    S    
C38   C39   A    
C35   C40   A    
C19   H6    S    
N2    Zn1   S    
O10   C41   S    
C21   H7    S    
C36   H25   S    
C33   C34   S    
C22   H8    S    
C17   C18   S    
C39   C40   A    
C12   O3    A    
C12   O4    A    
C9    H15   S    
C16   C23   S    
C37   H26   S    
C42   H33   S    
O3    Zn1   S    
C1    C13   S    
C4    C10   A    
C3    C4    A    
C8    H18   S    
C7    C9    S    
C32   O10   S    
C11   C17   A    
C8    C31   S    
C35   C36   A    
N1    Zn2   S    
C39   H28   S    
C6    C7    A    
C5    H14   S    
O6    Zn2   S    
O9    C33   S    
C1    O2    A    
C5    C10   A    
C20   N1    A    
C11   C13   A    
C16   C17   A    
C20   C26   S    
C40   H29   S    
C34   H24   S    
C42   H32   S    
C34   H23   S    
C33   H20   S    
C42   H34   S    
C14   C15   A    
C2    C28   A    
C13   C14   A    
C18   H4    S    
C21   N1    A    
