data_mof_unit_47096.cif
_audit_creation_date              2012-12-10T19:18:40-0500
_audit_creation_method            fapswitch 2.2
_symmetry_space_group_name_H-M    P1
_symmetry_Int_Tables_number       1
_space_group_crystal_system       triclinic
_cell_length_a                    15.742102
_cell_length_b                    14.995972
_cell_length_c                    10.562842
_cell_angle_alpha                 91.10542
_cell_angle_beta                  89.497364
_cell_angle_gamma                 89.540322
_cell_volume                      2492.90656731

loop_
_atom_site_label
_atom_site_type_symbol
_atom_type_description
_atom_site_fract_x
_atom_site_fract_y
_atom_site_fract_z
_atom_type_partial_charge
C1    C     C_R   0.337852 0.500245 0.499111 0.918558
C2    C     C_3   0.948504 0.498001 0.347394 -0.555121
C3    C     C_3   0.049243 0.505771 0.339365 0.909680
C4    C     C_1   0.825971 0.498088 0.492362 -0.093922
C5    C     C_1   0.173852 0.499784 0.483651 0.005432
C6    C     C_R   0.503248 0.499547 0.257011 0.884016
C7    C     C_1   0.249038 0.500393 0.490880 -0.160039
C8    C     C_3   0.422080 0.054996 0.548760 -0.393025
C9    C     C_3   0.416207 0.951713 0.544298 -0.443028
C10   C     C_3   0.577715 0.050411 0.550567 -0.445687
C11   C     C_3   0.571269 0.947607 0.560888 -0.393762
C12   C     C_3   0.506501 0.499935 0.122510 0.008256
C13   C     C_3   0.501631 0.089417 0.475349 0.206006
C14   C     C_3   0.496809 0.909311 0.480156 0.209999
C15   C     C_3   0.504406 0.938258 0.333333 -0.001363
C16   C     C_3   0.506723 0.051251 0.329675 0.003599
C17   C     C_1   0.498238 0.808994 0.493446 0.009120
C18   C     C_1   0.498840 0.190744 0.488144 0.004333
C19   C     C_R   0.662137 0.499646 0.500445 0.899569
C20   C     C_R   0.502869 0.500910 0.743095 0.871741
C21   C     C_3   0.460763 0.571851 0.046683 -0.231583
C22   C     C_3   0.471677 0.424447 0.039138 -0.229618
C23   C     C_3   0.047921 0.580307 0.558137 -0.478722
C24   C     C_3   0.426950 0.496285 0.960832 0.012462
C25   C     C_3   0.506422 0.502946 0.877695 -0.089814
C26   C     C_3   0.541048 0.577782 0.962571 0.023188
C27   C     C_3   0.552303 0.432744 0.955877 0.027859
C28   C     C_3   0.587788 0.507549 0.042232 -0.276691
C29   C     C_R   0.337481 0.490992 0.913485 0.118671
C30   C     C_R   0.282538 0.565081 0.925089 -0.130809
C31   C     C_R   0.198108 0.558262 0.887397 -0.161163
C32   C     C_R   0.167853 0.477525 0.839072 -0.144565
C33   C     C_R   0.222782 0.404392 0.822900 -0.140321
C34   C     C_3   0.049711 0.411712 0.538530 -0.468755
C35   C     C_R   0.307612 0.411138 0.859514 -0.145184
C36   C     C_R   0.428036 0.094432 0.258902 0.093280
C37   C     C_R   0.342642 0.068446 0.282450 -0.125668
C38   C     C_R   0.274305 0.101984 0.214371 -0.127579
C39   C     C_R   0.287961 0.162914 0.119573 -0.096828
C40   C     C_R   0.369655 0.192520 0.095584 -0.153612
C41   C     C_R   0.438325 0.161511 0.166366 -0.160179
C42   C     C_R   0.428378 0.899685 0.249318 0.063234
C43   C     C_R   0.368528 0.835365 0.291861 -0.179275
C44   C     C_R   0.308781 0.796757 0.211051 -0.148497
C45   C     C_3   0.952323 0.414290 0.551539 -0.424941
C46   C     C_R   0.304414 0.821357 0.085377 -0.140417
C47   C     C_R   0.359845 0.884915 0.040145 -0.145874
C48   C     C_R   0.420893 0.922511 0.119605 -0.127894
C49   C     C_R   0.590089 0.085194 0.257926 0.057497
C50   C     C_R   0.613421 0.049863 0.136141 -0.154326
C51   C     C_R   0.684758 0.078819 0.069657 -0.127777
C52   C     C_R   0.733903 0.147545 0.117980 -0.093956
C53   C     C_R   0.713122 0.185717 0.234854 -0.142736
C54   C     C_R   0.643391 0.155217 0.303947 -0.176516
C55   C     C_R   0.587345 0.886484 0.283285 0.069704
C56   C     C_3   0.950284 0.582282 0.556590 -0.424075
C57   C     C_R   0.581133 0.800157 0.224836 -0.125439
C58   C     C_R   0.652939 0.748534 0.194005 -0.084542
C59   C     C_R   0.733742 0.780759 0.217662 -0.120558
C60   C     C_R   0.742950 0.863653 0.276352 -0.152402
C61   C     C_R   0.671460 0.914444 0.311267 -0.131310
C62   C     C_R   0.579747 0.662324 0.914659 0.134486
C63   C     C_R   0.533955 0.743048 0.920738 -0.130599
C64   C     C_R   0.571611 0.822038 0.881336 -0.143845
C65   C     C_R   0.654737 0.820790 0.833870 -0.118558
C66   C     C_R   0.700029 0.740390 0.824738 -0.117214
C67   C     C_1   0.750809 0.498692 0.496730 -0.204422
C68   C     C_R   0.662731 0.661379 0.864890 -0.153336
C69   C     C_R   0.605004 0.358525 0.896980 0.143564
C70   C     C_R   0.680625 0.377867 0.831836 -0.146306
C71   C     C_R   0.727523 0.309567 0.771429 -0.119147
C72   C     C_R   0.699208 0.221601 0.775744 -0.138710
C73   C     C_R   0.623882 0.202170 0.840053 -0.139889
C74   C     C_R   0.576845 0.270254 0.899870 -0.110803
C75   C     C_3   0.029736 0.642477 0.223186 0.033358
C76   C     C_3   0.081117 0.717016 0.165294 -0.858187
C77   C     C_3   0.070657 0.434397 0.139963 0.130313
C78   C     C_3   0.082110 0.499291 0.478806 0.271285
C79   C     C_3   0.093894 0.344266 0.080478 -0.857591
C80   C     C_3   0.917220 0.498250 0.486956 0.312904
H1    H     H_    0.912380 0.548578 0.294807 0.121704
H2    H     H_    0.356122 0.931286 0.500463 0.158154
H3    H     H_    0.424570 0.627967 0.091893 0.141831
H4    H     H_    0.443560 0.364136 0.079956 0.143502
H5    H     H_    0.653156 0.511715 0.080427 0.123743
H6    H     H_    0.925443 0.585488 0.655646 0.172304
H7    H     H_    0.933935 0.415244 0.653615 0.171500
H8    H     H_    0.069821 0.576265 0.657556 0.182698
H9    H     H_    0.077978 0.401486 0.632738 0.171105
H10   H     H_    0.069343 0.352901 0.479150 0.213222
H11   H     H_    0.072734 0.643916 0.520459 0.203512
H12   H     H_    0.928935 0.433429 0.303275 0.173166
H13   H     H_    0.925264 0.352834 0.507531 0.173494
H14   H     H_    0.927697 0.643335 0.508450 0.172039
H15   H     H_    0.304380 0.627985 0.963853 0.115012
H16   H     H_    0.155603 0.615024 0.897829 0.118912
H17   H     H_    0.101304 0.471548 0.816921 0.113264
H18   H     H_    0.199237 0.342045 0.784319 0.122840
H19   H     H_    0.349450 0.353803 0.848277 0.124031
H20   H     H_    0.326906 0.017414 0.347485 0.136442
H21   H     H_    0.210662 0.078466 0.233091 0.123576
H22   H     H_    0.235299 0.186840 0.064173 0.119752
H23   H     H_    0.410566 0.927604 0.643105 0.169174
H24   H     H_    0.379305 0.239168 0.020475 0.108908
H25   H     H_    0.499210 0.190384 0.145569 0.149856
H26   H     H_    0.365115 0.811607 0.386497 0.136131
H27   H     H_    0.265737 0.747035 0.246658 0.155454
H28   H     H_    0.257670 0.791717 0.023320 0.122196
H29   H     H_    0.355706 0.905444 0.942656 0.119923
H30   H     H_    0.457373 0.973981 0.078219 0.118437
H31   H     H_    0.582425 0.994105 0.093912 0.126001
H32   H     H_    0.702023 0.047305 0.979884 0.116955
H33   H     H_    0.788531 0.170630 0.065406 0.122615
H34   H     H_    0.426852 0.076369 0.650122 0.170246
H35   H     H_    0.751887 0.238898 0.273305 0.129050
H36   H     H_    0.635712 0.187906 0.394010 0.141449
H37   H     H_    0.520845 0.768868 0.206867 0.149250
H38   H     H_    0.645777 0.682320 0.153646 0.132554
H39   H     H_    0.789157 0.740633 0.193086 0.111412
H40   H     H_    0.805843 0.888066 0.297763 0.124673
H41   H     H_    0.684144 0.975555 0.361504 0.143308
H42   H     H_    0.469522 0.745144 0.956796 0.128828
H43   H     H_    0.536404 0.884253 0.887779 0.109225
H44   H     H_    0.683939 0.882045 0.803786 0.108124
H45   H     H_    0.640383 0.068059 0.511684 0.160358
H46   H     H_    0.764277 0.739360 0.787370 0.116596
H47   H     H_    0.699035 0.599962 0.858915 0.100853
H48   H     H_    0.702772 0.445715 0.826530 0.096660
H49   H     H_    0.785562 0.324913 0.720929 0.118261
H50   H     H_    0.735416 0.168603 0.729160 0.112850
H51   H     H_    0.601767 0.134263 0.844441 0.110834
H52   H     H_    0.517895 0.254086 0.946059 0.100149
H53   H     H_    0.982544 0.674318 0.288989 0.151231
H54   H     H_    0.997803 0.605883 0.144771 0.121558
H55   H     H_    0.133058 0.688596 0.104943 0.250783
H56   H     H_    0.632905 0.914121 0.540866 0.169089
H57   H     H_    0.039380 0.759168 0.106461 0.206256
H58   H     H_    0.108969 0.759331 0.241449 0.252686
H59   H     H_    0.112341 0.485699 0.098341 0.200899
H60   H     H_    0.003389 0.449036 0.116334 0.101035
H61   H     H_    0.058138 0.290581 0.127902 0.251356
H62   H     H_    0.077562 0.343112 0.978495 0.202605
H63   H     H_    0.163081 0.331708 0.090508 0.264076
H64   H     H_    0.577227 0.079820 0.647524 0.171601
H65   H     H_    0.559348 0.932289 0.662027 0.172334
H66   H     H_    0.362251 0.087476 0.519485 0.162673
N1    N     N_1   0.498630 0.731150 0.497460 -0.086062
N2    N     N_1   0.498630 0.268850 0.497460 -0.084572
O1    O     O_R   0.377210 0.574260 0.500130 -0.615315
O2    O     O_3   0.083579 0.430398 0.271865 -0.646418
O3    O     O_R   0.377210 0.425740 0.500130 -0.605801
O4    O     O_R   0.500050 0.574220 0.314080 -0.629756
O5    O     O_R   0.500050 0.425780 0.314080 -0.617275
O6    O     O_R   0.622930 0.574200 0.500140 -0.606514
O7    O     O_R   0.622930 0.425800 0.500140 -0.612908
O8    O     O_R   0.500090 0.574240 0.686180 -0.609777
O9    O     O_R   0.500090 0.425760 0.686180 -0.614493
O10   O     O_3   0.085064 0.586156 0.290000 -0.643325
Zn1   Zn    Zn3+2 0.500090 0.599130 0.500180 0.973863
Zn2   Zn    Zn3+2 0.500090 0.400870 0.500180 0.978107

loop_
_geom_bond_atom_site_label_1
_geom_bond_atom_site_label_2
_ccdc_geom_bond_type
C48   H30   S    
C21   C26   S    
C73   H51   S    
C51   H32   S    
C74   H52   S    
C19   O7    A    
C73   C74   A    
C66   C68   A    
C77   H60   S    
C43   C44   A    
N1    Zn1   S    
C75   H54   S    
C23   C56   S    
C52   H33   S    
C56   H14   S    
C31   H16   S    
C37   C38   A    
C41   H25   S    
C13   C18   S    
C12   C28   S    
C36   C37   A    
C17   N1    T    
C4    C80   S    
C38   H21   S    
C18   N2    T    
C6    C12   S    
C30   C31   A    
C11   C14   S    
C79   H62   S    
C71   H49   S    
C20   C25   S    
C49   C54   A    
C12   C22   S    
C58   H38   S    
C32   H17   S    
C30   H15   S    
C61   H41   S    
C33   H18   S    
N2    Zn2   S    
C65   H44   S    
C24   C29   S    
C79   H63   S    
C21   H3    S    
C8    C9    S    
C46   H28   S    
C3    O10   S    
C1    O1    A    
C70   C71   A    
C10   H45   S    
C27   C69   S    
C8    H34   S    
C9    H2    S    
C6    O4    A    
O4    Zn1   S    
C45   H13   S    
C59   C60   A    
C14   C17   S    
C36   C41   A    
C19   C67   S    
C35   H19   S    
C16   C36   S    
C76   H55   S    
C44   C46   A    
C77   C79   S    
C76   H57   S    
C38   C39   A    
C51   C52   A    
C47   C48   A    
C16   C49   S    
C39   C40   A    
C5    C7    T    
C9    C14   S    
C11   H65   S    
C42   C48   A    
C25   C26   S    
C53   C54   A    
C12   C21   S    
C66   H46   S    
C54   H36   S    
C60   C61   A    
C43   H26   S    
C15   C55   S    
C75   C76   S    
C34   H10   S    
C62   C63   A    
C40   H24   S    
C56   H6    S    
C31   C32   A    
C9    H23   S    
C50   C51   A    
C69   C74   A    
C34   C45   S    
C10   H64   S    
C24   C25   S    
C2    H12   S    
O1    Zn1   S    
C68   H47   S    
C75   O10   S    
C40   C41   A    
C49   C50   A    
O9    Zn2   S    
C23   H8    S    
C55   C57   A    
C23   H11   S    
C58   C59   A    
C42   C43   A    
C21   C24   S    
C28   H5    S    
C63   H42   S    
C52   C53   A    
C39   H22   S    
C57   H37   S    
C44   H27   S    
C70   H48   S    
C46   C47   A    
C3    O2    S    
C59   H39   S    
C20   O8    A    
C45   H7    S    
O7    Zn2   S    
C1    C7    S    
O8    Zn1   S    
C8    H66   S    
C77   H59   S    
C15   C42   S    
C72   C73   A    
C10   C13   S    
C77   O2    S    
C4    C67   T    
C75   H53   S    
C72   H50   S    
C76   H58   S    
C25   C27   S    
C64   H43   S    
C29   C35   A    
C26   C28   S    
C56   C80   S    
C62   C68   A    
C22   C27   S    
O3    Zn2   S    
O5    Zn2   S    
C2    C3    S    
C26   C62   S    
C34   H9    S    
C71   C72   A    
C47   H29   S    
C20   O9    A    
C32   C33   A    
C57   C58   A    
C79   H61   S    
C55   C61   A    
C64   C65   A    
C50   H31   S    
C33   C35   A    
C1    O3    A    
C45   C80   S    
C22   C24   S    
C23   C78   S    
C69   C70   A    
C6    O5    A    
C2    C80   S    
C10   C11   S    
C60   H40   S    
C29   C30   A    
C63   C64   A    
C8    C13   S    
C53   H35   S    
O6    Zn1   S    
C65   C66   A    
C13   C16   S    
C27   C28   S    
C19   O6    A    
C14   C15   S    
C2    H1    S    
C5    C78   S    
C11   H56   S    
C3    C78   S    
C37   H20   S    
C34   C78   S    
C15   C16   S    
C22   H4    S    
