data_mof_unit_28719.cif
_audit_creation_date              2012-12-10T16:37:22-0500
_audit_creation_method            fapswitch 2.2
_symmetry_space_group_name_H-M    P1
_symmetry_Int_Tables_number       1
_space_group_crystal_system       triclinic
_cell_length_a                    17.515342
_cell_length_b                    17.558904
_cell_length_c                    17.478089
_cell_angle_alpha                 66.085949
_cell_angle_beta                  64.425149
_cell_angle_gamma                 65.823063
_cell_volume                      4249.3628257

loop_
_atom_site_label
_atom_site_type_symbol
_atom_type_description
_atom_site_fract_x
_atom_site_fract_y
_atom_site_fract_z
_atom_type_partial_charge
C1    C     C_R   0.418933 0.011570 0.675958 0.601796
C2    C     C_R   0.419857 0.675586 0.010335 0.614205
C3    C     C_3   0.923631 0.262767 0.275627 -0.462939
C4    C     C_3   0.864266 0.296402 0.211849 -0.276450
C5    C     C_3   0.883525 0.280187 0.119041 -0.625196
C6    C     C_3   0.753744 0.749054 0.014690 -0.244916
C7    C     C_3   0.830988 0.766411 0.924925 -0.294699
C8    C     C_3   0.899560 0.796688 0.932223 -0.749913
C9    C     C_3   0.265950 0.258247 0.940588 -0.326152
C10   C     C_3   0.298624 0.217804 0.861658 -0.317864
C11   C     C_3   0.251811 0.141316 0.899992 -0.564286
C12   C     C_R   0.989607 0.577784 0.326010 0.622918
C13   C     C_R   0.009293 0.424464 0.672552 0.615109
C14   C     C_R   0.971867 0.177214 0.434433 0.847220
C15   C     C_R   0.029190 0.823144 0.564720 0.856007
C16   C     C_R   0.177076 0.434257 0.971043 0.874087
C17   C     C_R   0.823659 0.567278 0.024105 0.861687
C18   C     C_R   0.434451 0.971252 0.176961 0.865729
C19   C     C_R   0.565557 0.028283 0.823168 0.839669
C20   C     C_R   0.567227 0.825087 0.022874 0.868230
C21   C     C_R   0.578735 0.991982 0.323557 0.617397
C22   C     C_R   0.434457 0.176839 0.971794 0.860167
C23   C     C_R   0.029266 0.565780 0.822316 0.849300
C24   C     C_R   0.970558 0.434744 0.177248 0.880231
C25   C     C_R   0.823077 0.027718 0.565847 0.854168
C26   C     C_R   0.177210 0.970436 0.434639 0.851303
C27   C     C_R   0.463222 0.015078 0.721690 0.504715
C28   C     C_R   0.534932 0.986861 0.278286 0.525957
C29   C     C_R   0.014694 0.719612 0.465978 0.514591
C30   C     C_R   0.985277 0.282193 0.532381 0.515630
C31   C     C_R   0.712564 0.470079 0.018053 0.521554
C32   C     C_R   0.008480 0.674517 0.422379 0.618418
C33   C     C_R   0.278982 0.532781 0.987268 0.510737
C34   C     C_R   0.277563 0.988168 0.535020 0.504088
C35   C     C_R   0.721239 0.012994 0.464664 0.528138
C36   C     C_R   0.530351 0.281937 0.987848 0.515163
C37   C     C_R   0.464659 0.722094 0.012896 0.523839
C38   C     C_R   0.984839 0.533683 0.280445 0.521624
C39   C     C_R   0.015236 0.468222 0.717716 0.512698
C40   C     C_R   0.545513 0.011838 0.546177 -0.138695
C41   C     C_R   0.453316 0.988751 0.453945 -0.139626
C42   C     C_R   0.013012 0.546913 0.544821 -0.136059
C43   C     C_R   0.990380 0.327634 0.576333 0.615305
C44   C     C_R   0.987899 0.454618 0.453108 -0.136337
C45   C     C_R   0.545153 0.551016 0.005344 -0.144502
C46   C     C_R   0.452206 0.455681 0.986387 -0.140958
C47   C     C_R   0.587659 0.005602 0.457836 -0.096375
C48   C     C_R   0.410707 0.996288 0.541936 -0.091439
C49   C     C_R   0.006146 0.460249 0.585669 -0.096337
C50   C     C_R   0.993854 0.541608 0.412561 -0.099428
C51   C     C_R   0.457164 0.589830 0.003163 -0.091422
C52   C     C_R   0.537907 0.415106 0.994799 -0.097217
C53   C     C_R   0.541552 0.994841 0.411853 -0.095887
C54   C     C_R   0.668008 0.425446 0.012980 0.623263
C55   C     C_R   0.456714 0.007182 0.587948 -0.084896
C56   C     C_R   0.410949 0.542258 0.994144 -0.095255
C57   C     C_R   0.583809 0.462501 0.004096 -0.091658
C58   C     C_R   0.994258 0.414211 0.540010 -0.096303
C59   C     C_R   0.005778 0.587608 0.458243 -0.096509
C60   C     C_R   0.550839 0.025321 0.682938 -0.127821
C61   C     C_R   0.448442 0.973946 0.317484 -0.140105
C62   C     C_R   0.027920 0.682051 0.551020 -0.151550
C63   C     C_R   0.973524 0.319249 0.446796 -0.139429
C64   C     C_R   0.681161 0.558831 0.017086 -0.113612
C65   C     C_R   0.323035 0.576225 0.995340 0.614526
C66   C     C_R   0.317547 0.447578 0.972572 -0.141907
C67   C     C_R   0.317355 0.973873 0.448724 -0.131690
C68   C     C_R   0.682408 0.024330 0.551785 -0.140015
C69   C     C_R   0.446263 0.319122 0.973139 -0.148350
C70   C     C_R   0.554327 0.687740 0.014632 -0.142692
C71   C     C_R   0.972742 0.447889 0.318011 -0.157282
C72   C     C_R   0.028170 0.553639 0.680025 -0.141725
C73   C     C_R   0.598384 0.037486 0.727755 -0.093095
C74   C     C_R   0.401778 0.959934 0.272894 -0.093664
C75   C     C_R   0.040553 0.727825 0.597495 -0.089359
C76   C     C_R   0.322027 0.994640 0.578867 0.606158
C77   C     C_R   0.960679 0.273494 0.400513 -0.108677
C78   C     C_R   0.731183 0.606936 0.021163 -0.098498
C79   C     C_R   0.272563 0.399753 0.960215 -0.110047
C80   C     C_R   0.273306 0.959059 0.401969 -0.099628
C81   C     C_R   0.727407 0.036469 0.599142 -0.089853
C82   C     C_R   0.400341 0.272340 0.960918 -0.100244
C83   C     C_R   0.605077 0.734778 0.019579 -0.089636
C84   C     C_R   0.959068 0.401131 0.272916 -0.082448
C85   C     C_R   0.040761 0.600698 0.725668 -0.110554
C86   C     C_R   0.682316 0.051539 0.682966 -0.049787
C87   C     C_R   0.675927 0.008639 0.420470 0.616359
C88   C     C_R   0.319211 0.941544 0.318473 -0.046367
C89   C     C_R   0.056043 0.685378 0.680728 0.015614
C90   C     C_R   0.942623 0.317645 0.317569 0.006294
C91   C     C_R   0.694844 0.696729 0.017490 -0.033125
C92   C     C_R   0.316432 0.314590 0.946202 0.020925
C93   C     C_R   0.592435 0.022449 0.593139 -0.106614
C94   C     C_R   0.407004 0.976537 0.407325 -0.102860
C95   C     C_R   0.025371 0.593658 0.591365 -0.097504
C96   C     C_R   0.975968 0.407703 0.406464 -0.095803
C97   C     C_R   0.593844 0.599675 0.011911 -0.115829
C98   C     C_R   0.572510 0.326896 0.996278 0.619251
C99   C     C_R   0.405975 0.408000 0.974901 -0.097926
C100  C     C_3   0.726849 0.078959 0.726155 -0.263045
C101  C     C_3   0.789976 0.996387 0.779996 -0.233750
C102  C     C_3   0.825109 0.030298 0.824907 -0.680213
C103  C     C_3   0.277689 0.908373 0.275307 -0.253356
C104  C     C_3   0.218522 0.988119 0.213624 -0.235318
C105  C     C_3   0.133346 0.972790 0.220800 -0.663107
C106  C     C_3   0.064882 0.741831 0.728266 -0.354743
C107  C     C_3   0.147780 0.775035 0.700079 -0.365839
C108  C     C_3   0.132771 0.809048 0.778825 -0.675385
F1    F     F_    0.336082 0.010629 0.728134 -0.524868
F2    F     F_    0.335732 0.723120 0.017615 -0.501043
F3    F     F_    0.992273 0.658591 0.275103 -0.491717
F4    F     F_    0.002408 0.345115 0.724745 -0.502857
F5    F     F_    0.409718 0.003711 0.807029 -0.581375
F6    F     F_    0.587622 0.999371 0.193100 -0.544592
F7    F     F_    0.999990 0.803247 0.416008 -0.553628
F8    F     F_    0.996924 0.199296 0.583816 -0.552420
F9    F     F_    0.789296 0.414282 0.023572 -0.628857
F10   F     F_    0.194659 0.583609 0.002510 -0.553222
F11   F     F_    0.192210 0.002124 0.586683 -0.560292
F12   F     F_    0.660300 0.996744 0.270612 -0.493935
F13   F     F_    0.806127 0.001774 0.411808 -0.546207
F14   F     F_    0.580866 0.198635 0.001664 -0.551951
F15   F     F_    0.408127 0.802605 0.012920 -0.555656
F16   F     F_    0.997458 0.585590 0.196671 -0.543546
F17   F     F_    0.001009 0.417100 0.801720 -0.560881
F18   F     F_    0.000276 0.726890 0.343597 -0.495238
F19   F     F_    0.994085 0.276466 0.656864 -0.500835
F20   F     F_    0.715355 0.341785 0.020320 -0.524373
F21   F     F_    0.268765 0.652741 0.010460 -0.499063
F22   F     F_    0.267685 0.002393 0.660041 -0.509585
F23   F     F_    0.728728 0.005646 0.338207 -0.494143
F24   F     F_    0.648465 0.273168 0.011095 -0.497750
H1    H     H_    0.853498 0.087578 0.775624 0.278534
H2    H     H_    0.114509 0.017082 0.158093 0.203169
H3    H     H_    0.197545 0.048963 0.234496 0.191877
H4    H     H_    0.250406 0.007479 0.138118 0.213596
H5    H     H_    0.331676 0.861475 0.237690 0.184850
H6    H     H_    0.239650 0.860751 0.328496 0.183059
H7    H     H_    0.073374 0.868832 0.784228 0.248603
H8    H     H_    0.121024 0.756905 0.845550 0.253960
H9    H     H_    0.192973 0.826525 0.765249 0.294829
H10   H     H_    0.211151 0.719515 0.688845 0.204723
H11   H     H_    0.158700 0.833333 0.639168 0.268566
H12   H     H_    0.770941 0.050839 0.883141 0.268885
H13   H     H_    0.000046 0.796125 0.739928 0.204967
H14   H     H_    0.067016 0.713454 0.792128 0.260920
H15   H     H_    0.938717 0.219827 0.090331 0.194850
H16   H     H_    0.817846 0.275581 0.124707 0.342137
H17   H     H_    0.905458 0.340891 0.063210 0.319329
H18   H     H_    0.821970 0.364466 0.220839 0.224200
H19   H     H_    0.934732 0.269776 0.169716 0.267249
H20   H     H_    0.991725 0.211020 0.256138 0.214267
H21   H     H_    0.870604 0.236085 0.331542 0.248478
H22   H     H_    0.862560 0.851003 0.964137 0.245938
H23   H     H_    0.882311 0.976839 0.849622 0.215234
H24   H     H_    0.935901 0.741988 0.976367 0.290186
H25   H     H_    0.950226 0.820876 0.867917 0.194260
H26   H     H_    0.861617 0.709305 0.896284 0.222059
H27   H     H_    0.799738 0.817264 0.876691 0.166686
H28   H     H_    0.733954 0.804622 0.040097 0.208688
H29   H     H_    0.772246 0.715210 0.076081 0.190068
H30   H     H_    0.284599 0.084466 0.946731 0.258137
H31   H     H_    0.176576 0.162006 0.942220 0.190125
H32   H     H_    0.258920 0.119525 0.843733 0.309635
H33   H     H_    0.276350 0.270827 0.804922 0.197088
H34   H     H_    0.746144 0.955854 0.833978 0.214291
H35   H     H_    0.373862 0.193200 0.828720 0.221557
H36   H     H_    0.251315 0.209307 0.007627 0.186434
H37   H     H_    0.198800 0.279705 0.939503 0.235984
H38   H     H_    0.849625 0.943197 0.748309 0.197674
H39   H     H_    0.761963 0.128004 0.674954 0.183754
H40   H     H_    0.678248 0.125575 0.766416 0.188297
H41   H     H_    0.145085 0.902648 0.223943 0.286360
H42   H     H_    0.076044 0.991656 0.280300 0.278874
O1    O     O_R   0.982940 0.138950 0.510160 -0.507042
O2    O     O_R   0.982940 0.510160 0.138950 -0.514608
O3    O     O_R   0.861050 0.017060 0.489840 -0.520366
O4    O     O_R   0.138950 0.982940 0.510160 -0.534019
O5    O     O_R   0.867700 0.025880 0.612340 -0.651900
O6    O     O_R   0.132300 0.974120 0.387660 -0.656122
O7    O     O_R   0.025880 0.612340 0.867700 -0.685266
O8    O     O_R   0.974120 0.387660 0.132300 -0.676826
O9    O     O_R   0.612340 0.867700 0.025880 -0.667494
O10   O     O_R   0.387660 0.132300 0.974120 -0.665063
O11   O     O_R   0.387660 0.974120 0.132300 -0.666751
O12   O     O_R   0.017060 0.861050 0.489840 -0.524339
O13   O     O_R   0.612340 0.025880 0.867700 -0.667833
O14   O     O_R   0.132300 0.387660 0.974120 -0.680437
O15   O     O_R   0.867700 0.612340 0.025880 -0.649859
O16   O     O_R   0.974120 0.132300 0.387660 -0.677088
O17   O     O_R   0.025880 0.867700 0.612340 -0.670553
O18   O     O_R   0.138950 0.510160 0.982940 -0.514782
O19   O     O_R   0.861050 0.489840 0.017060 -0.552199
O20   O     O_R   0.510160 0.982940 0.138950 -0.517218
O21   O     O_R   0.489840 0.017060 0.861050 -0.533725
O22   O     O_R   0.489840 0.861050 0.017060 -0.522578
O23   O     O_R   0.510160 0.138950 0.982940 -0.517513
O24   O     O_R   0.017060 0.489840 0.861050 -0.515630
Zn1   Zn    Zn3+2 0.004880 0.004880 0.583590 1.098410
Zn2   Zn    Zn3+2 0.995120 0.995120 0.416410 1.098037
Zn3   Zn    Zn3+2 0.004880 0.583590 0.004880 1.100909
Zn4   Zn    Zn3+2 0.995120 0.416410 0.995120 1.034235
Zn5   Zn    Zn3+2 0.583590 0.004880 0.004880 1.114722
Zn6   Zn    Zn3+2 0.416410 0.995120 0.995120 1.068253

loop_
_geom_bond_atom_site_label_1
_geom_bond_atom_site_label_2
_ccdc_geom_bond_type
C40   C47   A    
C15   C75   S    
O4    Zn1   S    
C19   O21   A    
C101  C102  S    
O10   Zn6   S    
C104  H3    S    
O13   Zn5   S    
C100  H40   S    
C48   C76   A    
C22   O23   A    
C17   O19   A    
C39   F17   S    
C2    C37   A    
C40   C93   A    
C46   C99   A    
C72   C85   A    
C33   C65   A    
C7    C8    S    
C7    H26   S    
C30   F8    S    
C66   C79   A    
C23   O24   A    
C45   C57   A    
C3    H20   S    
C106  H13   S    
C84   C90   A    
C3    C90   S    
C5    H15   S    
C50   C59   A    
C22   C82   S    
O11   Zn6   S    
O17   Zn1   S    
C23   O7    A    
C13   F4    S    
C27   C60   A    
C103  H5    S    
C25   O3    A    
C18   O20   A    
C106  C107  S    
C45   C51   A    
C87   F23   S    
C6    C91   S    
C46   C52   A    
C60   C73   A    
C3    H21   S    
C82   C92   A    
C51   C56   A    
C14   C77   S    
C32   F18   S    
C17   C78   S    
C22   O10   A    
C69   C82   A    
C16   O18   A    
C43   C58   A    
C19   O13   A    
C37   F15   S    
C72   C95   A    
C35   C87   A    
C31   F9    S    
C30   C63   A    
C44   C58   A    
C10   H35   S    
C52   C98   A    
O3    Zn2   S    
C89   C106  S    
O24   Zn4   S    
C67   C94   A    
C107  C108  S    
O22   Zn6   S    
C8    H22   S    
C9    C10   S    
C76   F22   S    
C81   C86   A    
C70   C97   A    
C47   C53   A    
C1    F1    S    
C60   C93   A    
C29   F7    S    
C48   C55   A    
C33   F10   S    
C18   C74   S    
C5    H16   S    
C105  H41   S    
C37   C70   A    
C100  H39   S    
C25   C81   S    
O12   Zn2   S    
C102  H12   S    
C8    H25   S    
C31   C64   A    
C9    C92   S    
C11   H32   S    
C104  C105  S    
C33   C66   A    
C26   O4    A    
C15   O12   A    
C77   C90   A    
C74   C88   A    
C24   O8    A    
C42   C95   A    
C35   F13   S    
C10   C11   S    
C103  H6    S    
C43   F19   S    
C108  H8    S    
C85   C89   A    
C61   C94   A    
C71   C96   A    
O15   Zn3   S    
C54   F20   S    
C63   C96   A    
C11   H30   S    
C26   C80   S    
C49   C58   A    
C47   C87   A    
C66   C99   A    
C34   C67   A    
C36   F14   S    
C14   O1    A    
C44   C96   A    
C2    C51   A    
C12   C50   A    
C41   C94   A    
C6    H29   S    
C19   C73   S    
O18   Zn3   S    
C40   C55   A    
C41   C53   A    
C11   H31   S    
C101  H38   S    
C107  H10   S    
C70   C83   A    
O1    Zn1   S    
C79   C92   A    
C29   C62   A    
C39   C72   A    
C28   F6    S    
C20   O9    A    
C13   C49   A    
C69   C99   A    
C64   C97   A    
C21   C28   A    
C105  H42   S    
C16   O14   A    
C78   C91   A    
C30   C43   A    
C20   C83   S    
C68   C81   A    
C107  H11   S    
C3    C4    S    
C24   O2    A    
C12   C38   A    
C27   F5    S    
C88   C103  S    
C4    H18   S    
C36   C69   A    
C71   C84   A    
C63   C77   A    
C44   C50   A    
C34   F11   S    
C4    H19   S    
C15   O17   A    
C38   C71   A    
C2    F2    S    
C104  H4    S    
O8    Zn4   S    
C64   C78   A    
O2    Zn3   S    
C9    H36   S    
O7    Zn3   S    
C67   C80   A    
C4    C5    S    
C106  H14   S    
C42   C59   A    
O16   Zn2   S    
C108  H7    S    
C65   F21   S    
C25   O5    A    
C6    C7    S    
O21   Zn6   S    
C26   O6    A    
C61   C74   A    
C21   F12   S    
C83   C91   A    
C18   O11   A    
C68   C93   A    
C108  H9    S    
C16   C79   S    
C17   O15   A    
C1    C55   A    
C102  H1    S    
O9    Zn5   S    
C29   C32   A    
C80   C88   A    
C45   C97   A    
C28   C61   A    
C21   C53   A    
C86   C100  S    
C6    H28   S    
O5    Zn1   S    
C35   C68   A    
C10   H33   S    
C9    H37   S    
O20   Zn5   S    
C5    H17   S    
O14   Zn4   S    
C100  C101  S    
C41   C48   A    
O23   Zn5   S    
C31   C54   A    
C24   C84   S    
C101  H34   S    
C8    H24   S    
C73   C86   A    
C13   C39   A    
C52   C57   A    
O19   Zn4   S    
C42   C49   A    
C14   O16   A    
C7    H27   S    
C23   C85   S    
C75   C89   A    
C98   F24   S    
C103  C104  S    
C1    C27   A    
C36   C98   A    
O6    Zn2   S    
C32   C59   A    
C46   C56   A    
C62   C95   A    
C102  H23   S    
C20   O22   A    
C12   F3    S    
C38   F16   S    
C62   C75   A    
C56   C65   A    
C34   C76   A    
C105  H2    S    
C54   C57   A    
