data_mof_unit_29637.cif
_audit_creation_date              2012-12-10T18:50:02-0500
_audit_creation_method            fapswitch 2.2
_symmetry_space_group_name_H-M    P1
_symmetry_Int_Tables_number       1
_space_group_crystal_system       triclinic
_cell_length_a                    10.722775
_cell_length_b                    9.833329
_cell_length_c                    10.664217
_cell_angle_alpha                 89.758183
_cell_angle_beta                  90.226061
_cell_angle_gamma                 89.891376
_cell_volume                      1124.42034258

loop_
_atom_site_label
_atom_site_type_symbol
_atom_type_description
_atom_site_fract_x
_atom_site_fract_y
_atom_site_fract_z
_atom_type_partial_charge
C1    C     C_R   0.259674 0.500053 0.499841 0.976286
C2    C     C_3   0.610950 0.405667 0.928587 -0.391804
C3    C     C_R   0.061834 0.396847 0.566976 -0.035441
C4    C     C_R   0.060920 0.602608 0.432577 -0.010126
C5    C     C_R   0.933633 0.396508 0.562865 -0.213121
C6    C     C_R   0.932681 0.602694 0.436559 -0.197606
C7    C     C_R   0.870945 0.499683 0.499847 -0.060459
C8    C     C_R   0.126341 0.499946 0.499903 -0.182277
C9    C     C_R   0.575367 0.071464 0.580288 -0.050257
C10   C     C_R   0.575282 0.927478 0.580364 -0.058321
C11   C     C_R   0.424821 0.928718 0.419650 0.006568
C12   C     C_R   0.424492 0.072551 0.419877 -0.023814
C13   C     C_R   0.503166 0.500369 0.257632 0.861555
C14   C     C_R   0.739530 0.499886 0.499993 0.872954
C15   C     C_R   0.504614 0.500063 0.742224 0.869444
C16   C     C_3   0.537236 0.647744 0.070409 -0.173720
C17   C     C_3   0.372965 0.462343 0.069043 -0.217677
C18   C     C_3   0.531230 0.647587 0.926940 -0.443987
C19   C     C_3   0.378766 0.450411 0.925520 -0.410922
C20   C     C_3   0.604376 0.398120 0.072281 -0.344541
C21   C     C_3   0.505443 0.501154 0.120982 -0.028295
C22   C     C_3   0.506610 0.501016 0.878328 0.105921
H1    H     H_    0.365095 0.874924 0.355275 0.148866
H2    H     H_    0.363876 0.127515 0.356153 0.161222
H3    H     H_    0.463124 0.718818 0.103070 0.147351
H4    H     H_    0.309051 0.548181 0.089486 0.178737
H5    H     H_    0.454484 0.716703 0.895908 0.184092
H6    H     H_    0.301992 0.511601 0.882644 0.183227
H7    H     H_    0.618907 0.687996 0.885268 0.192272
H8    H     H_    0.365612 0.343124 0.895522 0.247125
H9    H     H_    0.697669 0.417907 0.113818 0.201340
H10   H     H_    0.580383 0.292739 0.100970 0.225596
H11   H     H_    0.703894 0.444502 0.899364 0.191174
H12   H     H_    0.600745 0.301349 0.889756 0.187513
H13   H     H_    0.881992 0.319197 0.613688 0.174050
H14   H     H_    0.880304 0.679596 0.385269 0.183232
H15   H     H_    0.635609 0.125684 0.644449 0.129772
H16   H     H_    0.635415 0.872430 0.644625 0.135088
N1    N     N_R   0.499970 0.857200 0.499970 -0.088989
N2    N     N_R   0.499970 0.142800 0.499970 -0.094466
O1    O     O_R   0.316750 0.614620 0.499990 -0.615140
O2    O     O_R   0.316750 0.385380 0.499990 -0.594604
O3    O     O_R   0.499970 0.614670 0.314790 -0.594815
O4    O     O_R   0.499970 0.385330 0.314790 -0.616553
O5    O     O_R   0.683220 0.614710 0.500010 -0.620123
O6    O     O_R   0.683220 0.385290 0.500010 -0.626690
O7    O     O_R   0.500010 0.614660 0.685200 -0.639091
O8    O     O_R   0.500010 0.385340 0.685200 -0.610691
Zn1   Zn    Zn3+2 0.499980 0.653120 0.500000 0.988621
Zn2   Zn    Zn3+2 0.499980 0.346880 0.500000 0.995722
C23   C     C_2   0.660344 0.705539 0.117403 0.930964
O9    O     O_2   0.759769 0.656007 0.084988 -0.640370
O10   O     O_R   0.659136 0.818613 0.196471 -0.787723
H17   H     H_    0.746025 0.848305 0.222138 0.350567
C24   C     C_2   0.313922 0.337107 0.127515 0.961797
O11   O     O_2   0.358000 0.224025 0.109838 -0.646838
O12   O     O_R   0.207610 0.352033 0.201713 -0.780442
H18   H     H_    0.176720 0.262244 0.236698 0.345296
C25   C     C_2   0.122353 0.291073 0.646397 0.931681
O13   O     O_2   0.209049 0.320653 0.715569 -0.659413
O14   O     O_R   0.076113 0.158181 0.645822 -0.790591
H19   H     H_    0.124028 0.095514 0.704485 0.350049
C26   C     C_2   0.120868 0.706116 0.351061 0.944611
O15   O     O_2   0.082341 0.823316 0.350535 -0.629852
O16   O     O_R   0.216866 0.668444 0.270370 -0.805280
H20   H     H_    0.244558 0.746023 0.214191 0.321347

loop_
_geom_bond_atom_site_label_1
_geom_bond_atom_site_label_2
_ccdc_geom_bond_type
C10   H16   S    
C2    C22   S    
C9    H15   S    
C11   C12   A    
C26   O16   S    
C24   O12   S    
C6    C7    A    
C16   H3    S    
C15   O7    A    
C1    C8    S    
C9    C10   A    
C12   H2    S    
C16   C23   S    
O5    Zn1   S    
C4    C8    A    
C16   C18   S    
C2    H12   S    
C24   O11   D    
O8    Zn2   S    
C13   C21   S    
C25   O13   D    
C14   O6    A    
C18   H7    S    
O10   H17   S    
C13   O4    A    
C11   N1    A    
C19   H6    S    
C4    C26   S    
O12   H18   S    
C16   C21   S    
C15   O8    A    
O2    Zn2   S    
N2    Zn2   S    
C17   H4    S    
C5    H13   S    
C2    H11   S    
C1    O1    A    
C17   C19   S    
C6    H14   S    
O6    Zn2   S    
C3    C8    A    
C14   O5    A    
C9    N2    A    
C20   H10   S    
O14   H19   S    
C25   O14   S    
C4    C6    A    
C2    C20   S    
C23   O9    D    
C3    C5    A    
C1    O2    A    
C13   O3    A    
C19   C22   S    
C20   C21   S    
O7    Zn1   S    
O16   H20   S    
C15   C22   S    
O1    Zn1   S    
C11   H1    S    
C5    C7    A    
C17   C24   S    
O3    Zn1   S    
O4    Zn2   S    
C12   N2    A    
N1    Zn1   S    
C18   C22   S    
C19   H8    S    
C7    C14   S    
C17   C21   S    
C18   H5    S    
C26   O15   D    
C10   N1    A    
C23   O10   S    
C20   H9    S    
C3    C25   S    
