data_mof_unit_17193.cif
_audit_creation_date              2012-12-10T18:54:24-0500
_audit_creation_method            fapswitch 2.2
_symmetry_space_group_name_H-M    P1
_symmetry_Int_Tables_number       1
_space_group_crystal_system       triclinic
_cell_length_a                    10.630946
_cell_length_b                    9.839368
_cell_length_c                    23.425589
_cell_angle_alpha                 89.991397
_cell_angle_beta                  90.009687
_cell_angle_gamma                 90.439675
_cell_volume                      2450.28632969

loop_
_atom_site_label
_atom_site_type_symbol
_atom_type_description
_atom_site_fract_x
_atom_site_fract_y
_atom_site_fract_z
_atom_type_partial_charge
C1    C     C_R   0.260577 0.499397 0.499959 0.824957
C2    C     C_R   0.739422 0.500603 0.500042 0.824963
C3    C     C_R   0.506985 0.376833 0.237900 -0.076740
C4    C     C_R   0.511371 0.377373 0.762162 -0.082136
C5    C     C_R   0.507205 0.376721 0.297135 -0.185891
C6    C     C_R   0.510935 0.377065 0.702922 -0.183121
C7    C     C_R   0.498694 0.499914 0.327072 -0.048368
C8    C     C_R   0.501307 0.500087 0.672928 -0.048439
C9    C     C_R   0.489484 0.622977 0.297076 -0.183233
C10   C     C_R   0.492375 0.623241 0.702865 -0.186014
C11   C     C_R   0.489044 0.622668 0.237836 -0.082235
C12   C     C_R   0.492594 0.623129 0.762099 -0.076688
C13   C     C_R   0.497987 0.499712 0.208373 0.308624
C14   C     C_R   0.502008 0.500288 0.791628 0.308423
C15   C     C_R   0.065309 0.473927 0.448171 -0.041242
C16   C     C_R   0.934690 0.526066 0.551832 -0.041242
C17   C     C_R   0.934201 0.474023 0.448223 -0.046602
C18   C     C_R   0.065799 0.525962 0.551782 -0.046572
C19   C     C_R   0.872028 0.502597 0.499814 -0.206886
C20   C     C_R   0.127972 0.497403 0.500189 -0.206882
C21   C     C_R   0.574541 0.072549 0.537044 -0.052689
C22   C     C_R   0.425458 0.927451 0.462956 -0.052721
C23   C     C_R   0.425451 0.071369 0.462958 -0.057893
C24   C     C_R   0.574549 0.928631 0.537042 -0.057912
C25   C     C_R   0.499440 0.499997 0.389289 0.845356
C26   C     C_R   0.500562 0.500003 0.610711 0.845359
C27   C     C_R   0.611374 0.476256 0.880736 0.509813
C28   C     C_R   0.388623 0.523755 0.119270 0.509830
C29   C     C_R   0.391035 0.524252 0.880286 0.508696
C30   C     C_R   0.608955 0.475726 0.119719 0.508715
C31   C     C_R   0.388063 0.524765 0.939875 -0.018942
C32   C     C_R   0.611929 0.475222 0.060131 -0.018958
C33   C     C_R   0.500302 0.500069 0.970019 -0.019039
C34   C     C_R   0.499691 0.499924 0.029987 -0.019038
C35   C     C_R   0.613150 0.475509 0.940338 -0.019746
C36   C     C_R   0.386844 0.524490 0.059668 -0.019763
C37   C     C_R   0.276104 0.548975 0.969829 -0.149883
C38   C     C_R   0.723888 0.451012 0.030177 -0.149889
C39   C     C_R   0.275500 0.548841 0.029249 -0.150603
C40   C     C_R   0.724493 0.451157 0.970757 -0.150598
H1    H     H_    0.188760 0.568063 0.947509 0.198001
H2    H     H_    0.811231 0.431920 0.052497 0.197997
H3    H     H_    0.187709 0.567833 0.051204 0.197515
H4    H     H_    0.812285 0.432168 0.948802 0.197518
H5    H     H_    0.513736 0.281782 0.214840 0.143548
H6    H     H_    0.518502 0.282405 0.785270 0.143146
H7    H     H_    0.514427 0.280570 0.319364 0.167128
H8    H     H_    0.518241 0.280882 0.680733 0.163401
H9    H     H_    0.482520 0.719191 0.319264 0.163437
H10   H     H_    0.484810 0.719360 0.680636 0.167228
H11   H     H_    0.482236 0.717660 0.214724 0.143051
H12   H     H_    0.485516 0.718155 0.785156 0.143672
H13   H     H_    0.634133 0.127579 0.566655 0.138457
H14   H     H_    0.365866 0.872421 0.433345 0.138492
H15   H     H_    0.365843 0.125463 0.433359 0.131050
H16   H     H_    0.634156 0.874537 0.566642 0.131078
N1    N     N_R   0.501486 0.500308 0.852313 -0.363751
N2    N     N_R   0.498507 0.499689 0.147690 -0.363791
N3    N     N_R   0.500000 0.857200 0.500000 -0.084347
N4    N     N_R   0.500000 0.142800 0.500000 -0.084335
O1    O     O_R   0.316770 0.614620 0.500000 -0.603699
O2    O     O_R   0.683230 0.385380 0.500000 -0.603679
O3    O     O_R   0.683230 0.614620 0.500000 -0.620022
O4    O     O_R   0.316770 0.385380 0.500000 -0.620017
O5    O     O_R   0.499970 0.614690 0.416160 -0.620027
O6    O     O_R   0.500030 0.385310 0.583840 -0.620018
O7    O     O_R   0.500030 0.614690 0.583840 -0.627474
O8    O     O_R   0.499970 0.385310 0.416160 -0.627460
O9    O     O_2   0.718347 0.453957 0.851261 -0.523050
O10   O     O_2   0.281659 0.546089 0.148747 -0.523000
O11   O     O_2   0.284636 0.546636 0.850377 -0.524899
O12   O     O_2   0.715345 0.453310 0.149631 -0.524851
Zn1   Zn    Zn3+2 0.500000 0.653120 0.500000 0.963552
Zn2   Zn    Zn3+2 0.500000 0.346880 0.500000 0.963583
C41   C     C_2   0.138673 0.457881 0.394217 0.483823
H17   H     H_    0.226812 0.403122 0.394294 0.044989
O13   O     O_2   0.104163 0.510857 0.349814 -0.510849
C42   C     C_2   0.861321 0.542089 0.605785 0.483876
H18   H     H_    0.773209 0.596898 0.605714 0.044997
O14   O     O_2   0.895791 0.489035 0.650180 -0.510823
C43   C     C_2   0.860203 0.440520 0.395827 0.537314
H19   H     H_    0.772264 0.491890 0.387363 0.027936
O15   O     O_2   0.893926 0.351334 0.363112 -0.519291
C44   C     C_2   0.139800 0.559424 0.604183 0.537165
H20   H     H_    0.227784 0.508117 0.612618 0.027957
O16   O     O_2   0.106029 0.648510 0.636935 -0.519301

loop_
_geom_bond_atom_site_label_1
_geom_bond_atom_site_label_2
_ccdc_geom_bond_type
C15   C41   S    
C8    C10   A    
C8    C26   S    
C43   H19   S    
C22   H14   S    
C4    H6    S    
C5    H7    S    
C6    H8    S    
C26   O7    A    
C44   O16   D    
C38   H2    S    
C16   C19   A    
C33   C35   A    
C42   O14   D    
O8    Zn2   S    
O6    Zn2   S    
O5    Zn1   S    
C7    C9    A    
C12   H12   S    
C18   C44   S    
C31   C33   A    
O7    Zn1   S    
C32   C38   A    
C30   C32   A    
C17   C43   S    
N3    Zn1   S    
C18   C20   A    
C27   O9    S    
C4    C14   A    
C23   N4    A    
C25   O8    A    
C43   O15   D    
C15   C20   A    
C26   O6    A    
C9    H9    S    
C44   H20   S    
C21   N4    A    
C4    C6    A    
C27   N1    A    
C22   N3    A    
C5    C7    A    
C42   H18   S    
C39   H3    S    
C13   N2    S    
O3    Zn1   S    
C27   C35   A    
C3    H5    S    
C31   C37   A    
C32   C34   A    
C3    C13   A    
C41   H17   S    
C21   H13   S    
C41   O13   D    
C30   O12   S    
C33   C34   A    
C25   O5    A    
C9    C11   A    
C10   C12   A    
C16   C18   A    
C12   C14   A    
C10   H10   S    
C1    O4    A    
C2    O3    A    
C16   C42   S    
C15   C17   A    
C14   N1    S    
C1    C20   S    
C2    C19   S    
C36   C39   A    
C28   O10   S    
C29   N1    A    
C3    C5    A    
C1    O1    A    
C6    C8    A    
C23   H15   S    
C28   N2    A    
C24   H16   S    
C7    C25   S    
O1    Zn1   S    
C35   C40   A    
C29   C31   A    
C38   C40   A    
C11   C13   A    
C24   N3    A    
C30   N2    A    
N4    Zn2   S    
C17   C19   A    
C34   C36   A    
C37   H1    S    
C11   H11   S    
C40   H4    S    
C28   C36   A    
C37   C39   A    
C21   C24   A    
O4    Zn2   S    
C22   C23   A    
O2    Zn2   S    
C2    O2    A    
C29   O11   S    
