data_mof_unit_45880.cif
_audit_creation_date              2012-12-11T17:37:42-0500
_audit_creation_method            fapswitch 2.2
_symmetry_space_group_name_H-M    P1
_symmetry_Int_Tables_number       1
_space_group_crystal_system       triclinic
_cell_length_a                    13.014673
_cell_length_b                    13.059127
_cell_length_c                    15.572654
_cell_angle_alpha                 116.956527
_cell_angle_beta                  62.778659
_cell_angle_gamma                 98.242395
_cell_volume                      2091.0304841

loop_
_atom_site_label
_atom_site_type_symbol
_atom_type_description
_atom_site_fract_x
_atom_site_fract_y
_atom_site_fract_z
_atom_type_partial_charge
C1    C     C_R   0.077624 0.814555 0.981244 -0.130788
C2    C     C_R   0.711567 0.420754 0.301216 -0.123462
C3    C     C_R   0.638421 0.569292 0.025034 -0.096368
C4    C     C_R   0.951604 0.830904 0.316986 0.039155
C5    C     C_R   0.321745 0.583751 0.009532 -0.141003
C6    C     C_R   0.910593 0.194597 0.791766 -0.138188
C7    C     C_R   0.218792 0.425557 0.691883 -0.087060
C8    C     C_R   0.083164 0.250678 0.057489 -0.139833
C9    C     C_R   0.981179 0.165714 0.964177 -0.154074
C10   C     C_R   0.322375 0.524242 0.780467 -0.139499
C11   C     C_R   0.243615 0.489191 0.109667 -0.132582
C12   C     C_R   0.710324 0.392201 0.204427 0.678271
C13   C     C_R   0.983839 0.297757 0.699680 -0.165388
C14   C     C_R   0.335355 0.553192 0.076213 0.154336
C15   C     C_R   0.935411 0.195815 0.696436 0.059306
C16   C     C_R   0.330555 0.445148 0.680262 0.041488
C17   C     C_R   0.057320 0.143676 0.995493 0.158225
C18   C     C_R   0.316539 0.924870 0.180544 -0.194313
C19   C     C_R   0.218353 0.940185 0.276236 -0.122643
C20   C     C_R   0.121202 0.010790 0.312743 0.045045
C21   C     C_R   0.124713 0.068605 0.254559 -0.371987
C22   C     C_R   0.221606 0.050220 0.157271 0.748006
C23   C     C_R   0.743270 0.585073 0.953152 0.680678
C24   C     C_R   0.317723 0.979194 0.120742 -0.255402
C25   C     C_R   0.005912 0.106244 0.505327 -0.264424
C26   C     C_R   0.923472 0.108026 0.603302 0.064773
C27   C     C_R   0.842364 0.023670 0.605305 0.025175
C28   C     C_R   0.842678 0.943984 0.508791 -0.272828
C29   C     C_R   0.931512 0.937428 0.411524 0.067186
C30   C     C_R   0.014130 0.020265 0.409637 0.080368
C31   C     C_R   0.824054 0.928253 0.717250 -0.215624
C32   C     C_R   0.756726 0.889964 0.795425 -0.106872
C33   C     C_R   0.637150 0.918081 0.852482 -0.041328
C34   C     C_R   0.943800 0.722331 0.314029 -0.133293
C35   C     C_R   0.584925 0.985091 0.831831 -0.137621
C36   C     C_R   0.652451 0.026046 0.755446 -0.166236
C37   C     C_R   0.772698 0.998697 0.698409 0.135246
C38   C     C_R   0.963042 0.365222 0.360763 -0.197892
C39   C     C_R   0.849366 0.331518 0.392193 0.057073
C40   C     C_R   0.756535 0.415211 0.474643 0.059525
C41   C     C_R   0.779421 0.525147 0.537493 -0.164525
C42   C     C_R   0.893114 0.557410 0.506372 -0.161680
C43   C     C_R   0.984037 0.478984 0.415038 -0.124764
C44   C     C_R   0.543888 0.408413 0.568712 -0.262848
C45   C     C_R   0.659782 0.486439 0.049665 -0.131138
C46   C     C_R   0.433018 0.412334 0.576083 0.082172
C47   C     C_R   0.421163 0.397430 0.485194 -0.013841
C48   C     C_R   0.517661 0.372583 0.389317 -0.204028
C49   C     C_R   0.626814 0.389185 0.386417 0.121467
C50   C     C_R   0.641655 0.400575 0.475293 0.046156
C51   C     C_R   0.245179 0.354569 0.453388 -0.204994
C52   C     C_R   0.130163 0.388174 0.489408 -0.160168
C53   C     C_R   0.085198 0.501657 0.564965 -0.100437
C54   C     C_R   0.158135 0.585154 0.593723 -0.130840
C55   C     C_R   0.273289 0.552562 0.557476 -0.130953
C56   C     C_R   0.014342 0.818346 0.213693 -0.113900
C57   C     C_R   0.314332 0.435603 0.493837 0.111029
C58   C     C_2   0.427382 0.592168 0.107802 -0.251999
C59   C     C_2   0.530312 0.597341 0.032683 -0.122778
C60   C     C_2   0.099132 0.883061 0.843997 -0.243334
C61   C     C_2   0.206644 0.916495 0.821888 -0.121976
C62   C     C_R   0.800632 0.491008 0.303607 -0.271895
C63   C     C_R   0.975888 0.732038 0.889040 -0.057597
C64   C     C_R   0.042892 0.822737 0.912482 0.094986
H1    H     H_    0.146649 0.859153 0.000095 0.125862
H2    H     H_    0.859766 0.137170 0.824374 0.127569
H3    H     H_    0.193274 0.360515 0.633715 0.125034
H4    H     H_    0.138400 0.266720 0.096338 0.163915
H5    H     H_    0.941529 0.101830 0.917204 0.113539
H6    H     H_    0.392790 0.558866 0.801138 0.101243
H7    H     H_    0.220207 0.465162 0.173877 0.099907
H8    H     H_    0.995363 0.335975 0.647840 0.120761
H9    H     H_    0.392459 0.965268 0.045527 0.130226
H10   H     H_    0.390802 0.869279 0.151761 0.154879
H11   H     H_    0.216836 0.895308 0.320626 0.124527
H12   H     H_    0.049700 0.121510 0.281245 0.158378
H13   H     H_    0.074186 0.164659 0.501796 0.133861
H14   H     H_    0.781878 0.877731 0.508957 0.137300
H15   H     H_    0.916130 0.902580 0.670789 0.115753
H16   H     H_    0.796907 0.836566 0.810180 0.143429
H17   H     H_    0.584976 0.886072 0.911222 0.107353
H18   H     H_    0.491815 0.003051 0.873283 0.119040
H19   H     H_    0.610887 0.075758 0.738395 0.114482
H20   H     H_    0.071471 0.505450 0.388285 0.125665
H21   H     H_    0.035119 0.304422 0.293362 0.132625
H22   H     H_    0.708977 0.589964 0.601768 0.132427
H23   H     H_    0.910155 0.644677 0.549906 0.124629
H24   H     H_    0.554037 0.420082 0.637835 0.133744
H25   H     H_    0.504395 0.362610 0.322766 0.192851
H26   H     H_    0.276763 0.264625 0.402368 0.139476
H27   H     H_    0.073969 0.324785 0.464178 0.134584
H28   H     H_    0.993610 0.524962 0.602169 0.140719
H29   H     H_    0.124137 0.673763 0.648300 0.110827
H30   H     H_    0.903837 0.700825 0.381030 0.106336
H31   H     H_    0.327190 0.616154 0.586899 0.116490
H32   H     H_    0.414443 0.603314 0.184774 0.155720
H33   H     H_    0.538064 0.596119 0.959709 0.158853
H34   H     H_    0.054832 0.893705 0.803723 0.129330
H35   H     H_    0.258165 0.904669 0.855683 0.147551
H36   H     H_    0.030703 0.883243 0.185647 0.128352
H37   H     H_    0.832496 0.526740 0.361868 0.180193
H38   H     H_    0.955517 0.700751 0.821806 0.146151
H39   H     H_    0.364856 0.649506 0.984368 0.096010
N1    N     N_R   0.037320 0.720000 0.995830 -0.061625
N2    N     N_R   0.946240 0.290870 0.848020 -0.036981
N3    N     N_R   0.146160 0.501170 0.788610 -0.044119
N4    N     N_R   0.025750 0.332680 0.063570 -0.055712
N5    N     N_R   0.962680 0.280000 0.004170 -0.036726
N6    N     N_R   0.209230 0.553860 0.848010 -0.042605
N7    N     N_R   0.175100 0.482030 0.063570 -0.043044
N8    N     N_R   0.996810 0.351820 0.788610 -0.044752
N9    N     N_R   0.790770 0.446140 0.151990 -0.101269
N10   N     N_R   0.824900 0.517970 0.936430 -0.114107
N11   N     N_R   0.003190 0.648180 0.211390 -0.036709
N12   N     N_R   0.774330 0.457010 0.995830 -0.092127
N13   N     N_R   0.053760 0.709130 0.151980 -0.043222
N14   N     N_R   0.853840 0.498830 0.211390 -0.070070
N15   N     N_R   0.974250 0.667320 0.936430 -0.054783
N16   N     N_R   0.225670 0.542990 0.004170 -0.041899
Ni1   Ni    Ni4+2 0.130310 0.630310 0.000000 0.202726
Ni2   Ni    Ni4+2 0.869690 0.369690 0.000000 0.253174
Ni3   Ni    Ni4+2 0.985660 0.509480 0.863750 0.226351
Ni4   Ni    Ni4+2 0.014340 0.490520 0.136250 0.202727
F1    F     F_    0.668531 0.294444 0.152910 -0.727690
F2    F     F_    0.220693 0.097721 0.096296 -0.778007
F3    F     F_    0.759188 0.644111 0.896070 -0.755575
C65   C     C_R   0.827335 0.210621 0.336605 0.070297
C66   C     C_R   0.843042 0.165230 0.230546 -0.108057
C67   C     C_R   0.822809 0.050605 0.177852 -0.058081
C68   C     C_R   0.784809 0.981159 0.231703 -0.105886
C69   C     C_R   0.765906 0.026784 0.338583 -0.110864
C70   C     C_R   0.787405 0.141107 0.390981 -0.141408
H40   H     H_    0.868100 0.219724 0.190148 0.136668
H41   H     H_    0.835572 0.015975 0.095690 0.124686
H42   H     H_    0.769058 0.892409 0.190977 0.119486
H43   H     H_    0.734838 0.973416 0.380702 0.120217
H44   H     H_    0.773535 0.175226 0.473483 0.121799
C71   C     C_R   0.571505 0.418433 0.095974 0.280512
C72   C     C_R   0.496862 0.468712 0.206502 -0.182834
C73   C     C_R   0.392618 0.421523 0.246415 -0.194555
C74   C     C_R   0.367748 0.317674 0.178937 -0.061191
C75   C     C_R   0.445687 0.262742 0.070002 -0.064125
C76   C     C_R   0.546921 0.313545 0.027969 -0.076243
H45   H     H_    0.513873 0.550532 0.259703 0.098085
H46   H     H_    0.329974 0.467577 0.329044 0.148485
H47   H     H_    0.286822 0.281770 0.210943 0.143117
H48   H     H_    0.424831 0.183797 0.017502 0.143699
H49   H     H_    0.602851 0.274391 0.942197 0.095384

loop_
_geom_bond_atom_site_label_1
_geom_bond_atom_site_label_2
_ccdc_geom_bond_type
C5    H39   S    
N12   Ni2   S    
C41   C42   A    
C3    C23   A    
C35   C36   A    
N4    Ni4   S    
N5    Ni2   S    
C2    C12   A    
C66   C67   A    
C20   C30   S    
C53   C54   A    
C9    N5    A    
C41   H22   S    
C21   H12   S    
C28   C29   A    
C26   C27   A    
C5    N16   A    
C25   H13   S    
C27   C28   A    
C36   C37   A    
C9    H5    S    
C60   H34   S    
C71   C76   A    
C51   H26   S    
C38   C39   A    
C11   C14   A    
C11   H7    S    
C24   H9    S    
C32   H16   S    
C36   H19   S    
C10   N6    A    
C18   C19   A    
N15   Ni3   S    
C58   H32   S    
C65   C70   A    
C54   H29   S    
C6    C15   A    
C54   C55   A    
C8    N4    A    
N10   Ni3   S    
C47   C48   A    
C62   N14   A    
C1    H1    S    
N4    N5    A    
C51   C57   A    
C28   H14   S    
C4    C29   S    
C62   H37   S    
N2    N8    A    
C18   H10   S    
C21   C22   A    
C4    C56   A    
N8    Ni3   S    
C43   H20   S    
C61   H35   S    
N1    Ni1   S    
C63   H38   S    
C35   H18   S    
C44   C46   A    
N1    N15   A    
C76   H49   S    
C14   C58   S    
C4    C34   A    
C39   C65   S    
C38   H21   S    
C51   C52   A    
C73   C74   A    
C55   H31   S    
C69   H43   S    
C16   C46   S    
C39   C40   A    
C63   N15   A    
C15   C26   S    
C25   C26   A    
C3    C45   A    
C38   C43   A    
N13   Ni1   S    
C60   C61   D    
N7    N16   A    
C29   C30   A    
C2    C49   S    
N7    Ni4   S    
C23   N10   A    
C72   H45   S    
C45   N12   A    
C31   C32   A    
C12   F1    S    
C72   C73   A    
N3    Ni3   S    
C53   H28   S    
C56   N13   A    
C7    N3    A    
N2    Ni2   S    
C1    N1    A    
C5    C14   A    
C74   H47   S    
C23   F3    S    
N11   Ni4   S    
C10   H6    S    
C9    C17   A    
C40   C41   A    
C68   H42   S    
C8    H4    S    
C48   H25   S    
C55   C57   A    
C59   H33   S    
C18   C24   A    
C58   C59   D    
C42   C43   A    
C56   H36   S    
C65   C66   A    
C1    C64   A    
C12   N9    A    
C52   C53   A    
C67   C68   A    
C44   C50   A    
C25   C30   A    
C46   C47   A    
C48   C49   A    
C75   H48   S    
C7    C16   A    
C34   H30   S    
C63   C64   A    
C22   F2    S    
C73   H46   S    
N11   N13   A    
N16   Ni1   S    
C31   H15   S    
C13   H8    S    
C34   N11   A    
C8    C17   A    
C60   C64   S    
C32   C33   A    
C19   C20   A    
C13   C15   A    
C68   C69   A    
C70   H44   S    
N9    Ni2   S    
C13   N8    A    
C10   C16   A    
C74   C75   A    
N9    N14   A    
C27   C37   S    
C40   C50   S    
C19   H11   S    
C45   C71   S    
C33   C35   A    
C6    N2    A    
C22   C24   A    
N14   Ni4   S    
C69   C70   A    
C44   H24   S    
C71   C72   A    
C7    H3    S    
C67   H41   S    
C31   C37   A    
C6    H2    S    
C20   C21   A    
C49   C50   A    
C47   C57   S    
C75   C76   A    
C52   H27   S    
C42   H23   S    
N10   N12   A    
C66   H40   S    
C33   H17   S    
C2    C62   A    
N6    Ni1   S    
C11   N7    A    
N3    N6    A    
C3    C59   S    
