data_mof_unit_48145.cif
_audit_creation_date              2012-10-26T21:00:42-0400
_audit_creation_method            fapswitch 2.2
_symmetry_space_group_name_H-M    P1
_symmetry_Int_Tables_number       1
_space_group_crystal_system       triclinic
_cell_length_a                    10.826528
_cell_length_b                    9.500777
_cell_length_c                    10.78648
_cell_angle_alpha                 87.961088
_cell_angle_beta                  90.015555
_cell_angle_gamma                 89.981704
_cell_volume                      1108.79941932

loop_
_atom_site_label
_atom_site_type_symbol
_atom_type_description
_atom_site_fract_x
_atom_site_fract_y
_atom_site_fract_z
_atom_type_partial_charge
Br1   Br    Br    0.678801 0.251362 0.158812 -0.503828
Br2   Br    Br    0.655279 0.238024 0.857272 -0.498857
C1    C     C_R   0.262009 0.499981 0.498743 0.532703
C2    C     C_R   0.497574 0.497123 0.738870 0.565808
C3    C     C_R   0.506830 0.773625 0.092987 0.047407
C4    C     C_R   0.353242 0.697454 0.895189 0.054784
C5    C     C_R   0.426159 0.872174 0.036417 -0.110982
C6    C     C_R   0.344403 0.831712 0.944654 -0.101167
C7    C     C_R   0.447880 0.604802 0.940325 -0.013863
C8    C     C_R   0.499464 0.630996 0.056477 -0.006345
C9    C     C_R   0.538990 0.512119 0.128626 -0.038521
C10   C     C_R   0.497199 0.490581 0.874942 -0.036716
C11   C     C_R   0.583169 0.393456 0.068385 0.154320
C12   C     C_R   0.737987 0.499954 0.500074 0.564043
C13   C     C_R   0.569459 0.386805 0.939722 0.158177
C14   C     C_R   0.063871 0.372143 0.498122 -0.131924
C15   C     C_R   0.936140 0.372127 0.498530 -0.111724
C16   C     C_R   0.871783 0.499987 0.499978 0.029338
C17   C     C_R   0.128194 0.500006 0.499225 0.016248
C18   C     C_3   0.613897 0.832183 0.167565 -0.249576
C19   C     C_3   0.736853 0.755581 0.150699 -0.406654
C20   C     C_3   0.248144 0.648809 0.814157 -0.273927
C21   C     C_3   0.170288 0.536470 0.881913 -0.436226
C22   C     C_R   0.936099 0.627865 0.501276 -0.142368
C23   C     C_R   0.063844 0.627863 0.501031 -0.145904
C24   C     C_R   0.410417 0.076959 0.438444 0.023340
C25   C     C_R   0.590330 0.071866 0.560228 0.046392
C26   C     C_R   0.410406 0.928056 0.438445 -0.008236
C27   C     C_R   0.589920 0.923022 0.560945 0.022529
C28   C     C_R   0.515557 0.503267 0.262876 0.576064
Cu1   Cu    Cu3+1 0.500000 0.640660 0.500000 0.921216
Cu2   Cu    Cu3+1 0.500000 0.359340 0.500000 1.001691
H1    H     H_    0.425709 0.980633 0.064312 0.137125
H2    H     H_    0.661819 0.864967 0.610063 0.123863
H3    H     H_    0.754910 0.739375 0.050829 0.168119
H4    H     H_    0.813019 0.820002 0.187944 0.149306
H5    H     H_    0.737668 0.652821 0.202665 0.165544
H6    H     H_    0.630321 0.943127 0.135871 0.195783
H7    H     H_    0.591123 0.837548 0.267046 0.187929
H8    H     H_    0.226512 0.440926 0.903585 0.158226
H9    H     H_    0.132960 0.577700 0.969431 0.165332
H10   H     H_    0.091780 0.506428 0.822039 0.159864
H11   H     H_    0.186491 0.738381 0.787139 0.135297
H12   H     H_    0.275762 0.906480 0.910550 0.115102
H13   H     H_    0.281429 0.606371 0.727226 0.182290
H14   H     H_    0.111957 0.272199 0.496820 0.126674
H15   H     H_    0.888079 0.272177 0.497549 0.141681
H16   H     H_    0.887998 0.727811 0.502474 0.126474
H17   H     H_    0.111924 0.727784 0.502243 0.125216
H18   H     H_    0.338966 0.135051 0.388680 0.113294
H19   H     H_    0.663390 0.125759 0.607436 0.153518
H20   H     H_    0.339144 0.873975 0.388456 0.113836
N1    N     N_R   0.500000 0.852070 0.500000 -0.241168
N2    N     N_R   0.500000 0.147940 0.500000 -0.216173
O1    O     O_R   0.319640 0.618740 0.499990 -0.525315
O2    O     O_R   0.680360 0.618740 0.500010 -0.525175
O3    O     O_R   0.319620 0.381170 0.499990 -0.516486
O4    O     O_R   0.680380 0.381170 0.500010 -0.488527
O5    O     O_R   0.500000 0.618810 0.319650 -0.515050
O6    O     O_R   0.500000 0.618810 0.680350 -0.501009
O7    O     O_R   0.499970 0.381240 0.319640 -0.456890
O8    O     O_R   0.500030 0.381240 0.680360 -0.455921

loop_
_geom_bond_atom_site_label_1
_geom_bond_atom_site_label_2
_ccdc_geom_bond_type
Cu1   O6    S    
C12   O2    A    
C26   N1    A    
C1    C17   S    
C5    C6    A    
C19   H3    S    
C2    O8    A    
Cu1   O2    S    
C25   C27   A    
C18   H6    S    
C7    C8    A    
C12   C16   S    
C24   C26   A    
C20   H11   S    
C21   H9    S    
C10   C13   A    
Cu2   O4    S    
C28   O5    A    
C2    O6    A    
C4    C7    A    
C24   H18   S    
C15   C16   A    
C25   N2    A    
Cu2   O8    S    
C3    C8    A    
C19   H4    S    
Cu1   N1    S    
Br2   C13   S    
C26   H20   S    
C6    H12   S    
C21   H10   S    
C27   N1    A    
Cu2   O3    S    
C14   C17   A    
C17   C23   A    
C24   N2    A    
Cu2   N2    S    
C25   H19   S    
Cu2   O7    S    
C11   C13   A    
C12   O4    A    
C7    C10   A    
C23   H17   S    
C2    C10   S    
C8    C9    A    
C5    H1    S    
Cu1   O5    S    
C21   H8    S    
C4    C20   S    
C1    O3    A    
C16   C22   A    
C9    C11   A    
C20   H13   S    
Br1   C11   S    
C22   C23   A    
C19   H5    S    
C3    C5    A    
C28   O7    A    
C14   H14   S    
C3    C18   S    
C18   H7    S    
C20   C21   S    
C4    C6    A    
Cu1   O1    S    
C18   C19   S    
C1    O1    A    
C27   H2    S    
Cu1   Cu2   S    
C15   H15   S    
C9    C28   S    
C14   C15   A    
C22   H16   S    
