data_mof_unit_13550.cif
_audit_creation_date              2012-12-11T17:14:57-0500
_audit_creation_method            fapswitch 2.2
_symmetry_space_group_name_H-M    P1
_symmetry_Int_Tables_number       1
_space_group_crystal_system       triclinic
_cell_length_a                    7.221493
_cell_length_b                    12.107425
_cell_length_c                    21.44898
_cell_angle_alpha                 90.000142
_cell_angle_beta                  90.855193
_cell_angle_gamma                 90.000598
_cell_volume                      1875.15446221

loop_
_atom_site_label
_atom_site_type_symbol
_atom_type_description
_atom_site_fract_x
_atom_site_fract_y
_atom_site_fract_z
_atom_type_partial_charge
O1    O     O_R   0.354460 0.152320 0.595720 -0.537036
O2    O     O_R   0.645540 0.847680 0.404280 -0.534069
O3    O     O_R   0.145540 0.652320 0.404280 -0.537035
O4    O     O_R   0.854460 0.347680 0.595720 -0.534068
O5    O     O_R   0.683670 0.140090 0.727290 -0.549439
O6    O     O_R   0.316330 0.859910 0.272710 -0.527845
O7    O     O_R   0.816330 0.640090 0.272710 -0.549439
O8    O     O_R   0.183670 0.359910 0.727290 -0.527843
O9    O     O_R   0.854010 0.349340 0.727750 -0.536236
O10   O     O_R   0.145990 0.650660 0.272250 -0.521982
O11   O     O_R   0.645990 0.849340 0.272250 -0.536234
O12   O     O_R   0.354010 0.150660 0.727750 -0.522009
C1    C     C_R   0.516917 0.112448 0.746934 0.758779
C2    C     C_R   0.482868 0.886400 0.252463 0.687197
C3    C     C_R   0.983081 0.612447 0.253065 0.758753
C4    C     C_R   0.017135 0.386395 0.747540 0.687182
O13   O     O_R   0.684170 0.139420 0.596190 -0.538577
O14   O     O_R   0.315830 0.860580 0.403810 -0.538155
O15   O     O_R   0.815830 0.639420 0.403810 -0.538578
O16   O     O_R   0.184170 0.360580 0.596190 -0.538155
C5    C     C_R   0.514904 0.113113 0.574434 0.700148
C6    C     C_R   0.485096 0.886887 0.425565 0.708026
C7    C     C_R   0.985095 0.613113 0.425565 0.700148
C8    C     C_R   0.014905 0.386887 0.574435 0.708032
O17   O     O_3   0.520730 0.319480 0.661730 -0.375781
O18   O     O_3   0.479270 0.680520 0.338270 -0.380950
O19   O     O_3   0.979270 0.819480 0.338270 -0.375787
O20   O     O_3   0.020730 0.180520 0.661730 -0.380954
V1    V     V_3+5 0.795560 0.238090 0.661730 1.433747
V2    V     V_3+5 0.204440 0.761910 0.338270 1.461676
V3    V     V_3+5 0.704440 0.738090 0.338270 1.433744
V4    V     V_3+5 0.295560 0.261910 0.661730 1.461669
C9    C     C_R   0.016105 0.460539 0.801155 -0.098354
C10   C     C_R   0.985534 0.534182 0.201478 -0.058166
C11   C     C_R   0.483914 0.960543 0.198848 -0.098359
C12   C     C_R   0.514450 0.034193 0.798525 -0.058170
C13   C     C_R   0.058463 0.645201 0.840981 -0.173591
C14   C     C_R   0.940890 0.348912 0.162779 -0.162461
C15   C     C_R   0.441797 0.145228 0.159032 -0.173588
C16   C     C_R   0.558843 0.848901 0.837218 -0.162441
C17   C     C_R   0.056712 0.571815 0.791358 -0.223546
C18   C     C_R   0.932378 0.424724 0.211331 -0.265273
C19   C     C_R   0.443463 0.071838 0.208651 -0.223584
C20   C     C_R   0.567429 0.924708 0.788665 -0.265295
C21   C     C_R   0.984744 0.420223 0.862174 0.294795
C22   C     C_R   0.040595 0.569563 0.142384 0.281977
C23   C     C_R   0.515199 0.920218 0.137827 0.294833
C24   C     C_R   0.459493 0.069605 0.857624 0.281983
C25   C     C_R   0.013965 0.491989 0.914048 0.052565
C26   C     C_R   0.014498 0.498174 0.090205 -0.013947
C27   C     C_R   0.486063 0.992002 0.085957 0.052536
C28   C     C_R   0.485509 0.998200 0.909801 -0.013952
C29   C     C_R   0.035146 0.606725 0.901858 0.078019
C30   C     C_R   0.982650 0.384639 0.102474 0.099742
C31   C     C_R   0.465046 0.106748 0.098152 0.078001
C32   C     C_R   0.517178 0.884649 0.897527 0.099733
C33   C     C_R   0.017245 0.455229 0.977628 0.078661
C34   C     C_R   0.016024 0.534701 0.026848 0.033478
C35   C     C_R   0.482722 0.955249 0.022376 0.078669
C36   C     C_R   0.484052 0.034724 0.973159 0.033457
C37   C     C_R   0.005141 0.647696 0.011152 -0.194345
C38   C     C_R   0.027307 0.342222 0.994063 -0.130573
C39   C     C_R   0.495102 0.147712 0.988859 -0.194360
C40   C     C_R   0.472494 0.842248 0.005939 -0.130556
C41   C     C_R   0.025714 0.682972 0.950265 -0.191505
C42   C     C_R   0.997601 0.307641 0.054713 -0.207062
C43   C     C_R   0.474581 0.182994 0.049748 -0.191488
C44   C     C_R   0.502131 0.807656 0.945286 -0.207088
H1    H     H_    0.028080 0.770941 0.940759 0.142157
H2    H     H_    0.991075 0.219877 0.064545 0.141407
H3    H     H_    0.472344 0.270964 0.059257 0.142158
H4    H     H_    0.508520 0.719889 0.935451 0.141415
H5    H     H_    0.892865 0.397072 0.257298 0.125046
H6    H     H_    0.080712 0.602552 0.744715 0.122237
H7    H     H_    0.606851 0.897034 0.742694 0.125034
H8    H     H_    0.419531 0.102582 0.255298 0.122232
H9    H     H_    0.978811 0.710971 0.045280 0.194255
H10   H     H_    0.059545 0.278073 0.961272 0.177709
H11   H     H_    0.521525 0.210977 0.954733 0.194313
H12   H     H_    0.440168 0.778114 0.038728 0.177726
C45   C     C_1   0.995630 0.533123 0.478094 -0.174363
C46   C     C_1   0.004370 0.466875 0.521905 -0.177825
C47   C     C_1   0.504369 0.033123 0.521906 -0.174364
C48   C     C_1   0.495631 0.966875 0.478095 -0.177824
O21   O     O_3   0.130982 0.669694 0.138614 -0.652144
H13   H     H_    0.228864 0.662108 0.106965 0.284916
O22   O     O_3   0.910524 0.316253 0.871755 -0.660878
H14   H     H_    0.915220 0.270736 0.833632 0.294729
O23   O     O_3   0.369265 0.169786 0.861403 -0.652132
H15   H     H_    0.271381 0.162249 0.893055 0.284902
O24   O     O_3   0.589283 0.816215 0.128240 -0.660877
H16   H     H_    0.584568 0.770702 0.166364 0.294726
H17   H     H_    0.079899 0.732307 0.831822 0.135470
H18   H     H_    0.910790 0.262781 0.172020 0.137418
H19   H     H_    0.420490 0.232345 0.168195 0.135465
H20   H     H_    0.588800 0.762754 0.827972 0.137417

loop_
_geom_bond_atom_site_label_1
_geom_bond_atom_site_label_2
_ccdc_geom_bond_type
O22   H14   S    
O1    C5    A    
O3    V2    S    
C9    C21   A    
O3    C7    A    
C10   C18   A    
C11   C23   A    
C45   C46   T    
C25   C33   A    
C33   C38   A    
C39   H11   S    
O21   H13   S    
C35   C40   A    
C26   C30   A    
C36   C39   A    
C40   C44   A    
O20   V1    S    
C21   O22   S    
O9    C4    A    
C14   C18   A    
O10   C3    A    
O4    C8    A    
O11   C2    A    
C25   C29   A    
C43   H3    S    
O13   V1    S    
C8    C46   S    
C28   C36   A    
C17   H6    S    
C15   C31   A    
O16   C8    A    
C37   H9    S    
C16   C32   A    
O2    C6    A    
C10   C22   A    
C11   C19   A    
C3    C10   S    
O5    C1    A    
O4    V1    S    
O9    V1    S    
C22   O21   S    
C13   C29   A    
C34   C37   A    
O7    C3    A    
O15   V3    S    
C35   C36   A    
O8    C4    A    
O12   V4    S    
O19   V2    S    
C40   H12   S    
C23   O24   S    
C16   H20   S    
O5    V1    S    
C39   C43   A    
O7    V3    S    
C38   C42   A    
C26   C34   A    
C5    C47   S    
C1    C12   S    
C2    C11   S    
C23   C27   A    
C32   C44   A    
O1    V4    S    
O13   C5    A    
O2    V3    S    
C6    C48   S    
C20   H7    S    
O15   C7    A    
C4    C9    S    
O6    C2    A    
O10   V2    S    
C31   C43   A    
C47   C48   T    
C14   C30   A    
C21   C25   A    
C44   H4    S    
C14   H18   S    
C13   H17   S    
C15   H19   S    
O14   V2    S    
O6    V2    S    
C16   C20   A    
C24   O23   S    
C12   C20   A    
C27   C35   A    
O24   H16   S    
C29   C41   A    
O16   V4    S    
C19   H8    S    
C18   H5    S    
C7    C45   S    
O14   C6    A    
O18   V3    S    
C38   H10   S    
C15   C19   A    
C30   C42   A    
C22   C26   A    
C9    C17   A    
C33   C34   A    
C42   H2    S    
O8    V4    S    
O17   V4    S    
C41   H1    S    
C12   C24   A    
C27   C31   A    
C13   C17   A    
O11   V3    S    
C37   C41   A    
C24   C28   A    
O12   C1    A    
O23   H15   S    
C28   C32   A    
