data_mof_unit_59977.cif
_audit_creation_date              2012-12-10T16:57:05-0500
_audit_creation_method            fapswitch 2.2
_symmetry_space_group_name_H-M    P1
_symmetry_Int_Tables_number       1
_space_group_crystal_system       triclinic
_cell_length_a                    7.864492
_cell_length_b                    8.574542
_cell_length_c                    16.712757
_cell_angle_alpha                 93.58712
_cell_angle_beta                  78.58985
_cell_angle_gamma                 93.518
_cell_volume                      1101.19350606

loop_
_atom_site_label
_atom_site_type_symbol
_atom_type_description
_atom_site_fract_x
_atom_site_fract_y
_atom_site_fract_z
_atom_type_partial_charge
C1    C     C_R   0.544649 0.794386 0.498621 0.924499
C2    C     C_R   0.455350 0.205615 0.501382 0.924559
C3    C     C_2   0.558852 0.957234 0.511957 0.033762
C4    C     C_2   0.441140 0.042768 0.488051 0.033758
C5    C     C_R   0.474017 0.502639 0.654274 0.913335
C6    C     C_R   0.525988 0.497382 0.345728 0.913402
C7    C     C_R   0.448906 0.484597 0.741371 -0.128581
C8    C     C_R   0.551165 0.515608 0.258646 -0.128585
C9    C     C_R   0.538263 0.367908 0.767668 -0.199104
C10   C     C_R   0.462057 0.632531 0.232404 -0.199255
C11   C     C_R   0.518718 0.344776 0.849904 -0.196808
C12   C     C_R   0.481801 0.655935 0.150188 -0.196650
C13   C     C_R   0.410144 0.438526 0.906582 0.126667
C14   C     C_R   0.590333 0.562227 0.093478 0.126680
C15   C     C_R   0.308290 0.549007 0.881469 0.132553
C16   C     C_R   0.691998 0.451547 0.118553 0.132582
C17   C     C_R   0.330946 0.574468 0.797768 0.257931
C18   C     C_R   0.669090 0.425775 0.202225 0.257957
C19   C     C_2   0.440375 0.446472 0.989654 0.132670
C20   C     C_2   0.560034 0.554356 0.010414 0.132552
H1    H     H_    0.626330 0.296578 0.724483 0.213322
H2    H     H_    0.374025 0.703829 0.275612 0.213360
H3    H     H_    0.403027 0.739644 0.130282 0.175098
H4    H     H_    0.597631 0.261215 0.869840 0.175071
N1    N     N_2   0.953500 0.457650 0.478520 0.086178
N2    N     N_2   0.046500 0.542350 0.521480 0.086204
O1    O     O_R   0.388470 0.738640 0.505270 -0.582127
O2    O     O_R   0.611530 0.261360 0.494730 -0.582126
O3    O     O_R   0.679650 0.711510 0.491500 -0.575171
O4    O     O_R   0.320350 0.288490 0.508500 -0.575166
O5    O     O_R   0.337210 0.515200 0.623500 -0.580724
O6    O     O_R   0.662790 0.484800 0.376500 -0.580754
O7    O     O_R   0.628380 0.488060 0.609730 -0.597035
O8    O     O_R   0.371620 0.511940 0.390270 -0.597022
Zn1   Zn    Zn3+2 0.305580 0.518120 0.509190 1.125850
Zn2   Zn    Zn3+2 0.694420 0.481880 0.490810 1.125837
Br1   Br    Br    0.784411 0.257030 0.237365 -0.445777
Br2   Br    Br    0.215228 0.742871 0.762550 -0.445728
C21   C     C_3   0.660764 0.670077 0.951876 -0.875829
H5    H     H_    0.752602 0.745561 0.981727 0.250148
H6    H     H_    0.737012 0.607102 0.897791 0.259739
H7    H     H_    0.570707 0.747085 0.931720 0.257207
C22   C     C_3   0.339556 0.330813 0.048201 -0.875821
H8    H     H_    0.247739 0.255326 0.018339 0.250109
H9    H     H_    0.429536 0.253798 0.068403 0.257174
H10   H     H_    0.263277 0.393842 0.102256 0.259671
C23   C     C_3   0.183778 0.645135 0.942918 -0.847524
H11   H     H_    0.052444 0.631531 0.927666 0.261458
H12   H     H_    0.170940 0.608327 0.006349 0.239830
H13   H     H_    0.228532 0.770488 0.941486 0.261095
C24   C     C_3   0.816427 0.355445 0.057068 -0.847884
H14   H     H_    0.829983 0.392924 0.993732 0.239781
H15   H     H_    0.947522 0.368220 0.072559 0.261765
H16   H     H_    0.771067 0.230284 0.058134 0.260935
Br3   Br    Br    0.709920 0.031435 0.586626 -0.390999
Br4   Br    Br    0.290042 0.968572 0.413396 -0.391032
Br5   Br    Br    0.058556 0.307860 0.401044 -0.231547
Br6   Br    Br    0.941440 0.692158 0.598942 -0.231488

loop_
_geom_bond_atom_site_label_1
_geom_bond_atom_site_label_2
_ccdc_geom_bond_type
C1    C3    S    
C7    C17   A    
C2    C4    S    
C22   H8    S    
C15   C17   A    
C14   C20   S    
C23   H13   S    
C21   H6    S    
C22   H9    S    
N2    Zn1   S    
C6    O6    A    
C19   C20   D    
C12   H3    S    
C16   C24   S    
C15   C23   S    
C2    O4    A    
C24   H16   S    
O1    Zn1   S    
C1    O3    A    
C23   H12   S    
C10   H2    S    
C11   C13   A    
O3    Zn2   S    
C9    H1    S    
C6    O8    A    
C10   C12   A    
O4    Zn1   S    
O6    Zn2   S    
C16   C18   A    
C18   Br1   S    
C19   C22   S    
C21   H7    S    
O5    Zn1   S    
C17   Br2   S    
C9    C11   A    
C13   C15   A    
C22   H10   S    
C14   C16   A    
C2    O2    A    
C13   C19   S    
N1    Zn2   S    
C24   H14   S    
N1    Br5   S    
C7    C9    A    
C11   H4    S    
C4    Br4   S    
O7    Zn2   S    
O2    Zn2   S    
C1    O1    A    
O8    Zn1   S    
C21   H5    S    
C5    C7    S    
C20   C21   S    
C6    C8    S    
C5    O5    A    
N1    N2    D    
C3    Br3   S    
N2    Br6   S    
C8    C10   A    
C8    C18   A    
C3    C4    D    
C23   H11   S    
C12   C14   A    
C24   H15   S    
C5    O7    A    
