data_mof_unit_23485.cif
_audit_creation_date              2013-03-05T15:44:23-0500
_audit_creation_method            fapswitch 2.2
_symmetry_space_group_name_H-M    P1
_symmetry_Int_Tables_number       1
_space_group_crystal_system       triclinic
_cell_length_a                    19.106241
_cell_length_b                    19.4267
_cell_length_c                    20.432725
_cell_angle_alpha                 107.279344
_cell_angle_beta                  106.094303
_cell_angle_gamma                 112.505402
_cell_volume                      5997.49571167

loop_
_atom_site_label
_atom_site_type_symbol
_atom_site_description
_atom_site_fract_x
_atom_site_fract_y
_atom_site_fract_z
_atom_type_partial_charge
C1    C     C_R   0.058234 0.087812 0.346181 -0.062485
H1    H     H_    0.089675 0.153069 0.360373 0.142775
N1    N     N_R   0.052580 0.056040 0.395500 -0.062245
C2    C     C_R   0.759639 0.928621 0.502985 0.315843
N2    N     N_R   0.834730 0.954500 0.499860 -0.113055
C3    C     C_R   0.838096 0.807643 0.280685 -0.053509
H2    H     H_    0.856307 0.794749 0.235220 0.116778
N3    N     N_R   0.890210 0.849400 0.355780 -0.050084
C4    C     C_R   0.961344 0.206611 0.531945 -0.075895
H3    H     H_    0.923657 0.218300 0.559760 0.119052
N4    N     N_R   0.997110 0.161140 0.539580 -0.038070
C5    C     C_R   0.760519 0.805139 0.344322 -0.023245
H4    H     H_    0.707757 0.795797 0.356654 0.151348
N5    N     N_R   0.841950 0.845400 0.395490 -0.050881
C6    C     C_R   0.043688 0.217356 0.470846 -0.158921
H5    H     H_    0.083544 0.242528 0.445781 0.121925
N6    N     N_R   0.045360 0.165140 0.499870 -0.051512
C7    C     C_R   0.832290 0.066530 0.568009 -0.206280
H6    H     H_    0.857398 0.129345 0.610878 0.162055
N7    N     N_R   0.877490 0.041510 0.539580 -0.065530
C8    C     C_R   0.990110 0.948664 0.281659 -0.106364
H7    H     H_    0.961550 0.886812 0.236176 0.133360
N8    N     N_R   0.009820 0.969030 0.355780 -0.052587
C9    C     C_R   0.016425 0.021744 0.273917 0.127865
C10   C     C_R   0.757109 0.997232 0.546186 0.001964
C11   C     C_R   0.756445 0.782699 0.271855 0.001969
C12   C     C_R   0.988999 0.240819 0.487769 0.048271
C13   C     C_R   0.232178 0.226524 0.646676 -0.211853
H8    H     H_    0.275196 0.252806 0.624301 0.144529
N9    N     N_R   0.158050 0.154600 0.604510 -0.064681
C14   C     C_R   0.934688 0.764518 0.507312 0.329217
N10   N     N_R   0.954640 0.834860 0.500130 -0.122785
C15   C     C_R   0.178260 0.933971 0.482234 -0.010598
H9    H     H_    0.165368 0.870524 0.460953 0.166859
N11   N     N_R   0.122510 0.958490 0.460420 -0.045830
C16   C     C_R   0.987848 0.051798 0.711853 -0.093940
H10   H     H_    0.005535 0.113828 0.750160 0.168813
N12   N     N_R   0.990180 0.030970 0.644220 -0.053007
C17   C     C_R   0.917876 0.912950 0.647798 -0.032495
H11   H     H_    0.868839 0.849424 0.626641 0.193344
N13   N     N_R   0.947420 0.943960 0.604500 -0.068391
C18   C     C_R   0.244447 0.073352 0.546342 -0.106412
H12   H     H_    0.290810 0.138029 0.585116 0.114811
N14   N     N_R   0.165270 0.045500 0.500140 -0.048933
C19   C     C_R   0.155344 0.221317 0.710671 0.345503
N15   N     N_R   0.109790 0.150600 0.644220 -0.089316
C20   C     C_R   0.005517 0.768931 0.437231 0.295192
N16   N     N_R   0.002890 0.838860 0.460420 -0.117847
Ni1   Ni    Ni4+2 0.104370 0.104380 0.500010 0.231852
Ni2   Ni    Ni4+2 0.895630 0.895620 0.499990 0.319769
Ni3   Ni    Ni4+2 0.006300 0.904810 0.408930 0.311546
Ni4   Ni    Ni4+2 0.993700 0.095190 0.591070 0.265978
C21   C     C_R   0.233261 0.270203 0.714246 -0.046100
C22   C     C_R   0.964585 0.722264 0.467407 -0.134754
C23   C     C_R   0.255108 0.005438 0.537138 0.092395
C24   C     C_R   0.941722 0.979176 0.715335 0.019665
C25   C     C_R   0.036808 0.656232 0.504287 -0.172328
C26   C     C_R   0.960036 0.646597 0.462454 0.014400
C27   C     C_R   0.884732 0.568604 0.418319 0.428411
C28   C     C_R   0.887563 0.498954 0.423090 -0.082763
C29   C     C_R   0.966799 0.509300 0.465501 0.000559
C30   C     C_R   0.041510 0.588075 0.504673 0.116456
C31   C     C_R   0.814163 0.419659 0.387763 -0.055160
C32   C     C_R   0.819170 0.352065 0.393358 -0.211186
C33   C     C_R   0.897413 0.362361 0.433717 0.141786
C34   C     C_R   0.971783 0.441133 0.469457 0.076350
C35   C     C_R   0.051370 0.451904 0.510135 0.125144
C36   C     C_R   0.124993 0.529942 0.547092 -0.193477
C37   C     C_R   0.119959 0.598299 0.544893 -0.112504
C38   C     C_R   0.902963 0.295490 0.439965 -0.254652
C39   C     C_R   0.982008 0.307605 0.479612 0.106670
C40   C     C_R   0.055843 0.384345 0.514102 -0.234208
H13   H     H_    0.093559 0.717758 0.536422 0.194444
H14   H     H_    0.752100 0.408981 0.357028 0.212235
H15   H     H_    0.761821 0.291766 0.366247 0.149003
H16   H     H_    0.846760 0.234375 0.413967 0.135219
H17   H     H_    0.116334 0.391508 0.545562 0.137657
H18   H     H_    0.185972 0.538185 0.578395 0.147565
H19   H     H_    0.177183 0.659071 0.574623 0.169319
C41   C     C_R   0.347626 0.949076 0.583335 0.306726
C42   C     C_R   0.337453 0.013141 0.570949 -0.036353
C43   C     C_R   0.406737 0.084467 0.582493 -0.250483
C44   C     C_R   0.482396 0.087814 0.593934 0.122494
C45   C     C_R   0.491281 0.020282 0.597684 0.035458
C46   C     C_R   0.426277 0.953300 0.597669 -0.035765
C47   C     C_R   0.546465 0.154737 0.594506 -0.141136
C48   C     C_R   0.616203 0.151023 0.591183 -0.162938
C49   C     C_R   0.622745 0.081238 0.588951 0.127415
C50   C     C_R   0.563123 0.017650 0.596488 0.041757
C51   C     C_R   0.573179 0.949903 0.598926 -0.055186
C52   C     C_R   0.514789 0.891043 0.611829 -0.110466
C53   C     C_R   0.441550 0.891918 0.609922 -0.105718
C54   C     C_R   0.685292 0.072135 0.574241 -0.277583
C55   C     C_R   0.692917 0.002460 0.569927 -0.000467
C56   C     C_R   0.640764 0.943355 0.587802 0.316000
H20   H     H_    0.400008 0.134326 0.573774 0.149299
H21   H     H_    0.540180 0.207369 0.592674 0.153619
H22   H     H_    0.663118 0.200902 0.587036 0.144947
H23   H     H_    0.725967 0.118340 0.562058 0.146758
H24   H     H_    0.523083 0.842259 0.621098 0.187013
H25   H     H_    0.396625 0.843322 0.616677 0.177906
C57   C     C_R   0.294416 0.359512 0.764232 0.096677
C58   C     C_R   0.268006 0.417510 0.783652 -0.078808
C59   C     C_R   0.327529 0.501740 0.831808 -0.219108
C60   C     C_R   0.414199 0.529257 0.860191 -0.001561
C61   C     C_R   0.441143 0.471846 0.836271 0.541491
C62   C     C_R   0.380619 0.387402 0.788348 -0.293067
C63   C     C_R   0.622203 0.740197 0.074445 -0.101784
C64   C     C_R   0.692249 0.770219 0.142016 -0.168689
C65   C     C_R   0.600305 0.703355 0.192152 -0.105223
C66   C     C_R   0.530200 0.672024 0.123994 -0.132059
C67   C     C_R   0.540590 0.687601 0.063523 0.206120
C68   C     C_2   0.475753 0.614050 0.922867 -0.086809
C69   C     C_2   0.466893 0.637451 0.987473 -0.214891
C70   C     C_R   0.681995 0.750573 0.200733 0.118515
H26   H     H_    0.201569 0.397934 0.761861 0.164018
H27   H     H_    0.754456 0.808692 0.148134 0.114486
H28   H     H_    0.590617 0.688066 0.236911 0.160939
H29   H     H_    0.405866 0.601926 0.985728 0.156979
H30   H     H_    0.632771 0.756547 0.030499 0.127059
H31   H     H_    0.400413 0.342461 0.771115 0.186593
H32   H     H_    0.536664 0.645184 0.923469 0.186713
H33   H     H_    0.306067 0.545276 0.848762 0.162643
H34   H     H_    0.467977 0.631827 0.117092 0.141891
C71   C     C_R   0.983942 0.027837 0.203522 -0.051208
C72   C     C_R   0.895849 0.985864 0.161235 -0.217414
C73   C     C_R   0.859981 0.995288 0.097814 -0.075384
C74   C     C_R   0.912018 0.047186 0.075810 0.171876
C75   C     C_R   0.000027 0.091085 0.119058 -0.323931
C76   C     C_R   0.036925 0.081159 0.182353 0.457149
C77   C     C_R   0.844131 0.028955 0.845883 -0.189592
C78   C     C_R   0.880606 0.033522 0.796160 -0.093203
C79   C     C_R   0.879822 0.905094 0.783041 -0.226337
C80   C     C_R   0.844209 0.900415 0.834029 0.438571
C81   C     C_R   0.829910 0.965345 0.868497 0.021218
C82   C     C_2   0.878275 0.048662 0.002691 -0.218417
C83   C     C_2   0.819466 0.977306 0.938990 -0.125223
C84   C     C_R   0.901509 0.973268 0.766613 0.117777
H35   H     H_    0.854612 0.947025 0.178495 0.130151
H36   H     H_    0.892693 0.084521 0.781238 0.134208
H37   H     H_    0.893937 0.857460 0.758385 0.184029
H38   H     H_    0.782701 0.922064 0.943644 0.198329
H39   H     H_    0.040182 0.130414 0.101301 0.179317
H40   H     H_    0.832066 0.078271 0.870762 0.154013
H41   H     H_    0.918892 0.101973 0.997443 0.155228
H42   H     H_    0.791840 0.961709 0.065873 0.120887
N17   N     N_R   0.877814 0.730801 0.536965 0.228845
O1    O     O_R   0.896531 0.698376 0.581651 -0.371822
O2    O     O_R   0.800473 0.713908 0.505321 -0.268212
N18   N     N_R   0.118824 0.251302 0.756237 0.206795
O3    O     O_R   0.162948 0.296049 0.829945 -0.384750
O4    O     O_R   0.042604 0.237456 0.723729 -0.454757
N19   N     N_R   0.020636 0.737980 0.372597 0.247077
O5    O     O_R   0.022734 0.668941 0.352778 -0.359439
O6    O     O_R   0.027053 0.776226 0.330127 -0.395041
S1    S     S_3+6 0.790456 0.557174 0.354807 0.027040
O7    O     O_2   0.726663 0.537963 0.386058 -0.175485
O8    O     O_2   0.805172 0.634065 0.344303 -0.265645
O9    O     O_3   0.750387 0.476891 0.268574 -0.497980
H43   H     H_    0.796599 0.490982 0.252885 0.356931
N20   N     N_R   0.695816 0.843511 0.472113 0.233230
O10   O     O_R   0.617301 0.819439 0.432110 -0.375836
O11   O     O_R   0.716052 0.788663 0.479209 -0.296685
N21   N     N_R   0.278334 0.879901 0.578849 0.211031
O12   O     O_R   0.251510 0.803641 0.531021 -0.421432
O13   O     O_R   0.236427 0.893465 0.616717 -0.424138
N22   N     N_R   0.657747 0.879892 0.596790 0.244431
O14   O     O_R   0.598706 0.801417 0.559429 -0.299383
O15   O     O_R   0.734158 0.899801 0.638266 -0.413564
S2    S     S_3+6 0.549603 0.502480 0.869715 -0.008351
O16   O     O_2   0.560121 0.428283 0.839595 -0.251806
O17   O     O_2   0.591177 0.564446 0.843361 -0.250412
O18   O     O_3   0.595959 0.547596 0.965863 -0.522108
H44   H     H_    0.657452 0.576611 0.981094 0.388647
S3    S     S_3+6 0.148688 0.133423 0.230826 -0.000355
O19   O     O_2   0.176182 0.082137 0.261763 -0.227325
O20   O     O_2   0.186133 0.148118 0.177163 -0.239585
O21   O     O_3   0.184969 0.226208 0.303765 -0.510238
H45   H     H_    0.161369 0.255001 0.280179 0.339796
S4    S     S_3+6 0.825941 0.817285 0.858946 0.019090
O22   O     O_2   0.734460 0.770908 0.841874 -0.217302
O23   O     O_2   0.846657 0.757462 0.814372 -0.215173
O24   O     O_3   0.885717 0.855815 0.952956 -0.500639
H46   H     H_    0.943383 0.895108 0.962647 0.343074

loop_
_geom_bond_atom_site_label_1
_geom_bond_atom_site_label_2
_geom_bond_distance
_ccdc_geom_bond_type
N14   Ni1   1.918662 S    
C15   C23   1.393856 A    
C83   H38   1.083840 S    
C72   C73   1.388174 A    
C61   S2    1.773294 S    
C63   H30   1.081108 S    
N1    N8    1.394113 A    
C66   C67   1.403492 A    
C48   C49   1.397046 A    
C74   C75   1.402270 A    
C65   H28   1.082613 S    
C67   C69   1.477777 S    
C2    C10   1.390008 A    
N1    Ni1   1.829437 S    
C64   H27   1.081175 S    
C51   C56   1.416555 A    
C17   N13   1.340677 A    
N2    N7    1.394110 A    
C3    C11   1.383624 A    
C19   N15   1.345265 A    
C54   C55   1.395824 A    
C28   C31   1.408935 A    
C60   C68   1.471499 S    
N21   O12   1.301333 A    
N17   O2    1.297040 A    
C19   N18   1.429045 S    
C77   C81   1.402173 A    
C74   C82   1.467688 S    
O9    H43   0.990613 S    
N12   Ni4   1.876573 S    
C61   C62   1.397454 A    
C78   C84   1.402114 A    
C6    H5    1.077595 S    
N15   Ni4   1.843921 S    
C63   C64   1.391794 A    
S3    O20   1.503366 D    
C6    N6    1.324156 A    
C7    H6    1.081845 S    
C25   H13   1.087354 S    
C47   H21   1.084208 S    
C65   C66   1.393612 A    
C41   N21   1.436869 S    
N4    Ni4   1.878140 S    
C40   H17   1.086339 S    
C11   C70   1.469760 S    
N8    Ni3   1.876572 S    
C29   C34   1.387488 A    
N16   Ni3   1.878140 S    
N4    N6    1.382597 A    
C68   H32   1.081252 S    
N17   O1    1.300548 A    
C36   C37   1.380415 A    
S2    O16   1.503372 D    
C38   C39   1.388803 A    
C52   H24   1.078930 S    
C23   C42   1.459680 S    
C4    H3    1.080949 S    
C54   H23   1.085166 S    
C69   H29   1.087847 S    
S4    O24   1.682122 S    
C48   H22   1.084220 S    
C14   N17   1.425787 S    
C34   C35   1.413945 A    
C19   C21   1.392707 A    
C27   C28   1.405238 A    
C8    H7    1.076441 S    
N10   N16   1.382595 A    
C57   C58   1.400782 A    
C7    C10   1.371998 A    
C18   N14   1.323100 A    
C71   C76   1.411058 A    
C59   C60   1.403537 A    
N20   O11   1.296886 A    
C46   C53   1.404650 A    
S4    O23   1.503336 D    
O21   H45   0.990550 S    
S3    O21   1.680925 S    
C36   H18   1.084118 S    
C72   H35   1.082345 S    
C43   H20   1.082415 S    
C35   C36   1.394886 A    
C20   N16   1.324966 A    
C35   C40   1.371720 A    
C45   C46   1.413522 A    
N12   N13   1.394110 A    
N22   O15   1.298544 A    
N6    Ni1   1.919231 S    
C52   C53   1.395804 A    
C59   H33   1.083359 S    
C47   C48   1.380597 A    
C2    N2    1.353848 A    
C3    N3    1.341270 A    
C20   N19   1.435904 S    
C25   C30   1.363134 A    
C26   C27   1.406793 A    
O18   H44   0.990480 S    
C42   C43   1.398738 A    
C63   C67   1.406117 A    
C30   C37   1.397712 A    
C5    C11   1.383920 A    
C28   C29   1.421086 A    
C1    N1    1.336755 A    
S1    O7    1.502482 D    
S1    O8    1.502912 D    
O24   H46   0.990560 S    
C41   C46   1.413512 A    
C16   C24   1.383714 A    
C18   C23   1.377355 A    
C79   C80   1.399497 A    
C24   C84   1.466810 S    
C6    C12   1.374940 A    
C14   N10   1.336247 A    
C21   C57   1.467068 S    
C27   S1    1.790128 S    
C15   H9    1.076447 S    
C57   C62   1.399029 A    
C17   C24   1.383863 A    
C49   C50   1.407272 A    
C79   C84   1.399820 A    
N11   N14   1.394111 A    
C4    N4    1.325328 A    
N3    Ni3   1.843921 S    
N10   Ni2   1.919231 S    
C3    H2    1.074457 S    
C53   H25   1.081574 S    
C20   C22   1.367589 A    
N9    Ni1   1.828983 S    
C5    N5    1.343964 A    
C43   C44   1.371199 A    
C55   C56   1.421173 A    
C8    N8    1.343790 A    
C38   H16   1.085340 S    
C71   C72   1.403157 A    
N18   O4    1.300762 A    
N2    Ni2   1.918664 S    
C44   C45   1.406696 A    
N19   O6    1.300927 A    
C45   C50   1.399616 A    
C62   H31   1.083155 S    
C51   C52   1.409678 A    
C73   C74   1.398870 A    
C50   C51   1.413762 A    
N13   Ni2   1.829437 S    
N22   O14   1.301565 A    
C12   C39   1.406316 S    
S4    O22   1.502707 D    
C4    C12   1.373879 A    
C68   C69   1.343211 D    
C22   C26   1.409788 S    
C81   C83   1.471241 S    
C49   C54   1.370799 A    
C13   H8    1.082130 S    
N3    N5    1.382750 A    
C66   H34   1.083501 S    
C2    N20   1.424454 S    
N9    N15   1.382751 A    
S1    O9    1.681862 S    
C82   H41   1.087746 S    
C41   C42   1.412734 A    
C56   N22   1.437599 S    
C13   C21   1.378903 A    
C80   C81   1.415796 A    
C75   H39   1.083649 S    
C31   H14   1.079315 S    
C76   S3    1.772549 S    
C78   H36   1.082227 S    
C60   C61   1.415280 A    
C79   H37   1.082711 S    
C32   C33   1.394442 A    
N21   O13   1.301193 A    
C58   H26   1.081974 S    
N19   O5    1.300749 A    
C39   C40   1.387058 A    
N7    Ni4   1.845203 S    
S3    O19   1.502941 D    
N20   O10   1.301247 A    
C77   C78   1.387279 A    
N11   Ni3   1.845206 S    
C25   C26   1.384515 A    
N5    Ni2   1.828983 S    
S2    O17   1.503413 D    
C75   C76   1.397657 A    
C1    H1    1.074309 S    
C16   N12   1.338356 A    
C15   N11   1.345909 A    
C32   H15   1.084000 S    
C13   N9    1.339349 A    
C7    N7    1.323339 A    
C14   C22   1.372770 A    
C29   C30   1.409522 A    
C37   H19   1.084327 S    
C64   C70   1.403053 A    
C73   H42   1.082734 S    
C31   C32   1.387729 A    
C17   H11   1.077515 S    
C10   C55   1.464857 S    
C44   C47   1.397696 A    
C5    H4    1.067987 S    
C1    C9    1.378760 A    
C16   H10   1.077138 S    
C33   C34   1.410782 A    
C18   H12   1.076351 S    
C8    C9    1.387259 A    
C58   C59   1.391957 A    
N18   O3    1.300728 A    
C82   C83   1.342805 D    
C80   S4    1.773271 S    
C9    C71   1.459616 S    
C65   C70   1.401765 A    
C77   H40   1.083571 S    
C33   C38   1.382613 A    
S2    O18   1.682347 S    
