data_mof_unit_66130.cif
_audit_creation_date              2013-03-05T16:11:12-0500
_audit_creation_method            fapswitch 2.2
_symmetry_space_group_name_H-M    P1
_symmetry_Int_Tables_number       1
_space_group_crystal_system       triclinic
_cell_length_a                    44.077661
_cell_length_b                    30.38825
_cell_length_c                    30.382221
_cell_angle_alpha                 89.999986
_cell_angle_beta                  133.410967
_cell_angle_gamma                 89.999905
_cell_volume                      29562.7872329

loop_
_atom_site_label
_atom_site_type_symbol
_atom_site_description
_atom_site_fract_x
_atom_site_fract_y
_atom_site_fract_z
_atom_type_partial_charge
O1    O     O_R   0.500000 0.962790 0.564270 -0.583693
O2    O     O_R   0.500000 0.962790 0.435730 -0.583419
O3    O     O_R   0.000000 0.462790 0.564270 -0.583992
O4    O     O_R   1.000000 0.462790 0.435730 -0.584191
O5    O     O_R   0.499990 0.037210 0.564290 -0.588932
O6    O     O_R   0.500010 0.037210 0.435710 -0.589297
O7    O     O_R   0.999990 0.537210 0.564290 -0.588820
O8    O     O_R   0.000010 0.537210 0.435710 -0.588579
C1    C     C_R   0.499812 0.999973 0.584965 0.793503
C2    C     C_R   0.500187 0.999973 0.415034 0.792867
C3    C     C_R   0.999812 0.499973 0.584965 0.793600
C4    C     C_R   0.000189 0.499973 0.415036 0.793912
O9    O     O_R   0.439720 0.962790 0.439720 -0.569358
O10   O     O_R   0.560280 0.962790 0.560280 -0.567660
O11   O     O_R   0.939720 0.462790 0.439720 -0.569688
O12   O     O_R   0.060280 0.462790 0.560280 -0.570721
O13   O     O_R   0.439710 0.037210 0.439740 -0.580738
O14   O     O_R   0.560290 0.037210 0.560260 -0.581706
O15   O     O_R   0.939710 0.537210 0.439740 -0.580573
O16   O     O_R   0.060290 0.537210 0.560260 -0.579919
C5    C     C_R   0.420011 0.999997 0.420015 0.828175
C6    C     C_R   0.579989 0.999997 0.579985 0.827580
C7    C     C_R   0.920011 0.499997 0.420014 0.828287
C8    C     C_R   0.079988 0.499997 0.579986 0.828596
Cu1   Cu    Cu3+1 0.500000 0.955930 0.500000 1.001962
Cu2   Cu    Cu3+1 0.000000 0.455930 0.500000 0.998494
Cu3   Cu    Cu3+1 0.500000 0.044060 0.500000 0.975549
Cu4   Cu    Cu3+1 0.000000 0.544060 0.500000 0.977455
C9    C     C_3   0.273911 0.962715 0.305058 0.225144
C10   C     C_3   0.726075 0.959778 0.698813 0.225297
C11   C     C_3   0.773909 0.463109 0.305520 0.225147
C12   C     C_3   0.226098 0.465110 0.692295 0.225009
C13   C     C_3   0.274100 0.045322 0.288897 -0.341115
C14   C     C_3   0.725917 0.043606 0.706666 -0.341612
C15   C     C_3   0.774102 0.545506 0.288332 -0.340973
C16   C     C_3   0.225886 0.546293 0.714457 -0.340688
C17   C     C_3   0.225646 0.044814 0.241667 -0.361376
C18   C     C_3   0.774371 0.042972 0.753952 -0.361135
C19   C     C_3   0.725648 0.545014 0.241108 -0.361345
C20   C     C_3   0.274341 0.545883 0.761654 -0.361498
H1    H     H_    0.213051 0.969593 0.278587 0.210561
H2    H     H_    0.786937 0.963177 0.724772 0.210367
H3    H     H_    0.713049 0.470419 0.278960 0.210566
H4    H     H_    0.286954 0.474505 0.719358 0.210672
H5    H     H_    0.284760 0.070952 0.275876 0.164641
H6    H     H_    0.715268 0.071475 0.717017 0.164364
H7    H     H_    0.784764 0.570838 0.274995 0.164735
H8    H     H_    0.215219 0.570115 0.729289 0.164915
H9    H     H_    0.214682 0.051524 0.264845 0.192721
H10   H     H_    0.785335 0.046233 0.730274 0.192735
H11   H     H_    0.714684 0.552150 0.264199 0.192785
H12   H     H_    0.285302 0.555083 0.739060 0.192741
H13   H     H_    0.213394 0.071623 0.208088 0.168119
H14   H     H_    0.786633 0.071777 0.784753 0.167930
H15   H     H_    0.713398 0.571554 0.207197 0.168208
H16   H     H_    0.286584 0.571053 0.797138 0.168345
C21   C     C_1   0.124867 0.000033 0.124750 -0.159914
C22   C     C_1   0.875133 0.000025 0.875252 -0.159925
C23   C     C_1   0.624867 0.500034 0.124751 -0.159882
C24   C     C_1   0.375133 0.500039 0.875247 -0.159882
C25   C     C_3   0.291318 0.999743 0.291737 0.183809
C26   C     C_3   0.708682 0.999694 0.708293 0.183867
C27   C     C_3   0.791318 0.499750 0.291741 0.183814
C28   C     C_3   0.208682 0.499780 0.708244 0.183840
C29   C     C_3   0.225217 0.963638 0.256933 -0.415396
C30   C     C_3   0.774769 0.960633 0.746850 -0.415763
C31   C     C_3   0.725215 0.464041 0.257383 -0.415440
C32   C     C_3   0.274792 0.466079 0.740488 -0.415177
C33   C     C_3   0.208660 0.999742 0.208860 0.245860
C34   C     C_3   0.791340 0.999704 0.791169 0.245886
C35   C     C_3   0.708660 0.499748 0.208864 0.245848
C36   C     C_3   0.291339 0.499771 0.791119 0.245865
C37   C     C_3   0.226000 0.990626 0.179327 -0.374545
C38   C     C_3   0.773998 0.995320 0.821377 -0.374385
C39   C     C_3   0.726000 0.490046 0.179447 -0.374540
C40   C     C_3   0.274004 0.487235 0.819860 -0.374685
C41   C     C_3   0.274535 0.990678 0.227924 -0.446383
C42   C     C_3   0.725463 0.995371 0.772774 -0.446258
C43   C     C_3   0.774534 0.490099 0.228044 -0.446458
C44   C     C_3   0.225469 0.487288 0.771267 -0.446595
C45   C     C_1   0.162567 0.999923 0.162525 -0.075404
C46   C     C_1   0.837433 0.999904 0.837486 -0.075426
C47   C     C_1   0.662567 0.499926 0.162526 -0.075383
C48   C     C_1   0.337432 0.499937 0.837466 -0.075378
C49   C     C_1   0.337447 0.999918 0.337581 -0.043221
C50   C     C_1   0.662553 0.999902 0.662431 -0.043331
C51   C     C_1   0.837447 0.499920 0.337582 -0.043217
C52   C     C_1   0.162553 0.499929 0.662413 -0.043165
C53   C     C_1   0.375143 0.999982 0.375180 -0.122903
C54   C     C_1   0.624857 0.999979 0.624823 -0.122920
C55   C     C_1   0.875143 0.499983 0.375180 -0.122949
C56   C     C_1   0.124856 0.499984 0.624819 -0.122941
H17   H     H_    0.286218 0.958371 0.227473 0.178710
H18   H     H_    0.713768 0.964439 0.776384 0.179312
H19   H     H_    0.786217 0.457643 0.227996 0.178557
H20   H     H_    0.213795 0.454176 0.769323 0.178181
H21   H     H_    0.214491 0.958228 0.155821 0.176471
H22   H     H_    0.785495 0.964282 0.848051 0.176984
H23   H     H_    0.714489 0.457501 0.156347 0.176361
H24   H     H_    0.285521 0.454044 0.840960 0.176037
H25   H     H_    0.283665 0.930527 0.300451 0.100111
H26   H     H_    0.716308 0.929187 0.706553 0.100420
H27   H     H_    0.783661 0.430744 0.301314 0.099936
H28   H     H_    0.216355 0.431953 0.694511 0.099767
H29   H     H_    0.213087 0.930921 0.234424 0.145758
H30   H     H_    0.786887 0.929116 0.772566 0.145996
H31   H     H_    0.713083 0.431197 0.235283 0.145631
H32   H     H_    0.286933 0.432689 0.760573 0.145549
H33   H     H_    0.214500 0.016164 0.144566 0.184032
H34   H     H_    0.785508 0.023054 0.853477 0.183634
H35   H     H_    0.714500 0.515292 0.144371 0.184128
H36   H     H_    0.285498 0.510996 0.856428 0.184331
C57   C     C_R   0.508600 0.037970 0.711588 -0.092892
C58   C     C_R   0.491390 0.037968 0.288402 -0.093491
C59   C     C_R   0.008628 0.537962 0.711615 -0.092618
C60   C     C_R   0.991337 0.537950 0.288350 -0.092352
H37   H     H_    0.515528 0.067974 0.736315 0.138706
H38   H     H_    0.484457 0.067970 0.263670 0.138630
H39   H     H_    0.015577 0.567961 0.736363 0.138826
H40   H     H_    0.984357 0.567940 0.263570 0.138838
C61   C     C_R   0.508010 0.038519 0.665130 -0.169087
C62   C     C_R   0.491981 0.038517 0.334861 -0.169793
C63   C     C_R   0.008037 0.538512 0.665157 -0.168976
C64   C     C_R   0.991928 0.538502 0.334808 -0.168527
H41   H     H_    0.514664 0.069080 0.654825 0.157416
H42   H     H_    0.485322 0.069077 0.345161 0.157391
H43   H     H_    0.014713 0.569067 0.654874 0.157499
H44   H     H_    0.985220 0.569050 0.345059 0.157489
C65   C     C_R   0.499555 0.999778 0.633094 -0.036552
C66   C     C_R   0.500443 0.999778 0.366904 -0.036888
C67   C     C_R   0.999555 0.499778 0.633093 -0.036475
C68   C     C_R   0.000449 0.499778 0.366911 -0.036217
C69   C     C_R   0.491039 0.960688 0.647635 -0.159956
C70   C     C_R   0.508964 0.960688 0.352368 -0.160637
C71   C     C_R   0.991012 0.460694 0.647606 -0.160205
C72   C     C_R   0.009032 0.460703 0.352440 -0.159937
H45   H     H_    0.484143 0.930434 0.623380 0.164788
H46   H     H_    0.515864 0.930436 0.376627 0.165191
H47   H     H_    0.984093 0.430447 0.623329 0.164512
H48   H     H_    0.015981 0.430464 0.376749 0.164213
C73   C     C_R   0.491243 0.960294 0.693688 -0.115305
C74   C     C_R   0.508759 0.960294 0.306314 -0.115681
C75   C     C_R   0.991216 0.460299 0.693660 -0.115537
C76   C     C_R   0.008830 0.460307 0.306388 -0.115260
H49   H     H_    0.484815 0.929877 0.704601 0.153475
H50   H     H_    0.515193 0.929878 0.295406 0.153632
H51   H     H_    0.984766 0.429887 0.704551 0.153268
H52   H     H_    0.015312 0.429903 0.295529 0.153169
C77   C     C_R   0.500495 0.998788 0.726247 0.141380
C78   C     C_R   0.499501 0.998787 0.273750 0.141369
C79   C     C_R   0.000496 0.498787 0.726247 0.141465
C80   C     C_R   0.999510 0.498784 0.273761 0.141500
C81   C     C_R   0.464763 0.989395 0.761780 -0.209422
C82   C     C_R   0.535239 0.989408 0.238222 -0.209997
C83   C     C_R   0.964763 0.489392 0.761780 -0.209343
C84   C     C_R   0.035257 0.489458 0.238241 -0.209049
C85   C     C_R   0.464021 0.990392 0.806819 -0.107563
C86   C     C_R   0.535980 0.990405 0.193184 -0.107633
C87   C     C_R   0.964022 0.490389 0.806820 -0.107502
C88   C     C_R   0.035995 0.490455 0.193199 -0.107604
C89   C     C_R   0.500527 0.999705 0.866862 -0.085711
C90   C     C_R   0.499473 0.999705 0.133137 -0.085619
C91   C     C_R   0.000526 0.499705 0.866862 -0.085694
C92   C     C_R   0.999474 0.499700 0.133139 -0.085684
C93   C     C_R   0.537815 0.008063 0.881217 -0.235743
C94   C     C_R   0.462181 0.008048 0.118778 -0.235830
C95   C     C_R   0.037814 0.508064 0.881217 -0.235705
C96   C     C_R   0.962172 0.507985 0.118772 -0.235569
H53   H     H_    0.566230 0.014862 0.927653 0.195496
H54   H     H_    0.433764 0.014837 0.072340 0.195496
H55   H     H_    0.066229 0.514865 0.927652 0.195500
H56   H     H_    0.933744 0.514728 0.072325 0.195546
C97   C     C_R   0.539075 0.007070 0.836380 0.359604
C98   C     C_R   0.460920 0.007055 0.163615 0.359679
C99   C     C_R   0.039074 0.507069 0.836379 0.359575
C100  C     C_R   0.960914 0.506988 0.163612 0.359507
C101  C     C_R   0.501873 0.997969 0.775868 -0.036739
C102  C     C_R   0.498125 0.997967 0.224130 -0.036555
C103  C     C_R   0.001873 0.497966 0.775868 -0.036756
C104  C     C_R   0.998133 0.497959 0.224139 -0.036846
O17   O     O_R   0.000000 0.935850 0.037210 -0.586539
O18   O     O_R   0.000000 0.935850 0.962790 -0.586554
O19   O     O_R   0.500000 0.435850 0.037210 -0.586630
O20   O     O_R   0.500000 0.435850 0.962790 -0.586620
C105  C     C_R   1.000000 0.914999 1.000000 0.781614
C106  C     C_R   0.500000 0.414999 0.000000 0.781321
O21   O     O_R   0.060280 0.000140 0.097490 -0.574970
O22   O     O_R   0.939720 0.000140 0.902510 -0.575079
O23   O     O_R   0.560280 0.500140 0.097490 -0.574957
O24   O     O_R   0.439720 0.500140 0.902510 -0.574910
O25   O     O_R   0.060280 0.000120 0.023100 -0.578477
O26   O     O_R   0.939720 0.000120 0.976900 -0.578410
O27   O     O_R   0.560280 0.500120 0.023100 -0.578460
O28   O     O_R   0.439720 0.500120 0.976900 -0.578493
C107  C     C_R   0.079993 0.000119 0.079957 0.824794
C108  C     C_R   0.920007 0.000119 0.920043 0.824811
C109  C     C_R   0.579993 0.500119 0.079957 0.824756
C110  C     C_R   0.420007 0.500119 0.920043 0.824750
Cu5   Cu    Cu3+1 0.000000 0.000140 0.044060 0.972205
Cu6   Cu    Cu3+1 0.000000 0.000140 0.955940 0.971962
Cu7   Cu    Cu3+1 0.500000 0.500140 0.044060 0.972201
Cu8   Cu    Cu3+1 0.500000 0.500140 0.955940 0.972317
O29   O     O_R   0.999990 0.064430 0.037200 -0.585105
O30   O     O_R   0.000010 0.064430 0.962800 -0.585226
O31   O     O_R   0.499990 0.564430 0.037200 -0.585073
O32   O     O_R   0.500010 0.564430 0.962800 -0.585010
C111  C     C_R   0.000000 0.085192 0.000000 0.783915
C112  C     C_R   0.500000 0.585192 1.000000 0.784090
O33   O     O_R   0.465110 0.064280 0.965140 -0.594714
O34   O     O_R   0.534890 0.064280 0.034860 -0.594725
O35   O     O_R   0.965110 0.564280 0.965140 -0.594616
O36   O     O_R   0.034890 0.564280 0.034860 -0.594657
C113  C     C_R   0.500000 0.085277 1.000000 0.770428
C114  C     C_R   1.000000 0.585277 1.000000 0.770533
O37   O     O_R   0.465110 0.999980 0.900850 -0.576044
O38   O     O_R   0.534890 0.999980 0.099150 -0.576106
O39   O     O_R   0.965110 0.499980 0.900850 -0.576004
O40   O     O_R   0.034890 0.499980 0.099150 -0.575983
O41   O     O_R   0.534890 0.999980 0.970630 -0.591108
O42   O     O_R   0.465110 0.999980 0.029370 -0.591105
O43   O     O_R   0.034890 0.499980 0.970630 -0.591124
O44   O     O_R   0.965110 0.499980 0.029370 -0.591139
C115  C     C_R   0.500091 0.000051 0.914811 0.855840
C116  C     C_R   0.499909 0.000051 0.085189 0.855786
C117  C     C_R   0.000091 0.500051 0.914811 0.855826
C118  C     C_R   0.999909 0.500049 0.085189 0.855848
Cu9   Cu    Cu3+1 0.458680 0.999980 0.958690 1.020878
Cu10  Cu    Cu3+1 0.541320 0.999980 0.041310 1.020760
Cu11  Cu    Cu3+1 0.958680 0.499980 0.958690 1.021099
Cu12  Cu    Cu3+1 0.041320 0.499980 0.041310 1.021088
O45   O     O_R   0.465110 0.935690 0.965100 -0.553850
O46   O     O_R   0.534890 0.935690 0.034900 -0.553882
O47   O     O_R   0.965110 0.435690 0.965100 -0.553918
O48   O     O_R   0.034890 0.435690 0.034900 -0.553889
C119  C     C_R   0.500000 0.914944 0.000000 0.946307
C120  C     C_R   0.000000 0.414944 0.000000 0.946236
C121  C     C_R   0.987023 0.797500 0.949578 -0.160917
C122  C     C_R   0.012975 0.797500 0.050421 -0.160988
C123  C     C_R   0.487025 0.297500 0.949579 -0.161332
C124  C     C_R   0.512974 0.297500 0.050421 -0.161330
H57   H     H_    0.977138 0.780076 0.910413 0.136806
H58   H     H_    0.022861 0.780075 0.089586 0.136765
H59   H     H_    0.477141 0.280076 0.910415 0.136577
H60   H     H_    0.522859 0.280075 0.089585 0.136553
C125  C     C_R   0.987345 0.843368 0.949761 -0.175591
C126  C     C_R   0.012654 0.843368 0.050238 -0.175782
C127  C     C_R   0.487347 0.343368 0.949763 -0.176078
C128  C     C_R   0.512653 0.343368 0.050237 -0.175980
H61   H     H_    0.977311 0.860592 0.910395 0.155818
H62   H     H_    0.022688 0.860592 0.089604 0.155748
H63   H     H_    0.477314 0.360592 0.910397 0.155616
H64   H     H_    0.522686 0.360592 0.089603 0.155644
C129  C     C_R   0.999999 0.866653 1.000000 -0.030995
C130  C     C_R   0.500000 0.366653 0.000000 -0.030810
C131  C     C_R   0.999999 0.774314 0.999999 0.097114
C132  C     C_R   0.500000 0.274313 1.000000 0.097275
C133  C     C_R   0.535732 0.202760 0.048818 -0.160400
C134  C     C_R   0.464268 0.202760 0.951182 -0.160455
C135  C     C_R   0.035732 0.702760 0.048816 -0.160183
C136  C     C_R   0.964267 0.702760 0.951182 -0.160026
H65   H     H_    0.563667 0.220184 0.086708 0.136491
H66   H     H_    0.436333 0.220184 0.913292 0.136408
H67   H     H_    0.063668 0.720184 0.086706 0.136685
H68   H     H_    0.936332 0.720184 0.913293 0.136909
C137  C     C_R   0.535856 0.156892 0.048603 -0.173832
C138  C     C_R   0.464143 0.156892 0.951397 -0.173779
C139  C     C_R   0.035857 0.656892 0.048602 -0.173544
C140  C     C_R   0.964143 0.656892 0.951398 -0.173516
C141  C     C_R   0.500000 0.133613 1.000000 -0.026356
C142  C     C_R   1.000000 0.633613 1.000000 -0.026571
C143  C     C_R   0.500000 0.225946 1.000000 0.096698
C144  C     C_R   0.999999 0.725946 0.999999 0.096454
C145  C     C_R   0.017349 0.202348 0.981828 -0.150890
C146  C     C_R   0.982653 0.202348 0.018175 -0.150912
C147  C     C_R   0.517354 0.702348 0.981835 -0.150626
C148  C     C_R   0.482645 0.702348 0.018163 -0.150597
H69   H     H_    0.031716 0.219385 0.968766 0.143625
H70   H     H_    0.968286 0.219385 0.031237 0.143617
H71   H     H_    0.531726 0.719385 0.968782 0.143711
H72   H     H_    0.468273 0.719386 0.031216 0.143722
C149  C     C_R   0.016945 0.156527 0.981231 -0.180998
C150  C     C_R   0.983057 0.156528 0.018771 -0.180938
C151  C     C_R   0.516950 0.656527 0.981240 -0.180640
C152  C     C_R   0.483049 0.656528 0.018759 -0.180661
C153  C     C_R   0.000000 0.133364 0.000000 -0.028771
C154  C     C_R   0.500000 0.633364 1.000000 -0.028836
C155  C     C_R   0.000001 0.225760 0.000002 0.145695
C156  C     C_R   0.500000 0.725760 0.999999 0.145615
C157  C     C_R   0.506441 0.797685 0.045640 -0.203047
C158  C     C_R   0.493559 0.797685 0.954360 -0.202979
C159  C     C_R   0.006445 0.297685 0.045644 -0.203188
C160  C     C_R   0.993558 0.297685 0.954359 -0.203307
H73   H     H_    0.512468 0.780046 0.081960 0.178239
H74   H     H_    0.487532 0.780047 0.918039 0.178261
H75   H     H_    0.012474 0.280047 0.081966 0.178157
H76   H     H_    0.987529 0.280047 0.918037 0.178097
C161  C     C_R   0.506600 0.843680 0.046354 0.295302
C162  C     C_R   0.493401 0.843681 0.953647 0.295301
C163  C     C_R   0.006602 0.343680 0.046357 0.295292
C164  C     C_R   0.993399 0.343680 0.953645 0.295336
C165  C     C_R   0.500000 0.866911 0.000000 -0.265434
C166  C     C_R   0.000000 0.366911 0.000001 -0.265410
C167  C     C_R   0.500000 0.774411 1.000000 -0.031137
C168  C     C_R   0.000001 0.274411 0.000002 -0.031098
H77   H     H_    0.436135 0.982491 0.715513 0.164549
H78   H     H_    0.563868 0.982515 0.284492 0.164030
H79   H     H_    0.936136 0.482486 0.715513 0.164586
H80   H     H_    0.063897 0.482610 0.284520 0.164836
H81   H     H_    0.434921 0.983646 0.794673 0.179415
H82   H     H_    0.565084 0.983670 0.205333 0.179274
H83   H     H_    0.934921 0.483642 0.794674 0.179430
H84   H     H_    0.065108 0.483767 0.205357 0.179405
N1    N     N_R   0.290984 0.965300 0.366883 0.131749
O49   O     O_R   0.279855 0.996543 0.382635 -0.365476
O50   O     O_R   0.315960 0.934604 0.405864 -0.343995
N2    N     N_R   0.709002 0.957882 0.636954 0.131759
O51   O     O_R   0.720142 0.986282 0.618226 -0.365814
O52   O     O_R   0.684019 0.925939 0.601102 -0.342844
N3    N     N_R   0.790982 0.466252 0.367310 0.131723
O53   O     O_R   0.779855 0.497828 0.382671 -0.365330
O54   O     O_R   0.815958 0.435733 0.406671 -0.344452
N4    N     N_R   0.209021 0.470971 0.630778 0.131755
O55   O     O_R   0.220139 0.504104 0.617381 -0.365085
O56   O     O_R   0.184052 0.441383 0.589590 -0.345044
N5    N     N_R   0.578241 0.014366 0.853270 0.117668
O57   O     O_R   0.587390 0.992984 0.826555 -0.337224
O58   O     O_R   0.606906 0.038633 0.900103 -0.350308
N6    N     N_R   0.421750 0.014336 0.146721 0.117679
O59   O     O_R   0.412610 0.992954 0.173447 -0.337174
O60   O     O_R   0.393076 0.038587 0.099875 -0.350404
N7    N     N_R   0.078240 0.514364 0.853269 0.117631
O61   O     O_R   0.087398 0.492963 0.826577 -0.337497
O62   O     O_R   0.106896 0.538652 0.900081 -0.350216
N8    N     N_R   0.921735 0.514204 0.146710 0.117657
O63   O     O_R   0.912626 0.492804 0.173465 -0.337513
O64   O     O_R   0.893025 0.538412 0.099833 -0.350091
H85   H     H_    0.563844 0.139660 0.086690 0.155065
H86   H     H_    0.436155 0.139660 0.913310 0.155082
H87   H     H_    0.063845 0.639660 0.086688 0.155261
H88   H     H_    0.936154 0.639660 0.913311 0.155333
H89   H     H_    0.030556 0.139204 0.967139 0.155362
H90   H     H_    0.969445 0.139204 0.032863 0.155374
H91   H     H_    0.530567 0.639204 0.967156 0.155456
H92   H     H_    0.469432 0.639204 0.032843 0.155454
N9    N     N_R   0.512927 0.865980 0.093940 0.115981
O65   O     O_R   0.537752 0.899744 0.121283 -0.368497
O66   O     O_R   0.498481 0.848920 0.115758 -0.344932
N10   N     N_R   0.487073 0.865981 0.906061 0.115981
O67   O     O_R   0.462245 0.899743 0.878714 -0.368463
O68   O     O_R   0.501522 0.848924 0.884246 -0.344955
N11   N     N_R   0.012929 0.365980 0.093943 0.115925
O69   O     O_R   0.037750 0.399748 0.121282 -0.368505
O70   O     O_R   0.998486 0.348919 0.115765 -0.345250
N12   N     N_R   0.987071 0.365980 0.906058 0.115909
O71   O     O_R   0.962246 0.399744 0.878716 -0.368620
O72   O     O_R   0.001515 0.348921 0.884238 -0.345288
H93   H     H_    0.286623 0.055138 0.334001 0.216726
H94   H     H_    0.713396 0.050119 0.660745 0.216504
H95   H     H_    0.786625 0.555727 0.333311 0.216817
H96   H     H_    0.213361 0.558474 0.670159 0.216933
H97   H     H_    0.286186 0.016227 0.216331 0.196939
H98   H     H_    0.713822 0.023116 0.781708 0.196417
H99   H     H_    0.786187 0.515355 0.216135 0.197028
H100  H     H_    0.213812 0.511060 0.784669 0.197298

loop_
_geom_bond_atom_site_label_1
_geom_bond_atom_site_label_2
_geom_bond_distance
_ccdc_geom_bond_type
N4    O56   1.301043 A    
C69   H45   1.082942 S    
C17   C33   1.550599 S    
C13   H5    1.113260 S    
C74   H50   1.083383 S    
C146  C150  1.392468 A    
C136  H68   1.083272 S    
C15   H7    1.113263 S    
C71   H47   1.082943 S    
C21   C107  1.436868 S    
C133  H65   1.083271 S    
C106  C130  1.469153 S    
C135  H67   1.083270 S    
C22   C46   1.207181 T    
O43   C117  1.285880 A    
C124  H60   1.083278 S    
C148  H72   1.082587 S    
O44   Cu11  1.963466 S    
O33   C113  1.286553 A    
C34   C38   1.551968 S    
C163  N11   1.439815 S    
C12   H28   1.115306 S    
O4    C4    1.295887 A    
O35   Cu11  1.964783 S    
C44   H100  1.113210 S    
C72   H48   1.082939 S    
C41   H97   1.113208 S    
Cu5   Cu6   2.677281 S    
C86   H82   1.083010 S    
C66   C70   1.405381 A    
O48   C120  1.282789 A    
C159  C168  1.400908 A    
C81   C101  1.401559 A    
C82   H78   1.083647 S    
C93   H53   1.083101 S    
C94   C98   1.401340 A    
C59   C63   1.393845 A    
C51   C55   1.207047 T    
O19   Cu7   1.964717 S    
C92   C96   1.403870 A    
C133  C137  1.393898 A    
C50   C54   1.207051 T    
C95   H55   1.083099 S    
O16   Cu4   1.941676 S    
C139  H87   1.083062 S    
O28   Cu7   1.942046 S    
C125  C129  1.404050 A    
O13   C5    1.294842 A    
O7    Cu4   1.964635 S    
O42   Cu9   1.963466 S    
N2    O51   1.301430 A    
O18   C105  1.295980 A    
C80   C104  1.466759 S    
O15   C7    1.294842 A    
O38   C116  1.287797 A    
O6    C2    1.296862 A    
Cu11  Cu12  2.646132 S    
C57   C77   1.400835 A    
C79   C103  1.466766 S    
Cu9   Cu10  2.646132 S    
C84   C88   1.391374 A    
C32   C36   1.550637 S    
C10   H26   1.115307 S    
C121  C125  1.393908 A    
C134  C143  1.402196 A    
C36   C48   1.475951 S    
C25   C49   1.477060 S    
C65   C69   1.405380 A    
C24   C110  1.436871 S    
C140  C142  1.403959 A    
C75   H51   1.083380 S    
C145  C155  1.405713 A    
C58   C78   1.400836 A    
C88   C92   1.400932 A    
O23   C109  1.294183 A    
C4    C68   1.470047 S    
O34   Cu10  1.964782 S    
O3    Cu2   1.963761 S    
C38   H34   1.113001 S    
H1    C29   1.112687 S    
C82   C86   1.391375 A    
C126  C129  1.404051 A    
C40   H24   1.112967 S    
C157  C161  1.397843 A    
C84   C104  1.401555 A    
C30   C34   1.550629 S    
C42   H18   1.113084 S    
N10   O67   1.300309 A    
Cu12  O48   1.964483 S    
C34   C46   1.475941 S    
O3    C3    1.295893 A    
C13   C25   1.552995 S    
C59   C79   1.400844 A    
C37   C41   1.554084 S    
C123  H59   1.083280 S    
C69   C73   1.393092 A    
C91   C117  1.470084 S    
C39   C43   1.554084 S    
O40   C118  1.287794 A    
C89   C93   1.403867 A    
C128  H64   1.083059 S    
C19   H11   1.112963 S    
N3    O54   1.301040 A    
N11   O69   1.300310 A    
C43   H99   1.113209 S    
C38   H22   1.112970 S    
O5    C1    1.296862 A    
C26   C50   1.477062 S    
O38   Cu10  1.962906 S    
C123  C127  1.393905 A    
C9    N1    1.468999 S    
C139  C142  1.403958 A    
N1    O50   1.301042 A    
O22   Cu6   1.940769 S    
C64   C68   1.404855 A    
C12   N4    1.469003 S    
N5    O58   1.301470 A    
O5    Cu3   1.964635 S    
C112  C154  1.463893 S    
C25   C41   1.552648 S    
O43   Cu12  1.963472 S    
C152  H92   1.083255 S    
C14   H6    1.113266 S    
O41   Cu10  1.963472 S    
C136  C140  1.393898 A    
C147  C151  1.392471 A    
C31   C35   1.550627 S    
C150  H90   1.083262 S    
C16   H96   1.109927 S    
C17   H13   1.113059 S    
C71   C75   1.393089 A    
C151  C154  1.401371 A    
C134  H66   1.083271 S    
C8    C56   1.436673 S    
C29   H29   1.113297 S    
N8    O64   1.301470 A    
C35   C47   1.475950 S    
C131  C144  1.469792 S    
C132  C143  1.469792 S    
C9    C25   1.563773 S    
C124  C132  1.402172 A    
C83   C87   1.391379 A    
O13   Cu3   1.941677 S    
O18   Cu6   1.964717 S    
C11   C27   1.563774 S    
C42   H98   1.113211 S    
C160  H76   1.082885 S    
C135  C139  1.393901 A    
O25   Cu6   1.942044 S    
C12   C28   1.563771 S    
O19   C106  1.295978 A    
O37   C115  1.287796 A    
N8    O63   1.301328 A    
O24   Cu8   1.940769 S    
C148  C152  1.392471 A    
C60   H40   1.083347 S    
C61   H41   1.082910 S    
C63   H43   1.082907 S    
C68   C72   1.405372 A    
C39   H23   1.112966 S    
C10   C30   1.559485 S    
O15   Cu4   1.941677 S    
C14   H94   1.109938 S    
C57   H37   1.083348 S    
C94   H54   1.083100 S    
C59   H39   1.083346 S    
C155  C168  1.478434 S    
C156  C167  1.478434 S    
C9    C29   1.559480 S    
C134  C138  1.393901 A    
C95   C99   1.401333 A    
C96   C100  1.401343 A    
C125  H61   1.083055 S    
C19   C35   1.550597 S    
C75   C79   1.399578 A    
C20   C36   1.550596 S    
O14   C6    1.294847 A    
C26   C42   1.552652 S    
C40   C44   1.554084 S    
N6    O59   1.301330 A    
C138  C141  1.403957 A    
C10   N2    1.468999 S    
C15   C27   1.552994 S    
C158  C167  1.400896 A    
C127  H63   1.083056 S    
O34   C113  1.286553 A    
O33   Cu9   1.964783 S    
C15   H95   1.109918 S    
C121  H57   1.083281 S    
C122  C131  1.402170 A    
O10   C6    1.294848 A    
C152  C154  1.401369 A    
C76   C80   1.399573 A    
C16   C28   1.553000 S    
O28   C110  1.294618 A    
C89   C115  1.470080 S    
C22   C108  1.436872 S    
C16   H8    1.113269 S    
O37   Cu9   1.962908 S    
Cu11  O47   1.964482 S    
C163  C166  1.415388 A    
O25   C107  1.294610 A    
C127  C130  1.404051 A    
C100  C104  1.414854 A    
O35   C114  1.286553 A    
C57   C61   1.393844 A    
C150  C153  1.401367 A    
H3    C31   1.112679 S    
N12   O71   1.300311 A    
C161  C165  1.415371 A    
O45   C119  1.282783 A    
O39   C117  1.287791 A    
O17   Cu5   1.964717 S    
C161  N9    1.439795 S    
C18   C34   1.550607 S    
Cu9   O45   1.964482 S    
C158  C162  1.397843 A    
C60   C80   1.400839 A    
C99   N7    1.440541 S    
C5    C53   1.436676 S    
O26   C108  1.294610 A    
C23   C47   1.207185 T    
C105  C129  1.469150 S    
O32   C112  1.294648 A    
C14   C26   1.552993 S    
N2    O52   1.301036 A    
C137  C141  1.403959 A    
O40   Cu12  1.962906 S    
C90   C94   1.403868 A    
C19   H15   1.113055 S    
C164  C166  1.415384 A    
C20   H16   1.113060 S    
O8    Cu4   1.964635 S    
C33   C37   1.551974 S    
C133  C143  1.402197 A    
C87   C91   1.400927 A    
O8    C4    1.296855 A    
N9    O66   1.301450 A    
C98   C102  1.414855 A    
C36   C40   1.551974 S    
C64   H44   1.082911 S    
C27   C51   1.477063 S    
N4    O55   1.301430 A    
C14   C18   1.551921 S    
Cu5   O29   1.964714 S    
C28   C44   1.552644 S    
C113  C141  1.468846 S    
C147  C156  1.405708 A    
C83   C103  1.401565 A    
C149  C153  1.401373 A    
O1    C1    1.295896 A    
C49   C53   1.207050 T    
C138  H86   1.083063 S    
C145  H69   1.082582 S    
O27   Cu8   1.942044 S    
O21   Cu5   1.940768 S    
C162  C165  1.415369 A    
C136  C144  1.402196 A    
C15   C19   1.551928 S    
N7    O61   1.301334 A    
C2    C66   1.470067 S    
C43   H19   1.113078 S    
C70   C74   1.393089 A    
C17   H9    1.112970 S    
C18   H14   1.113065 S    
O30   C111  1.294650 A    
C122  C126  1.393905 A    
N10   O68   1.301449 A    
C6    C54   1.436676 S    
C9    H25   1.115304 S    
O36   C114  1.286553 A    
C10   C26   1.563775 S    
C157  C167  1.400893 A    
C160  C164  1.397840 A    
C85   C89   1.400924 A    
Cu10  O46   1.964483 S    
O24   C110  1.294181 A    
C13   C17   1.551926 S    
C148  C156  1.405710 A    
C60   C64   1.393845 A    
C63   C67   1.404857 A    
C121  C131  1.402168 A    
C61   C65   1.404861 A    
C111  C153  1.463890 S    
O4    Cu2   1.963764 S    
N11   O70   1.301441 A    
C37   H33   1.112994 S    
C39   H35   1.112992 S    
C145  C149  1.392468 A    
C74   C78   1.399568 A    
C72   C76   1.393089 A    
N1    O49   1.301427 A    
C29   C33   1.550631 S    
C41   H17   1.113080 S    
C73   H49   1.083382 S    
O20   C106  1.295980 A    
O2    Cu1   1.963764 S    
C81   H77   1.083647 S    
O10   Cu1   1.941393 S    
C81   C85   1.391372 A    
N5    O57   1.301329 A    
C157  H73   1.082885 S    
C33   C45   1.475949 S    
C11   C31   1.559478 S    
O41   C115  1.285879 A    
N3    O53   1.301419 A    
C96   H56   1.083099 S    
C38   C42   1.554082 S    
C123  C132  1.402171 A    
C124  C128  1.393904 A    
C159  H75   1.082888 S    
C92   C118  1.470112 S    
C146  C155  1.405709 A    
C119  C165  1.459636 S    
C28   C52   1.477058 S    
Cu7   Cu8   2.677281 S    
C147  H71   1.082584 S    
C76   H52   1.083382 S    
C73   C77   1.399568 A    
C27   C43   1.552646 S    
O7    C3    1.296859 A    
C84   H80   1.083648 S    
C140  H88   1.083065 S    
C85   H81   1.083010 S    
C67   C71   1.405375 A    
C128  C130  1.404051 A    
O44   C118  1.285888 A    
C93   C97   1.401339 A    
O26   Cu5   1.942046 S    
O39   Cu11  1.962908 S    
C164  N12   1.439814 S    
C88   H84   1.083007 S    
C52   C56   1.207046 T    
C120  C166  1.459639 S    
C44   H20   1.113081 S    
C159  C163  1.397840 A    
C12   C32   1.559477 S    
C87   H83   1.083009 S    
O11   C7    1.294853 A    
O12   C8    1.294852 A    
O1    Cu1   1.963761 S    
O9    Cu1   1.941392 S    
C30   H30   1.113301 S    
O47   C120  1.282786 A    
C114  C142  1.468846 S    
O20   Cu8   1.964717 S    
O9    C5    1.294853 A    
O16   C8    1.294840 A    
C16   C20   1.551927 S    
N6    O60   1.301467 A    
C100  N8    1.440556 S    
O17   C105  1.295978 A    
O11   Cu2   1.941392 S    
C99   C103  1.414848 A    
O23   Cu7   1.940768 S    
C20   H12   1.112967 S    
O29   C111  1.294655 A    
O46   C119  1.282786 A    
C11   H27   1.115305 S    
C62   H42   1.082911 S    
C91   C95   1.403861 A    
Cu6   O30   1.964715 S    
C162  N10   1.439794 S    
O36   Cu12  1.964782 S    
C98   N6    1.440561 S    
O6    Cu3   1.964635 S    
C97   C101  1.414857 A    
C40   H36   1.112998 S    
C149  H89   1.083261 S    
C77   C101  1.466757 S    
C151  H91   1.083260 S    
N7    O62   1.301467 A    
C58   H38   1.083344 S    
C13   H93   1.109924 S    
C37   H21   1.112968 S    
N12   O72   1.301443 A    
C7    C55   1.436676 S    
H4    C32   1.112686 S    
C97   N5    1.440556 S    
O2    C2    1.295894 A    
O42   C116  1.285879 A    
C126  H62   1.083057 S    
O31   C112  1.294653 A    
Cu7   O31   1.964714 S    
O21   C107  1.294187 A    
C146  H70   1.082584 S    
O14   Cu3   1.941676 S    
C21   C45   1.207185 T    
C83   H79   1.083648 S    
O12   Cu2   1.941393 S    
C3    C67   1.470055 S    
C70   H46   1.082938 S    
C18   H10   1.112971 S    
C1    C65   1.470068 S    
Cu1   Cu3   2.678116 S    
C122  H58   1.083281 S    
Cu2   Cu4   2.678116 S    
C78   C102  1.466753 S    
C82   C102  1.401559 A    
C35   C39   1.551980 S    
C24   C48   1.207185 T    
C31   H31   1.113299 S    
C23   C109  1.436871 S    
O27   C109  1.294611 A    
C160  C168  1.400910 A    
C86   C90   1.400923 A    
C58   C62   1.393851 A    
C11   N3    1.469000 S    
O22   C108  1.294189 A    
Cu8   O32   1.964715 S    
C137  H85   1.083063 S    
H2    C30   1.112693 S    
C90   C116  1.470087 S    
C32   H32   1.113297 S    
N9    O65   1.300308 A    
C62   C66   1.404859 A    
C158  H74   1.082883 S    
C135  C144  1.402198 A    
