data_mof_unit_50586.cif
_audit_creation_date              2013-03-05T16:23:19-0500
_audit_creation_method            fapswitch 2.2
_symmetry_space_group_name_H-M    P1
_symmetry_Int_Tables_number       1
_space_group_crystal_system       triclinic
_cell_length_a                    27.698842
_cell_length_b                    10.504398
_cell_length_c                    9.83337
_cell_angle_alpha                 88.707117
_cell_angle_beta                  89.633112
_cell_angle_gamma                 89.921916
_cell_volume                      2860.32484677

loop_
_atom_site_label
_atom_site_type_symbol
_atom_site_description
_atom_site_fract_x
_atom_site_fract_y
_atom_site_fract_z
_atom_type_partial_charge
O1    O     O_R   0.500000 0.313960 0.616610 -0.599815
O2    O     O_R   0.500000 0.686040 0.383390 -0.591753
O3    O     O_R   0.500020 0.313950 0.383350 -0.562584
O4    O     O_R   0.499980 0.686050 0.616650 -0.569024
C1    C     C_R   0.500876 0.258133 0.501553 0.848649
C2    C     C_R   0.499131 0.741876 0.498457 0.851993
O5    O     O_R   0.428750 0.500030 0.616610 -0.558288
O6    O     O_R   0.571250 0.499970 0.383390 -0.570065
O7    O     O_R   0.428770 0.500020 0.383360 -0.580577
O8    O     O_R   0.571230 0.499980 0.616640 -0.565256
C3    C     C_R   0.406292 0.496423 0.500278 0.838489
C4    C     C_R   0.593798 0.504045 0.499751 0.853702
Zn1   Zn    Zn3+2 0.499990 0.500010 0.655740 1.086785
Zn2   Zn    Zn3+2 0.500010 0.499990 0.344260 1.078800
C5    C     C_R   0.176782 0.384668 0.518756 0.547529
C6    C     C_R   0.823159 0.613683 0.525066 0.551152
O9    O     O_2   0.201059 0.274830 0.500294 -0.503091
O10   O     O_2   0.798622 0.724790 0.520422 -0.502570
N1    N     N_R   0.200959 0.497751 0.509563 -0.359195
N2    N     N_R   0.799300 0.502748 0.502017 -0.359596
C7    C     C_R   0.177342 0.611855 0.513846 0.603468
C8    C     C_R   0.823019 0.389286 0.492132 0.604702
C9    C     C_R   0.278054 0.547128 0.391033 0.032795
C10   C     C_R   0.722390 0.476457 0.379438 0.030324
C11   C     C_R   0.328350 0.546083 0.391329 -0.276406
C12   C     C_R   0.672088 0.477694 0.381224 -0.258109
C13   C     C_R   0.327744 0.427666 0.607506 0.442333
C14   C     C_R   0.672577 0.548798 0.615811 0.444259
C15   C     C_R   0.277802 0.437456 0.611273 -0.101951
C16   C     C_R   0.722532 0.539500 0.615604 -0.105512
C17   C     C_R   0.252653 0.495685 0.503750 0.144809
C18   C     C_R   0.747663 0.504903 0.498413 0.146823
C19   C     C_R   0.101365 0.499248 0.535165 -0.187836
C20   C     C_R   0.898646 0.498025 0.529900 -0.187543
C21   C     C_R   0.126924 0.382940 0.544201 -0.200689
C22   C     C_R   0.872890 0.612241 0.550866 -0.202464
C23   C     C_R   0.101921 0.269348 0.579807 0.447161
C24   C     C_R   0.897530 0.720266 0.598940 0.444976
C25   C     C_R   0.126568 0.615487 0.517853 -0.075702
C26   C     C_R   0.873740 0.385082 0.498454 -0.076699
C27   C     C_R   0.353575 0.489145 0.500196 -0.182042
C28   C     C_R   0.646675 0.511619 0.499238 -0.178125
H1    H     H_    0.258068 0.394416 0.695954 0.173413
H2    H     H_    0.742300 0.564171 0.706028 0.171240
C29   C     C_R   0.975196 0.382184 0.525591 0.004224
C30   C     C_R   0.024842 0.615090 0.539368 0.003582
C31   C     C_R   0.974292 0.612176 0.562437 -0.092399
C32   C     C_R   0.025475 0.381775 0.551512 -0.091107
C33   C     C_R   0.949333 0.497095 0.540500 -0.034809
C34   C     C_R   0.050588 0.498914 0.543318 -0.034567
C35   C     C_R   0.950920 0.274418 0.476060 0.304448
C36   C     C_R   0.049616 0.728669 0.502930 0.301666
C37   C     C_R   0.899883 0.272301 0.473388 0.363837
C38   C     C_R   0.100674 0.730939 0.503466 0.357251
O11   O     O_2   0.797298 0.281627 0.476668 -0.454050
O12   O     O_2   0.203177 0.720659 0.514392 -0.455937
C39   C     C_R   0.051633 0.269322 0.586306 0.481657
C40   C     C_R   0.947732 0.719233 0.607574 0.484924
H3    H     H_    0.652812 0.451334 0.290442 0.213781
H4    H     H_    0.347853 0.590267 0.306736 0.214137
C41   C     C_3   0.509544 0.033838 0.627062 -0.001892
C42   C     C_3   0.490494 0.966198 0.372974 0.000362
C43   C     C_3   0.543436 0.952606 0.538945 -0.264843
C44   C     C_3   0.456600 0.047420 0.461106 -0.271659
H5    H     H_    0.578620 0.910585 0.569936 0.161861
H6    H     H_    0.421403 0.089412 0.430207 0.165595
C45   C     C_3   0.498855 0.876627 0.495520 -0.078071
C46   C     C_3   0.501178 0.123396 0.504525 -0.078567
C47   C     C_3   0.465588 0.956684 0.584093 -0.027231
C48   C     C_3   0.534451 0.043359 0.415957 -0.019138
C49   C     C_3   0.494842 0.386544 0.050423 0.272938
C50   C     C_3   0.505276 0.613547 0.949645 0.292535
C51   C     C_3   0.534653 0.431293 0.953359 0.324777
C52   C     C_3   0.465452 0.568854 0.046709 0.319180
N3    N     N_3   0.499960 0.500030 0.863290 -0.132914
N4    N     N_3   0.500040 0.499970 0.136710 -0.130935
C53   C     C_3   0.460196 0.455474 0.954562 0.233868
C54   C     C_3   0.539916 0.544642 0.045796 0.240400
O13   O     O_3   0.349399 0.353191 0.706842 -0.698311
H7    H     H_    0.379057 0.315278 0.668019 0.351817
O14   O     O_3   0.650807 0.596766 0.730208 -0.730700
H8    H     H_    0.624473 0.654428 0.699778 0.340602
C55   C     C_1   0.520793 0.068154 0.767086 0.282187
N5    N     N_1   0.529870 0.093975 0.877702 -0.145124
C56   C     C_1   0.479280 0.931859 0.232929 0.281169
N6    N     N_1   0.470243 0.906005 0.122293 -0.144556
C57   C     C_1   0.427727 0.906390 0.675683 0.252072
N7    N     N_1   0.397974 0.866547 0.747904 -0.149367
C58   C     C_1   0.572312 0.093896 0.324492 0.251788
N8    N     N_1   0.602063 0.133980 0.252407 -0.163492
O15   O     O_3   0.571942 0.358661 0.898268 -0.686062
H9    H     H_    0.589942 0.323777 0.977554 0.357314
O16   O     O_3   0.428158 0.641457 0.101821 -0.723774
H10   H     H_    0.410228 0.676633 0.022552 0.359364
O17   O     O_3   0.489786 0.264886 0.109380 -0.718527
H11   H     H_    0.468059 0.217900 0.048641 0.348946
O18   O     O_3   0.510282 0.735223 0.890694 -0.720517
H12   H     H_    0.532408 0.781834 0.950642 0.348858
O19   O     O_3   0.417446 0.407588 0.901973 -0.685697
H13   H     H_    0.396678 0.388058 0.982186 0.355041
O20   O     O_3   0.582608 0.592386 0.099729 -0.726194
H14   H     H_    0.603721 0.611371 0.020104 0.362337
O21   O     O_3   0.125339 0.158506 0.618542 -0.661778
H15   H     H_    0.153012 0.181975 0.676195 0.362138
O22   O     O_3   0.873738 0.825511 0.647497 -0.651448
H16   H     H_    0.846095 0.794580 0.703498 0.359732
C59   C     C_1   0.747475 0.447127 0.254922 0.269453
N9    N     N_1   0.767604 0.423613 0.155078 -0.153843
C60   C     C_1   0.253167 0.599473 0.273985 0.264997
N10   N     N_1   0.233197 0.641408 0.180129 -0.147810
O23   O     O_3   0.875321 0.161846 0.444288 -0.663162
H17   H     H_    0.895092 0.087680 0.474008 0.381718
O24   O     O_3   0.125528 0.844295 0.487019 -0.657865
H18   H     H_    0.105319 0.914222 0.522435 0.392508
O25   O     O_3   0.977830 0.177633 0.419673 -0.698797
H19   H     H_    0.958177 0.133768 0.351219 0.363676
O26   O     O_3   0.023302 0.832390 0.455523 -0.688742
H20   H     H_    0.043665 0.884783 0.392912 0.370854
O27   O     O_3   0.029774 0.161250 0.640552 -0.641431
H21   H     H_    0.998991 0.186254 0.684432 0.342867
O28   O     O_3   0.968984 0.819161 0.673821 -0.641390
H22   H     H_    0.999242 0.788210 0.716511 0.337730

loop_
_geom_bond_atom_site_label_1
_geom_bond_atom_site_label_2
_geom_bond_distance
_ccdc_geom_bond_type
C57   N7    1.157029 T    
C43   H5    1.110866 S    
O20   H14   0.991073 S    
C13   C15   1.387328 A    
O17   H11   0.990574 S    
O23   H17   0.991388 S    
N1    C17   1.432790 S    
O18   H12   0.990596 S    
C32   C39   1.421264 A    
C31   C33   1.414831 A    
C56   N6    1.156280 T    
C5    N1    1.365364 A    
O16   H10   0.991078 S    
C52   N4    1.484838 S    
C42   C45   1.530631 S    
O1    C1    1.286120 A    
C44   C46   1.539047 S    
C21   C23   1.416437 A    
N4    C54   1.486342 S    
C13   O13   1.377562 S    
C50   N3    1.487424 S    
C49   N4    1.485910 S    
C25   C38   1.412936 A    
C49   O17   1.398167 S    
C29   C35   1.414912 A    
O25   H19   0.990525 S    
C38   O24   1.382043 S    
C30   C36   1.415080 A    
C42   C48   1.530618 S    
C14   C28   1.418731 A    
O4    Zn1   1.983153 S    
C41   C43   1.543048 S    
C42   C44   1.543087 S    
C24   C40   1.393693 A    
Zn1   N3    2.040915 S    
C40   O28   1.382084 S    
C52   C53   1.520385 S    
C4    C28   1.466867 S    
C59   N9    1.157319 T    
C53   O19   1.394206 S    
C11   H4    1.084755 S    
C12   H3    1.084576 S    
C47   C57   1.469011 S    
C6    N2    1.364548 A    
C39   O27   1.382128 S    
C36   O26   1.383787 S    
C37   O23   1.382226 S    
C32   C34   1.414771 A    
C15   H1    1.083716 S    
C54   O20   1.397426 S    
C51   N3    1.486387 S    
C52   O16   1.397057 S    
C16   H2    1.083787 S    
O2    C2    1.286250 A    
C1    C46   1.414983 S    
Zn2   N4    2.040916 S    
C5    C21   1.401962 A    
C36   C38   1.414543 A    
O14   H8    0.990895 S    
C50   O18   1.398179 S    
C9    C60   1.443214 S    
C42   C56   1.466717 S    
C43   C45   1.539168 S    
C51   O15   1.397058 S    
C50   C52   1.521793 S    
C41   C55   1.466662 S    
C11   C27   1.404097 A    
O15   H9    0.991105 S    
C23   O21   1.379337 S    
C19   C34   1.408228 A    
C51   C54   1.521887 S    
C35   O25   1.383731 S    
C45   C47   1.528237 S    
C9    C17   1.406976 A    
O5    C3    1.306944 A    
O7    Zn2   2.007954 S    
C10   C18   1.405298 A    
N3    C53   1.485769 S    
C13   C27   1.415390 A    
C55   N5    1.156260 T    
C7    C25   1.407178 A    
C43   C48   1.544186 S    
C29   C33   1.412787 A    
O6    C4    1.308647 A    
C8    C26   1.407274 A    
C10   C59   1.443061 S    
C19   C25   1.413725 A    
C44   C47   1.544097 S    
O7    C3    1.303770 A    
O28   H22   0.990957 S    
O3    Zn2   1.983156 S    
O8    C4    1.304755 A    
O4    C2    1.290268 A    
C2    C45   1.415127 S    
N2    C8    1.365236 A    
C20   C26   1.414428 A    
C48   C58   1.469164 S    
O1    Zn1   2.000362 S    
C49   C53   1.520746 S    
C12   C28   1.405966 A    
C49   C51   1.521717 S    
O24   H18   0.991007 S    
N2    C18   1.431097 S    
C29   C32   1.417390 A    
C41   C47   1.530511 S    
C5    O9    1.349869 S    
C30   C31   1.417274 A    
C20   C33   1.408516 A    
O6    Zn2   2.012849 S    
N1    C7    1.366064 A    
C14   O14   1.378042 S    
C10   C12   1.393341 A    
O3    C1    1.290318 A    
O8    Zn1   2.007958 S    
C7    O12   1.349420 S    
O27   H21   0.990942 S    
C8    O11   1.349421 S    
O22   H16   0.991093 S    
C30   C34   1.412519 A    
O19   H13   0.991133 S    
C24   O22   1.379237 S    
C22   C24   1.416811 A    
C15   C17   1.398712 A    
O26   H20   0.990550 S    
C6    C22   1.402239 A    
C31   C40   1.420904 A    
C16   C18   1.397323 A    
C41   C46   1.530504 S    
C14   C16   1.387003 A    
C19   C21   1.412558 A    
C3    C27   1.462310 S    
C20   C22   1.413459 A    
C9    C11   1.393201 A    
O2    Zn2   2.000360 S    
O13   H7    0.990536 S    
O5    Zn1   2.012844 S    
C6    O10   1.349820 S    
C26   C37   1.413215 A    
C50   C54   1.522272 S    
O21   H15   0.991023 S    
C46   C48   1.528197 S    
C35   C37   1.414309 A    
C58   N8    1.157061 T    
C60   N10   1.157276 T    
C23   C39   1.393979 A    
C44   H6    1.110812 S    
