data_mof_unit_22133.cif
_audit_creation_date              2012-12-10T18:42:35-0500
_audit_creation_method            fapswitch 2.2
_symmetry_space_group_name_H-M    P1
_symmetry_Int_Tables_number       1
_space_group_crystal_system       triclinic
_cell_length_a                    8.577041
_cell_length_b                    10.626301
_cell_length_c                    9.868696
_cell_angle_alpha                 90.251867
_cell_angle_beta                  98.9
_cell_angle_gamma                 90.297473
_cell_volume                      888.60101672

loop_
_atom_site_label
_atom_site_type_symbol
_atom_type_description
_atom_site_fract_x
_atom_site_fract_y
_atom_site_fract_z
_atom_type_partial_charge
C1    C     C_R   0.502926 0.260352 0.500037 0.910803
C2    C     C_R   0.498875 0.739665 0.500161 0.907443
C3    C     C_R   0.201090 0.499035 0.463942 0.960893
C4    C     C_R   0.798909 0.499740 0.536039 0.965477
C5    C     C_2   0.035705 0.498102 0.444660 -0.390125
C6    C     C_2   0.964258 0.498885 0.555264 -0.387164
C7    C     C_R   0.617338 0.063077 0.438965 0.212916
C8    C     C_R   0.384808 0.937019 0.561607 0.213408
C9    C     C_R   0.613375 0.933419 0.440101 -0.312136
C10   C     C_R   0.390135 0.066590 0.562034 -0.315069
C11   C     C_R   0.497594 0.871993 0.500183 -0.072186
C12   C     C_R   0.504020 0.128018 0.499658 -0.072494
C13   C     C_R   0.601665 0.575368 0.086292 -0.195486
C14   C     C_R   0.399057 0.423929 0.913620 -0.178767
C15   C     C_R   0.600856 0.576788 0.942137 0.280046
C16   C     C_R   0.398930 0.422785 0.058103 0.271138
H1    H     H_    0.701718 0.880629 0.396448 0.152524
H2    H     H_    0.303542 0.119457 0.607847 0.149553
H3    H     H_    0.682848 0.635380 0.152669 0.149479
H4    H     H_    0.317735 0.365168 0.846096 0.157404
N1    N     N_R   0.499960 0.499970 0.857200 -0.105601
N2    N     N_R   0.500040 0.500030 0.142800 -0.111028
O1    O     O_R   0.499990 0.316750 0.614620 -0.636150
O2    O     O_R   0.500010 0.683250 0.385380 -0.631937
O3    O     O_R   0.499990 0.316780 0.385290 -0.579932
O4    O     O_R   0.500010 0.683220 0.614710 -0.578884
O5    O     O_R   0.271750 0.499990 0.587840 -0.609637
O6    O     O_R   0.728250 0.500010 0.412160 -0.613808
O7    O     O_R   0.271750 0.500010 0.358510 -0.635213
O8    O     O_R   0.728250 0.499990 0.641490 -0.614861
Zn1   Zn    Zn3+2 0.500000 0.499980 0.653120 0.961168
Zn2   Zn    Zn3+2 0.500000 0.500020 0.346880 0.951512
H5    H     H_    0.973290 0.497479 0.339909 0.175019
H6    H     H_    0.026695 0.499545 0.660006 0.177779
N3    N     N_2   0.742054 0.127601 0.388151 -0.307629
H7    H     H_    0.851959 0.094218 0.429003 0.212430
C17   C     C_3   0.723414 0.135662 0.240305 -0.745513
H8    H     H_    0.725451 0.040226 0.194039 0.219263
H9    H     H_    0.821619 0.192404 0.210410 0.230328
H10   H     H_    0.610853 0.182556 0.199618 0.271135
N4    N     N_2   0.265780 0.872796 0.620763 -0.297711
H11   H     H_    0.233954 0.918582 0.704677 0.220067
C18   C     C_3   0.129583 0.835956 0.522937 -0.786829
H12   H     H_    0.067442 0.920653 0.476758 0.224059
H13   H     H_    0.046849 0.780756 0.575814 0.240383
H14   H     H_    0.165376 0.776483 0.440341 0.239848
N5    N     N_2   0.706396 0.656968 0.885444 -0.261679
H15   H     H_    0.822952 0.638695 0.923271 0.200015
C19   C     C_3   0.670907 0.789636 0.892559 -0.768887
H16   H     H_    0.694778 0.823692 0.000468 0.208462
H17   H     H_    0.545326 0.807425 0.850065 0.263258
H18   H     H_    0.746271 0.843586 0.831241 0.235376
N6    N     N_2   0.290175 0.346013 0.116105 -0.259950
H19   H     H_    0.188973 0.393080 0.129730 0.227903
C20   C     C_3   0.259449 0.220438 0.060483 -0.842155
H20   H     H_    0.175486 0.223808 0.962870 0.222145
H21   H     H_    0.205662 0.162684 0.134772 0.253652
H22   H     H_    0.370590 0.174622 0.042590 0.245945

loop_
_geom_bond_atom_site_label_1
_geom_bond_atom_site_label_2
_ccdc_geom_bond_type
C15   N1    A    
C18   H12   S    
O2    Zn2   S    
C17   H8    S    
O7    Zn2   S    
N1    Zn1   S    
N4    H11   S    
N4    C18   S    
N6    C20   S    
N3    H7    S    
C15   N5    S    
C9    C11   A    
C19   H18   S    
C6    H6    S    
O3    Zn2   S    
C13   C15   A    
O4    Zn1   S    
C2    O4    A    
N6    H19   S    
C1    O3    A    
C18   H13   S    
C5    C6    D    
C1    C12   S    
C10   C12   A    
C10   H2    S    
C8    C11   A    
C2    C11   S    
C14   N1    A    
C8    C10   A    
N3    C17   S    
C13   N2    A    
C1    O1    A    
C17   H10   S    
C7    C9    A    
C3    O5    A    
C20   H21   S    
C2    O2    A    
O8    Zn1   S    
C17   H9    S    
C18   H14   S    
C14   C16   A    
C7    C12   A    
C4    C6    S    
C13   H3    S    
C20   H20   S    
O5    Zn1   S    
C14   H4    S    
O6    Zn2   S    
N2    Zn2   S    
C8    N4    S    
N5    C19   S    
C19   H16   S    
C20   H22   S    
C9    H1    S    
C3    O7    A    
C19   H17   S    
C16   N6    S    
C16   N2    A    
C4    O6    A    
C7    N3    S    
C4    O8    A    
N5    H15   S    
O1    Zn1   S    
C3    C5    S    
C5    H5    S    
