data_mof_unit_16678.cif
_audit_creation_date              2013-03-05T16:18:42-0500
_audit_creation_method            fapswitch 2.2
_symmetry_space_group_name_H-M    P1
_symmetry_Int_Tables_number       1
_space_group_crystal_system       triclinic
_cell_length_a                    15.70658
_cell_length_b                    10.831934
_cell_length_c                    9.892308
_cell_angle_alpha                 89.43137
_cell_angle_beta                  88.612789
_cell_angle_gamma                 88.185747
_cell_volume                      1681.59714968

loop_
_atom_site_label
_atom_site_type_symbol
_atom_site_description
_atom_site_fract_x
_atom_site_fract_y
_atom_site_fract_z
_atom_type_partial_charge
O1    O     O_R   0.499980 0.314910 0.616040 -0.549354
O2    O     O_R   0.500040 0.314680 0.383960 -0.688742
C1    C     C_R   0.502295 0.257949 0.499963 0.984477
O3    O     O_R   0.376750 0.500100 0.616020 -0.586969
O4    O     O_R   0.376810 0.499870 0.383940 -0.594743
C2    C     C_R   0.338353 0.500598 0.501424 0.939420
Zn1   Zn    Zn3+2 0.499960 0.500150 0.654960 1.031341
Zn2   Zn    Zn3+2 0.500040 0.499850 0.345040 1.008406
O5    O     O_R   0.499960 0.685320 0.616040 -0.664186
O6    O     O_R   0.500020 0.685090 0.383960 -0.546399
O7    O     O_R   0.623190 0.500130 0.616060 -0.578450
O8    O     O_R   0.623250 0.499900 0.383980 -0.638300
C3    C     C_R   0.502810 0.741412 0.500451 0.843162
C4    C     C_R   0.661573 0.500506 0.498536 0.963831
C5    C     C_3   0.970155 0.416611 0.584065 -0.242490
C6    C     C_3   0.032178 0.393594 0.460784 -0.222005
H1    H     H_    0.059653 0.303001 0.427143 0.212676
H2    H     H_    0.944930 0.345255 0.654311 0.213942
C7    C     C_1   0.249455 0.502376 0.504657 -0.014285
C8    C     C_1   0.750294 0.501888 0.495147 -0.021984
C9    C     C_3   0.022451 0.527741 0.624297 0.297018
C10   C     C_3   0.083315 0.505308 0.503871 0.007663
C11   C     C_3   0.968042 0.616134 0.537987 -0.140280
C12   C     C_3   0.916203 0.505683 0.495496 0.007109
C13   C     C_3   0.029818 0.594675 0.415034 -0.291664
C14   C     C_3   0.977405 0.483349 0.375355 0.348925
C15   C     C_1   0.174135 0.503938 0.505637 0.126588
C16   C     C_1   0.825486 0.503522 0.493862 0.142586
H3    H     H_    0.055035 0.666209 0.344985 0.219264
C17   C     C_3   0.508840 0.070028 0.646316 -0.386591
H4    H     H_    0.460736 0.114982 0.714249 0.257288
H5    H     H_    0.571646 0.091296 0.687596 0.210647
C18   C     C_3   0.495640 0.930414 0.651613 -0.223213
H6    H     H_    0.430024 0.912969 0.690178 0.231480
C19   C     C_3   0.422036 0.076067 0.434627 0.082043
C20   C     C_3   0.589513 0.065582 0.418849 -0.166444
C21   C     C_3   0.505941 0.120852 0.498511 -0.083423
C22   C     C_3   0.505136 0.877808 0.503076 -0.193789
C23   C     C_3   0.428791 0.933279 0.418888 -0.283127
C24   C     C_3   0.593174 0.921880 0.444422 0.075061
H7    H     H_    0.639608 0.902845 0.525622 0.105896
H8    H     H_    0.416096 0.116487 0.331968 0.190469
H9    H     H_    0.444340 0.914950 0.311006 0.274394
C25   C     C_3   0.521141 0.374698 0.086473 -0.266972
H10   H     H_    0.480114 0.308502 0.141082 0.156217
C26   C     C_3   0.503552 0.366931 0.926105 -0.010579
H11   H     H_    0.369595 0.461977 0.097311 0.086778
C27   C     C_3   0.413932 0.539629 0.081947 0.158036
C28   C     C_3   0.563422 0.582629 0.074379 -0.216472
N1    N     N_3   0.498170 0.499750 0.138610 -0.146745
H12   H     H_    0.544997 0.679828 0.090287 0.262827
H13   H     H_    0.626063 0.571470 0.123444 0.223023
N2    N     N_3   0.498850 0.496730 0.861320 -0.100283
C29   C     C_3   0.423188 0.568862 0.925536 -0.253513
C30   C     C_3   0.573208 0.562324 0.915538 -0.267187
H14   H     H_    0.634368 0.512868 0.892085 0.252376
H15   H     H_    0.579503 0.652270 0.863642 0.176954
H16   H     H_    0.435652 0.669445 0.913429 0.219053
N3    N     N_R   0.344455 0.120948 0.508981 0.224065
O9    O     O_R   0.322141 0.076362 0.626751 -0.356066
O10   O     O_R   0.293669 0.201853 0.451654 -0.378929
C31   C     C_2   0.344630 0.871686 0.447223 0.582642
H17   H     H_    0.333623 0.820623 0.540647 0.067062
O11   O     O_2   0.287270 0.882045 0.366359 -0.461784
C32   C     C_2   0.593309 0.092737 0.267183 0.437011
H18   H     H_    0.654876 0.107070 0.217860 0.100227
O12   O     O_2   0.532093 0.085798 0.194560 -0.579452
C33   C     C_2   0.672672 0.115995 0.470322 0.251872
H19   H     H_    0.732560 0.068321 0.443689 0.141981
O13   O     O_2   0.674965 0.209727 0.537157 -0.547951
N4    N     N_R   0.627193 0.850011 0.328245 0.205479
O14   O     O_R   0.699018 0.787693 0.338239 -0.381875
O15   O     O_R   0.587081 0.847286 0.215155 -0.331685
C34   C     C_2   0.611826 0.338909 0.132239 0.434158
H20   H     H_    0.622779 0.321389 0.237684 0.122677
O16   O     O_2   0.674565 0.339625 0.057014 -0.536912
C35   C     C_2   0.570879 0.280661 0.862637 0.579032
H21   H     H_    0.572185 0.184069 0.893386 0.063069
O17   O     O_2   0.627146 0.316400 0.786472 -0.478402
C36   C     C_2   0.420599 0.299024 0.908508 0.200270
H22   H     H_    0.394506 0.242637 0.989778 0.132786
O18   O     O_2   0.383788 0.300365 0.801459 -0.505453
C37   C     C_2   0.336950 0.558556 0.863755 0.602928
H23   H     H_    0.300311 0.476197 0.876311 0.128811
O19   O     O_2   0.303565 0.648008 0.807506 -0.522578
N5    N     N_R   0.374336 0.646471 0.152646 0.245112
O20   O     O_R   0.407197 0.754905 0.142766 -0.349240
O21   O     O_R   0.295935 0.639903 0.197207 -0.340715
N6    N     N_R   0.953517 0.458449 0.237065 0.235428
O22   O     O_R   0.012500 0.439877 0.144358 -0.281955
O23   O     O_R   0.873792 0.454755 0.205270 -0.328571
C38   C     C_2   0.934823 0.740712 0.582634 0.541858
H24   H     H_    0.979212 0.809913 0.611412 0.088937
O24   O     O_2   0.858434 0.765044 0.586901 -0.543286
N7    N     N_R   0.045923 0.552280 0.762864 0.225559
O25   O     O_R   0.986724 0.570203 0.855372 -0.288351
O26   O     O_R   0.125517 0.554322 0.795498 -0.333742
C39   C     C_2   0.555045 0.875107 0.756377 0.431403
H25   H     H_    0.612793 0.823754 0.727003 0.084505
O27   O     O_2   0.539694 0.892070 0.876526 -0.510681

loop_
_geom_bond_atom_site_label_1
_geom_bond_atom_site_label_2
_geom_bond_distance
_ccdc_geom_bond_type
C5    H2    1.110257 S    
C17   H5    1.108454 S    
C30   H14   1.105741 S    
C24   N4    1.474452 S    
N7    O25   1.300226 A    
N2    C29   1.529960 S    
C14   N6    1.457235 S    
Zn1   O7    1.964240 S    
C2    C7    1.395415 S    
C34   O16   1.220539 D    
O4    C2    1.296716 A    
C20   C21   1.616151 S    
C19   C21   1.567910 S    
C12   C14   1.526664 S    
C22   C23   1.576471 S    
O7    C4    1.296601 A    
N5    O21   1.301678 A    
C5    C6    1.559345 S    
C19   N3    1.479304 S    
C18   C39   1.517442 S    
C28   N1    1.508467 S    
C19   H8    1.106743 S    
O5    C3    1.289994 A    
C31   O11   1.221002 D    
C37   H23   1.081349 S    
C6    H1    1.110248 S    
C32   O12   1.218733 D    
C10   C13   1.543615 S    
C11   C12   1.535968 S    
N6    O23   1.300398 A    
C7    C15   1.182405 T    
C35   H21   1.086404 S    
C35   O17   1.217469 D    
N3    O9    1.301201 A    
O1    Zn1   2.046849 S    
C9    C10   1.525778 S    
C13   H3    1.110375 S    
O3    Zn1   1.982318 S    
C29   C37   1.507202 S    
C25   C26   1.620315 S    
N2    C30   1.498980 S    
C6    C14   1.537995 S    
N3    O10   1.301402 A    
C34   H20   1.075334 S    
C4    C8    1.393641 S    
C20   C24   1.573987 S    
C36   O18   1.218495 D    
N4    O15   1.298190 A    
N5    O20   1.299685 A    
C33   H19   1.086658 S    
C23   H9    1.107464 S    
C9    N7    1.457194 S    
C28   H12   1.094896 S    
C13   C14   1.540718 S    
C28   C30   1.591858 S    
C17   C21   1.558414 S    
O1    C1    1.308113 A    
C27   C29   1.580425 S    
C19   C23   1.556048 S    
C31   H17   1.085410 S    
C26   C35   1.517433 S    
H11   C27   1.115777 S    
Zn2   O8    1.982318 S    
C28   H13   1.110230 S    
C20   C33   1.531789 S    
C38   O24   1.220061 D    
C18   H6    1.111415 S    
C25   C34   1.541695 S    
C3    C22   1.479537 S    
O3    C2    1.296767 A    
C24   H7    1.111389 S    
C37   O19   1.222569 D    
O8    C4    1.296143 A    
C39   H25   1.084003 S    
C39   O27   1.221558 D    
C10   C15   1.426604 S    
C30   H15   1.102854 S    
C27   N5    1.471287 S    
Zn1   N2    2.041007 S    
Zn2   N1    2.043003 S    
C25   H10   1.107210 S    
C29   H16   1.117803 S    
C25   N1    1.484894 S    
Zn1   O5    2.038611 S    
C23   C31   1.518310 S    
C5    C12   1.544016 S    
C6    C10   1.542535 S    
C17   C18   1.533136 S    
C20   C32   1.526133 S    
O2    Zn2   2.038612 S    
C12   C16   1.426286 S    
C36   H22   1.085123 S    
O6    C3    1.311543 A    
O4    Zn2   1.964240 S    
N7    O26   1.299624 A    
C8    C16   1.181461 T    
C18   C22   1.583236 S    
C9    C11   1.530784 S    
O2    C1    1.297037 A    
N4    O14   1.301525 A    
C22   C24   1.572929 S    
C17   H4    1.103714 S    
C26   N2    1.539732 S    
C27   N1    1.498754 S    
C38   H24   1.084409 S    
C11   C13   1.552113 S    
C5    C9    1.539498 S    
C1    C21   1.484515 S    
Zn2   O6    2.046849 S    
C32   H18   1.087399 S    
C33   O13   1.219035 D    
C11   C38   1.498107 S    
C26   C36   1.530731 S    
N6    O22   1.300186 A    
