data_mof_unit_5276.cif
_audit_creation_date              2012-10-26T21:17:41-0400
_audit_creation_method            fapswitch 2.2
_symmetry_space_group_name_H-M    P1
_symmetry_Int_Tables_number       1
_space_group_crystal_system       triclinic
_cell_length_a                    11.018447
_cell_length_b                    9.064602
_cell_length_c                    8.168083
_cell_angle_alpha                 89.999207
_cell_angle_beta                  90.000404
_cell_angle_gamma                 89.706336
_cell_volume                      815.799744484

loop_
_atom_site_label
_atom_site_type_symbol
_atom_type_description
_atom_site_fract_x
_atom_site_fract_y
_atom_site_fract_z
_atom_type_partial_charge
C1    C     C_R   0.500033 0.221275 0.499981 0.545327
C2    C     C_R   0.065540 0.492532 0.671616 0.042843
C3    C     C_R   0.129198 0.492465 0.521997 -0.007939
C4    C     C_R   0.870806 0.507556 0.521994 -0.007945
C5    C     C_R   0.062109 0.494182 0.385025 -0.163553
C6    C     C_R   0.937893 0.505836 0.385020 -0.163548
C7    C     C_1   0.499811 0.065536 0.499998 -0.039218
C8    C     C_1   0.500188 0.934464 0.500001 -0.039219
C9    C     C_R   0.499967 0.778725 0.499985 0.545322
C10   C     C_R   0.263071 0.496489 0.504217 0.527163
C11   C     C_R   0.736930 0.503516 0.504217 0.527158
C12   C     C_R   0.124596 0.477740 0.822591 -0.088360
C13   C     C_R   0.875415 0.522260 0.822582 -0.088367
C14   C     C_R   0.061600 0.493695 0.960415 -0.130360
C15   C     C_R   0.938409 0.506299 0.960406 -0.130348
C16   C     C_R   0.934469 0.507469 0.671612 0.042836
Cu1   Cu    Cu3+1 0.500000 0.500000 0.669080 1.001810
Cu2   Cu    Cu3+1 0.500000 0.500000 0.330920 1.018814
H1    H     H_    0.113388 0.490651 0.284263 0.140495
H2    H     H_    0.886605 0.509378 0.284252 0.140493
H3    H     H_    0.117030 0.493536 0.060220 0.117662
H4    H     H_    0.882975 0.506509 0.060205 0.117658
H5    H     H_    0.216830 0.443809 0.848022 0.169412
H6    H     H_    0.783189 0.556215 0.848003 0.169403
N1    N     N_1   0.500000 0.500000 0.076820 -0.095850
N2    N     N_1   0.500000 0.500000 0.923180 -0.107306
O1    O     O_R   0.500000 0.288390 0.642760 -0.493412
O2    O     O_R   0.500000 0.711610 0.642760 -0.493420
O3    O     O_R   0.500000 0.288370 0.357190 -0.490990
O4    O     O_R   0.500000 0.711630 0.357190 -0.490989
O5    O     O_R   0.319650 0.500000 0.642810 -0.528509
O6    O     O_R   0.680350 0.500000 0.642810 -0.528501
O7    O     O_R   0.319630 0.500000 0.357240 -0.509285
O8    O     O_R   0.680370 0.500000 0.357240 -0.509282

loop_
_geom_bond_atom_site_label_1
_geom_bond_atom_site_label_2
_ccdc_geom_bond_type
C4    C16   A    
Cu2   O4    S    
C6    H2    S    
C11   O8    A    
C2    C12   A    
C1    O3    A    
C2    C3    A    
C7    C8    T    
C1    O1    A    
C3    C10   S    
C4    C11   S    
Cu2   O8    S    
C12   H5    S    
Cu2   N1    S    
C9    O4    A    
C5    H1    S    
Cu1   N2    S    
C14   H3    S    
C12   C14   A    
C11   O6    A    
Cu1   Cu2   S    
C10   O7    A    
C13   C15   A    
C5    C6    A    
Cu1   O5    S    
Cu2   O7    S    
Cu1   O1    S    
C2    C16   A    
C9    O2    A    
C4    C6    A    
C13   C16   A    
Cu2   O3    S    
Cu1   O6    S    
C14   C15   A    
N1    N2    T    
C1    C7    S    
Cu1   O2    S    
C10   O5    A    
C15   H4    S    
C13   H6    S    
C8    C9    S    
C3    C5    A    
