data_mof_unit_27061.cif
_audit_creation_date              2012-12-11T14:21:09-0500
_audit_creation_method            fapswitch 2.2
_symmetry_space_group_name_H-M    P1
_symmetry_Int_Tables_number       1
_space_group_crystal_system       triclinic
_cell_length_a                    11.543274
_cell_length_b                    11.696704
_cell_length_c                    19.468405
_cell_angle_alpha                 91.00688
_cell_angle_beta                  90.040937
_cell_angle_gamma                 60.044148
_cell_volume                      2276.98765504

loop_
_atom_site_label
_atom_site_type_symbol
_atom_type_description
_atom_site_fract_x
_atom_site_fract_y
_atom_site_fract_z
_atom_type_partial_charge
C1    C     C_R   0.640671 0.117176 0.598992 0.561398
C2    C     C_1   0.641501 0.704379 0.667839 0.007661
C3    C     C_1   0.127305 0.198349 0.859560 0.015506
C4    C     C_1   0.171255 0.170885 0.727615 -0.027341
C5    C     C_1   0.150586 0.182096 0.799005 -0.026987
C6    C     C_1   0.194839 0.161838 0.667117 0.010763
C7    C     C_1   0.678361 0.190612 0.861115 0.012558
C8    C     C_1   0.658514 0.167204 0.729039 -0.028141
C9    C     C_1   0.665432 0.180411 0.800514 -0.026377
C10   C     C_1   0.653137 0.149793 0.668441 0.007952
C11   C     C_R   0.651252 0.703254 0.182262 0.025784
C12   C     C_R   0.612544 0.746300 0.598485 0.560804
C13   C     C_R   0.518565 0.786089 0.204157 0.044535
C14   C     C_R   0.491860 0.799496 0.275610 0.006802
C15   C     C_R   0.731553 0.693791 0.297313 -0.125835
C16   C     C_R   0.756183 0.658809 0.229073 -0.125512
C17   C     C_R   0.410803 0.838058 0.157323 0.110372
C18   C     C_R   0.285207 0.865081 0.179557 -0.069201
C19   C     C_R   0.263317 0.854415 0.248554 -0.096349
C20   C     C_R   0.360992 0.833577 0.296812 -0.077197
C21   C     C_R   0.600531 0.765037 0.321797 0.009407
C22   C     C_R   0.134658 0.197445 0.193494 0.024042
C23   C     C_R   0.241167 0.145430 0.597903 0.552964
C24   C     C_R   0.220612 0.238060 0.220303 0.013567
C25   C     C_R   0.214957 0.259785 0.291204 -0.082240
C26   C     C_R   0.096314 0.138647 0.307572 0.038349
C27   C     C_R   0.068562 0.152956 0.237671 -0.148439
C28   C     C_R   0.298951 0.271914 0.178611 0.212955
C29   C     C_R   0.348478 0.349561 0.207096 -0.085337
C30   C     C_R   0.318929 0.395528 0.274920 0.288873
C31   C     C_R   0.239878 0.361611 0.314962 0.275607
C32   C     C_R   0.178292 0.183737 0.334343 0.003403
C33   C     C_R   0.659193 0.191639 0.191915 -0.012848
C34   C     C_R   0.624582 0.082756 0.394202 0.519619
C35   C     C_R   0.675563 0.066651 0.203149 -0.005097
C36   C     C_R   0.704592 0.020088 0.270796 -0.021240
C37   C     C_R   0.619947 0.241472 0.313697 -0.069966
C38   C     C_R   0.637865 0.275873 0.248938 0.084464
C39   C     C_R   0.710396 0.975743 0.148180 -0.088423
C40   C     C_R   0.822284 0.852928 0.155561 -0.079890
C41   C     C_R   0.883092 0.819321 0.219493 0.076958
C42   C     C_R   0.817398 0.894531 0.278602 -0.077330
C43   C     C_R   0.649505 0.113559 0.325475 -0.016691
C44   C     C_R   0.081729 0.231239 0.928898 0.569232
C45   C     C_R   0.581492 0.799569 0.394858 0.530146
C46   C     C_R   0.683931 0.604031 0.929617 0.560019
C47   C     C_R   0.708182 0.206586 0.930449 0.539613
C48   C     C_R   0.080726 0.236695 0.125292 0.629094
C49   C     C_R   0.678991 0.621386 0.121041 0.579913
C50   C     C_R   0.707713 0.214545 0.127488 0.540647
C51   C     C_R   0.240820 0.144287 0.402339 0.549012
C52   C     C_1   0.670377 0.646237 0.860333 0.017343
C53   C     C_1   0.654993 0.684042 0.728386 -0.027956
C54   C     C_1   0.663519 0.666726 0.799815 -0.026423
Cr1   Cr    Cr6+3 0.404720 0.198220 0.499960 1.063753
Cr2   Cr    Cr6+3 0.698290 0.897110 0.500380 1.054416
Cr3   Cr    Cr6+3 0.396970 0.904720 0.499610 1.050271
Cr4   Cr    Cr6+3 0.926180 0.151990 0.028120 1.046541
Cr5   Cr    Cr6+3 0.921330 0.451820 0.027470 1.059241
Cr6   Cr    Cr6+3 0.626260 0.446870 0.028710 1.068267
H1    H     H_    0.816379 0.657942 0.331414 0.162300
H2    H     H_    0.401832 0.382885 0.175013 0.160010
H3    H     H_    0.594585 0.311346 0.356189 0.186381
H4    H     H_    0.673732 0.008072 0.096823 0.140129
H5    H     H_    0.868106 0.789689 0.110842 0.142309
H6    H     H_    0.863953 0.861464 0.327962 0.181453
H7    H     H_    0.858165 0.588835 0.213854 0.174033
H8    H     H_    0.203855 0.896067 0.143591 0.152689
H9    H     H_    0.166647 0.871456 0.265167 0.177742
H10   H     H_    0.332186 0.836631 0.349447 0.191666
H11   H     H_    0.994999 0.129343 0.217985 0.166752
O1    O     O_R   0.267740 0.231960 0.575440 -0.496054
O2    O     O_R   0.685970 0.784660 0.430010 -0.509522
O3    O     O_R   0.502530 0.767000 0.423990 -0.502168
O4    O     O_R   0.288330 0.026350 0.429250 -0.511612
O5    O     O_3   0.499990 0.000020 0.499980 -0.310139
O6    O     O_R   0.821500 0.119340 0.952830 -0.505795
O7    O     O_R   0.037130 0.162530 0.957360 -0.484311
O8    O     O_R   0.056440 0.344740 0.951340 -0.496917
O9    O     O_R   0.797900 0.560360 0.957470 -0.502503
O10   O     O_R   0.596130 0.579390 0.952730 -0.490364
O11   O     O_R   0.639060 0.321160 0.958670 -0.499390
O12   O     O_R   0.527280 0.186640 0.570530 -0.485889
O13   O     O_R   0.821240 0.124200 0.104370 -0.514790
O14   O     O_R   0.036890 0.167040 0.097840 -0.514690
O15   O     O_R   0.056180 0.349610 0.102880 -0.462130
O16   O     O_R   0.797660 0.564870 0.097950 -0.515920
O17   O     O_R   0.595880 0.584250 0.104270 -0.463309
O18   O     O_R   0.638830 0.325670 0.099150 -0.490067
O19   O     O_3   0.824590 0.350230 0.028100 -0.274738
O20   O     O_R   0.728090 0.003450 0.576380 -0.490904
O21   O     O_R   0.682970 0.789190 0.570490 -0.488117
O22   O     O_R   0.499290 0.771880 0.575530 -0.493636
O23   O     O_R   0.285330 0.030870 0.569730 -0.486112
O24   O     O_R   0.270980 0.227080 0.423890 -0.488312
O25   O     O_R   0.530280 0.182120 0.430050 -0.492390
O26   O     O_R   0.731330 0.998570 0.424830 -0.492415
O27   O     O_3   0.355552 0.485483 0.297611 -0.651205
H12   H     H_    0.336938 0.502290 0.347548 0.373798
O28   O     O_3   0.169731 0.444750 0.369670 -0.666354
H13   H     H_    0.090147 0.435889 0.379161 0.339771
I1    I     I_    0.656445 0.441914 0.249193 -0.310477
I2    I     I_    0.076565 0.665708 0.222088 -0.390723
I3    I     I_    0.426750 0.888795 0.054672 -0.331111
I4    I     I_    0.995390 0.071165 0.371963 -0.367269
O29   O     O_3   0.327652 0.226554 0.111265 -0.669328
H14   H     H_    0.385852 0.256806 0.090436 0.322598

loop_
_geom_bond_atom_site_label_1
_geom_bond_atom_site_label_2
_ccdc_geom_bond_type
C25   C31   A    
C22   C48   S    
C26   C32   A    
Cr2   O5    S    
C41   C42   A    
C49   O16   A    
C36   C42   A    
C35   C36   A    
C2    C12   S    
Cr6   O17   S    
C50   O13   A    
C53   C54   S    
C39   H4    S    
C26   C27   A    
C29   C30   A    
C14   C21   A    
C28   C29   A    
C17   I3    S    
C34   O25   A    
C30   C31   A    
O29   H14   S    
C18   H8    S    
C15   C16   A    
C46   C52   S    
C34   O26   A    
C45   O2    A    
C18   C19   A    
Cr6   O10   S    
C47   O11   A    
Cr4   O6    S    
Cr6   O11   S    
Cr2   O20   S    
C19   C20   A    
C28   O29   S    
C8    C9    S    
Cr1   O1    S    
C25   C32   A    
C1    O20   A    
Cr3   O22   S    
C13   C14   A    
C49   O17   A    
C20   H10   S    
Cr2   O26   S    
C26   I4    S    
C37   H3    S    
C52   C54   T    
C21   C45   S    
C3    C44   S    
C34   C43   S    
C14   C20   A    
C24   C25   A    
Cr5   O16   S    
Cr1   O24   S    
Cr5   O8    S    
C39   C40   A    
C4    C5    S    
C33   C50   S    
Cr6   O18   S    
C41   I2    S    
C45   O3    A    
Cr5   O19   S    
C7    C47   S    
Cr3   O3    S    
C37   C43   A    
C35   C39   A    
C32   C51   S    
C37   C38   A    
C11   C49   S    
Cr4   O13   S    
C46   O10   A    
C11   C16   A    
C50   O18   A    
Cr2   O21   S    
C17   C18   A    
C15   H1    S    
C16   H7    S    
C31   O28   S    
Cr4   O19   S    
Cr1   O5    S    
C4    C6    T    
C40   C41   A    
C22   C27   A    
C22   C24   A    
C12   O22   A    
C19   H9    S    
C47   O6    A    
Cr1   O12   S    
Cr4   O14   S    
C27   H11   S    
Cr3   O5    S    
C7    C9    T    
C29   H2    S    
Cr2   O2    S    
C23   O1    A    
C12   O21   A    
C44   O8    A    
C1    C10   S    
C24   C28   A    
C51   O4    A    
Cr1   O25   S    
C3    C5    T    
C2    C53   T    
Cr5   O9    S    
Cr6   O19   S    
C1    O12   A    
C30   O27   S    
C33   C38   A    
C23   O23   A    
C13   C17   A    
Cr3   O23   S    
Cr3   O4    S    
C44   O7    A    
Cr5   O15   S    
C38   I1    S    
C46   O9    A    
C11   C13   A    
C6    C23   S    
O28   H13   S    
C33   C35   A    
C48   O15   A    
C40   H5    S    
Cr4   O7    S    
C15   C21   A    
C8    C10   T    
O27   H12   S    
C42   H6    S    
C48   O14   A    
C36   C43   A    
C51   O24   A    
