data_mof_unit_43997.cif
_audit_creation_date              2012-12-11T17:10:38-0500
_audit_creation_method            fapswitch 2.2
_symmetry_space_group_name_H-M    P1
_symmetry_Int_Tables_number       1
_space_group_crystal_system       triclinic
_cell_length_a                    14.851179
_cell_length_b                    15.019617
_cell_length_c                    14.947596
_cell_angle_alpha                 109.607281
_cell_angle_beta                  109.971328
_cell_angle_gamma                 109.030834
_cell_volume                      2560.31368101

loop_
_atom_site_label
_atom_site_type_symbol
_atom_type_description
_atom_site_fract_x
_atom_site_fract_y
_atom_site_fract_z
_atom_type_partial_charge
C1    C     C_R   0.185343 0.280512 0.253656 -0.258404
C2    C     C_R   0.452296 0.451858 0.777478 0.032868
C3    C     C_R   0.577496 0.206933 0.502045 -0.237326
C4    C     C_R   0.200987 0.575077 0.494588 0.107397
C5    C     C_R   0.474451 0.720377 0.407346 -0.096197
C6    C     C_R   0.815372 0.563672 0.594044 -0.095248
C7    C     C_R   0.496229 0.404802 0.196685 -0.140229
C8    C     C_R   0.706373 0.799447 0.802191 -0.264968
C9    C     C_R   0.799992 0.711129 0.806746 0.701812
C10   C     C_R   0.405689 0.496787 0.195714 -0.109215
C11   C     C_R   0.565268 0.814003 0.591657 -0.090528
C12   C     C_R   0.525238 0.433502 0.746641 -0.103619
C13   C     C_R   0.725174 0.470515 0.410038 -0.091791
C14   C     C_R   0.549146 0.822887 0.498850 0.035556
C15   C     C_R   0.829980 0.546710 0.503933 0.081629
C16   C     C_R   0.436310 0.435597 0.132934 0.072019
C17   C     C_R   0.800337 0.804440 0.868373 -0.082103
C18   C     C_R   0.076734 0.551333 0.160214 -0.355034
C19   C     C_R   0.084165 0.594722 0.262845 0.738128
C20   C     C_R   0.007859 0.531680 0.282259 -0.024671
C21   C     C_R   0.919351 0.428167 0.194904 -0.322268
C22   C     C_R   0.909538 0.387356 0.091129 -0.162643
C23   C     C_R   0.515907 0.208055 0.410189 0.253895
C24   C     C_R   0.989163 0.448067 0.074162 0.273989
C25   C     C_R   0.929843 0.566616 0.403173 -0.233629
C26   C     C_R   0.934991 0.594923 0.504945 0.000289
C27   C     C_R   0.041067 0.660592 0.601726 -0.130188
C28   C     C_R   0.134379 0.681366 0.591722 0.712879
C29   C     C_R   0.122607 0.617054 0.491318 -0.072656
C30   C     C_R   0.021722 0.572784 0.393885 0.049391
C31   C     C_R   0.075782 0.786325 0.786478 0.214204
C32   C     C_R   0.098686 0.808701 0.892992 -0.188892
C33   C     C_R   0.107737 0.733781 0.926170 0.347091
C34   C     C_R   0.292078 0.599503 0.587970 -0.120336
C35   C     C_R   0.094882 0.636876 0.854111 -0.086718
C36   C     C_R   0.071994 0.613849 0.748124 -0.221537
C37   C     C_R   0.061014 0.687482 0.713104 0.098701
C38   C     C_R   0.454699 0.351442 0.879998 0.139629
C39   C     C_R   0.409163 0.405157 0.835134 0.032598
C40   C     C_R   0.336026 0.429730 0.864238 -0.162605
C41   C     C_R   0.332525 0.426570 0.955640 -0.153649
C42   C     C_R   0.401697 0.398153 0.017017 0.024218
C43   C     C_R   0.450557 0.347648 0.969439 0.196120
C44   C     C_3   0.563441 0.360589 0.019626 -0.534459
C45   C     C_R   0.598944 0.293794 0.591794 0.668041
C46   C     C_3   0.568550 0.365397 0.922353 -0.451576
C47   C     C_R   0.472461 0.924206 0.440117 -0.010210
C48   C     C_R   0.566450 0.921434 0.496562 0.118265
C49   C     C_R   0.667287 0.019994 0.569885 -0.220121
C50   C     C_R   0.673890 0.116091 0.571523 -0.067582
C51   C     C_R   0.578772 0.112081 0.501780 0.155526
C52   C     C_R   0.477441 0.017779 0.445553 -0.009062
C53   C     C_3   0.380504 0.959101 0.332137 -0.439420
C54   C     C_3   0.379243 0.855427 0.323922 0.577465
C55   C     C_R   0.967766 0.082011 0.109512 0.153138
C56   C     C_R   0.201120 0.506163 0.406210 -0.107400
C57   C     C_R   0.063321 0.079543 0.165392 0.064347
C58   C     C_R   0.053059 0.977905 0.148231 -0.158321
C59   C     C_R   0.957746 0.882099 0.056981 -0.174406
C60   C     C_R   0.875015 0.889334 0.983750 0.059519
C61   C     C_R   0.874930 0.988128 0.019794 0.162675
C62   C     C_3   0.848072 0.046019 0.959179 -0.491903
C63   C     C_3   0.949865 0.149010 0.057444 -0.485888
C64   C     C_R   0.436293 0.528398 0.751532 -0.107832
C65   C     C_R   0.273609 0.185965 0.248933 0.746655
C66   C     C_R   0.170734 0.177326 0.223761 -0.115597
H1    H     H_    0.123955 0.304672 0.249080 0.155854
H2    H     H_    0.873964 0.617811 0.679748 0.159546
H3    H     H_    0.516111 0.341572 0.168503 0.133166
H4    H     H_    0.669640 0.846816 0.828273 0.155225
H5    H     H_    0.344924 0.520189 0.166677 0.111970
H6    H     H_    0.613922 0.879474 0.676351 0.109637
H7    H     H_    0.703293 0.436704 0.324767 0.102019
H8    H     H_    0.139849 0.597127 0.147983 0.196119
H9    H     H_    0.551288 0.375137 0.749175 0.163153
H10   H     H_    0.859220 0.378066 0.207603 0.171861
H11   H     H_    0.841447 0.307477 0.024655 0.166445
H12   H     H_    0.852612 0.531310 0.328908 0.144331
H13   H     H_    0.108546 0.883610 0.949541 0.179853
H14   H     H_    0.102615 0.579374 0.880168 0.166694
H15   H     H_    0.062540 0.538409 0.692894 0.141685
H16   H     H_    0.292500 0.464112 0.826269 0.135000
H17   H     H_    0.286327 0.458592 0.984700 0.150686
H18   H     H_    0.624862 0.438687 0.098519 0.204740
H19   H     H_    0.561347 0.286516 0.021314 0.213795
H20   H     H_    0.632939 0.446482 0.946519 0.220849
H21   H     H_    0.570087 0.294390 0.868628 0.217323
H22   H     H_    0.739878 0.021960 0.623074 0.152709
H23   H     H_    0.752050 0.191689 0.624625 0.182996
H24   H     H_    0.307604 0.963391 0.333489 0.189369
H25   H     H_    0.398809 0.977268 0.272645 0.282855
H26   H     H_    0.303186 0.795239 0.312419 0.125349
H27   H     H_    0.325616 0.658127 0.672550 0.184982
H28   H     H_    0.121666 0.972395 0.197275 0.206824
H29   H     H_    0.953838 0.804765 0.038372 0.227304
H30   H     H_    0.854915 0.020531 0.883891 0.216298
H31   H     H_    0.770462 0.047072 0.947577 0.197952
H32   H     H_    0.014741 0.182722 0.038154 0.223126
H33   H     H_    0.930595 0.208736 0.102457 0.196314
H34   H     H_    0.150465 0.476566 0.320521 0.092359
H35   H     H_    0.383568 0.560957 0.762935 0.105768
H36   H     H_    0.441307 0.698043 0.322018 0.169711
N1    N     N_R   0.291070 0.347930 0.293870 -0.074291
N2    N     N_R   0.708930 0.502750 0.556810 -0.050456
N3    N     N_R   0.502760 0.445970 0.293860 -0.043604
N4    N     N_R   0.652110 0.708890 0.706130 -0.075312
N5    N     N_R   0.708930 0.652070 0.706130 -0.105752
N6    N     N_R   0.445950 0.502780 0.293850 -0.048878
N7    N     N_R   0.502760 0.708900 0.556790 -0.035724
N8    N     N_R   0.652110 0.445950 0.443190 -0.050675
N9    N     N_R   0.554050 0.497220 0.706150 -0.039192
N10   N     N_R   0.497240 0.291100 0.443210 -0.119823
N11   N     N_R   0.347890 0.554050 0.556810 -0.058139
N12   N     N_R   0.554050 0.347900 0.556830 -0.136455
N13   N     N_R   0.291070 0.497250 0.443190 -0.046305
N14   N     N_R   0.497240 0.554030 0.706140 -0.050821
N15   N     N_R   0.347890 0.291110 0.293870 -0.102976
N16   N     N_R   0.445950 0.652100 0.443170 -0.046363
Ni1   Ni    Ni4+2 0.369690 0.500010 0.369700 0.215138
Ni2   Ni    Ni4+2 0.630310 0.499990 0.630300 0.312029
Ni3   Ni    Ni4+2 0.500000 0.369720 0.369720 0.252733
Ni4   Ni    Ni4+2 0.500000 0.630280 0.630280 0.223878
F1    F     F_    0.860771 0.669491 0.848048 -0.719917
I1    I     I_    0.977884 0.382878 0.919349 -0.396518
F2    F     F_    0.168480 0.695577 0.345207 -0.722798
F3    F     F_    0.235612 0.752348 0.683646 -0.700183
I2    I     I_    0.059990 0.900982 0.739332 -0.362352
I3    I     I_    0.138173 0.763668 0.083289 -0.378684
I4    I     I_    0.533686 0.157832 0.269383 -0.344004
F4    F     F_    0.411346 0.813414 0.250448 -0.675746
F5    F     F_    0.676467 0.334643 0.697308 -0.687793
F6    F     F_    0.295814 0.103235 0.229503 -0.724692

loop_
_geom_bond_atom_site_label_1
_geom_bond_atom_site_label_2
_ccdc_geom_bond_type
C64   N14   A    
C62   H30   S    
C11   N7    A    
C41   C42   A    
C3    C23   A    
C35   C36   A    
N6    Ni1   S    
C34   H27   S    
C31   I2    S    
C57   C66   S    
C2    C12   A    
N10   N12   A    
C20   C30   S    
C53   C54   S    
C34   N11   A    
C23   N10   A    
C21   H10   S    
C28   C29   A    
C26   C27   A    
C29   C30   A    
N14   Ni4   S    
C18   C24   A    
N2    Ni2   S    
C36   C37   A    
C63   H32   S    
N8    Ni3   S    
C38   C39   A    
C11   C14   A    
N7    Ni4   S    
N4    N5    A    
C41   H17   S    
C35   H14   S    
C24   I1    S    
C23   I4    S    
C18   C19   A    
C49   C50   A    
N15   Ni3   S    
N16   Ni1   S    
C63   H33   S    
C9    F1    S    
C6    C15   A    
C10   N6    A    
C2    C39   S    
N11   Ni4   S    
C19   C20   A    
C44   C46   S    
C55   C63   S    
C53   H25   S    
C7    N3    A    
N9    N14   A    
C6    N2    A    
C1    N1    A    
C4    C29   S    
C10   H5    S    
C6    H2    S    
C59   C60   A    
C18   H8    S    
C21   C22   A    
C4    C56   A    
C49   H22   S    
N1    N15   A    
C59   H29   S    
C45   N12   A    
C2    C64   A    
N7    N16   A    
C50   C51   A    
C64   H35   S    
C54   F4    S    
N3    N6    A    
C4    C34   A    
C51   C52   A    
C40   H16   S    
C39   C40   A    
C3    C51   S    
C11   H6    S    
C15   C26   S    
C14   C48   S    
C25   C26   A    
C25   H12   S    
C3    C45   A    
C33   I3    S    
C31   C37   A    
N9    Ni2   S    
C43   C44   S    
C54   H26   S    
C13   N8    A    
C62   H31   S    
C50   H23   S    
C47   C48   A    
C36   H15   S    
N4    Ni4   S    
C62   C63   S    
C1    C66   A    
N3    Ni3   S    
C5    C14   A    
C47   C54   S    
C9    C17   A    
C40   C41   A    
C13   H7    S    
C45   F5    S    
N13   Ni1   S    
C13   C15   A    
C22   C24   A    
C42   C43   A    
C56   H34   S    
C44   H19   S    
C16   C42   S    
N5    Ni2   S    
C53   H24   S    
C65   F6    S    
C52   C53   S    
C46   H21   S    
C25   C30   A    
C5    H36   S    
C7    C16   A    
C31   C32   A    
N1    Ni1   S    
C22   H11   S    
C44   H18   S    
C8    N4    A    
C7    H3    S    
C47   C52   A    
C1    H1    S    
C9    N5    A    
C8    H4    S    
C8    C17   A    
C5    N16   A    
C28   F3    S    
C32   C33   A    
C55   C57   A    
C58   C59   A    
N10   Ni3   S    
C10   C16   A    
C32   H13   S    
N2    N8    A    
C57   C58   A    
C27   C37   S    
C48   C49   A    
C55   C61   A    
C33   C35   A    
C56   N13   A    
C19   F2    S    
C58   H28   S    
C61   C62   S    
C38   C46   S    
C17   C60   S    
C38   C43   A    
C20   C21   A    
C65   C66   A    
C12   H9    S    
C27   C28   A    
C65   N15   A    
C60   C61   A    
N11   N13   A    
C12   N9    A    
N12   Ni2   S    
C46   H20   S    
