data_mof_unit_17817.cif
_audit_creation_date              2012-12-10T17:03:41-0500
_audit_creation_method            fapswitch 2.2
_symmetry_space_group_name_H-M    P1
_symmetry_Int_Tables_number       1
_space_group_crystal_system       triclinic
_cell_length_a                    10.033091
_cell_length_b                    10.748854
_cell_length_c                    13.139721
_cell_angle_alpha                 90.004812
_cell_angle_beta                  70.001133
_cell_angle_gamma                 90.041017
_cell_volume                      1331.59416541

loop_
_atom_site_label
_atom_site_type_symbol
_atom_type_description
_atom_site_fract_x
_atom_site_fract_y
_atom_site_fract_z
_atom_type_partial_charge
C1    C     C_R   0.501030 0.737312 0.498183 0.926516
C2    C     C_R   0.369846 0.515055 0.821990 -0.120170
C3    C     C_2   0.611171 0.066902 0.503268 -0.155996
C4    C     C_R   0.421211 0.506356 0.704046 0.857242
C5    C     C_2   0.493293 0.131306 0.514532 -0.337617
C6    C     C_2   0.607550 0.933006 0.509732 -0.164586
C7    C     C_2   0.505289 0.868929 0.489583 -0.329265
C8    C     C_2   0.106755 0.440869 0.428674 -0.120926
C9    C     C_2   0.958408 0.446970 0.425127 -0.142824
C10   C     C_R   0.498717 0.262716 0.502891 0.937187
C11   C     C_R   0.578802 0.500526 0.295851 0.869066
C12   C     C_R   0.432033 0.523617 0.984643 0.088390
C13   C     C_R   0.769170 0.629144 0.019920 -0.200649
C14   C     C_R   0.626165 0.517921 0.179437 -0.060031
C15   C     C_R   0.237399 0.463780 0.881194 -0.192263
C16   C     C_R   0.199335 0.447407 0.992295 -0.150097
C17   C     C_R   0.296664 0.473568 0.043606 -0.192082
C18   C     C_R   0.460362 0.558766 0.876085 0.091859
C19   C     C_R   0.540255 0.540223 0.029666 0.081272
C20   C     C_R   0.664178 0.609364 0.973209 0.177341
C21   C     C_R   0.679952 0.659596 0.872104 -0.261636
C22   C     C_R   0.579281 0.634834 0.824014 -0.203937
C23   C     C_R   0.529496 0.487811 0.128843 -0.250947
C24   C     C_R   0.748866 0.585482 0.124090 -0.205955
H1    H     H_    0.824596 0.609697 0.163066 0.158507
H2    H     H_    0.863621 0.682577 0.977835 0.140851
H3    H     H_    0.442740 0.426779 0.171067 0.141829
H4    H     H_    0.165212 0.432674 0.841150 0.159613
H5    H     H_    0.261857 0.456897 0.129719 0.127178
H6    H     H_    0.096404 0.409100 0.038095 0.144293
H7    H     H_    0.594722 0.677232 0.746133 0.165713
H8    H     H_    0.712596 0.112407 0.489537 0.174602
H9    H     H_    0.389397 0.088748 0.535354 0.151436
H10   H     H_    0.692024 0.887035 0.529510 0.169832
H11   H     H_    0.424458 0.911794 0.463716 0.151136
H12   H     H_    0.183769 0.385877 0.366915 0.153028
H13   H     H_    0.078004 0.556024 0.553931 0.157723
H14   H     H_    0.939388 0.403195 0.356964 0.153881
H15   H     H_    0.868086 0.534502 0.566298 0.166417
H16   H     H_    0.771316 0.716322 0.829318 0.144444
N1    N     N_2   0.148270 0.498670 0.498870 -0.188220
N2    N     N_2   0.852610 0.498640 0.498840 -0.189764
O1    O     O_R   0.386950 0.680940 0.500020 -0.612700
O2    O     O_R   0.613110 0.680900 0.499980 -0.618066
O3    O     O_R   0.330780 0.500000 0.653640 -0.612977
O4    O     O_R   0.556930 0.499960 0.653610 -0.610198
O5    O     O_R   0.386890 0.319100 0.500020 -0.613354
O6    O     O_R   0.613050 0.319060 0.499980 -0.604027
O7    O     O_R   0.443070 0.500040 0.346390 -0.609199
O8    O     O_R   0.669220 0.500000 0.346360 -0.615594
Zn1   Zn    Zn3+2 0.349000 0.500030 0.500020 0.938442
Zn2   Zn    Zn3+2 0.651000 0.499970 0.499980 0.935281

loop_
_geom_bond_atom_site_label_1
_geom_bond_atom_site_label_2
_ccdc_geom_bond_type
C12   C17   A    
C14   C23   A    
C2    C4    S    
C6    C7    D    
C11   O7    A    
C23   H3    S    
C2    C18   A    
C17   H5    S    
C1    O2    A    
C19   C23   A    
C19   C20   A    
C3    C6    S    
O2    Zn2   S    
O7    Zn1   S    
C12   C18   A    
C9    N2    D    
C5    C10   S    
C11   O8    A    
C4    O4    A    
C21   C22   A    
C24   H1    S    
H13   N1    S    
C2    C15   A    
O1    Zn1   S    
C15   H4    S    
C21   H16   S    
C12   C19   A    
C9    H14   S    
C1    O1    A    
H15   N2    S    
C4    O3    A    
C1    C7    S    
C10   O6    A    
C3    H8    S    
C11   C14   S    
C13   H2    S    
O8    Zn2   S    
C22   H7    S    
O3    Zn1   S    
C16   H6    S    
C15   C16   A    
O4    Zn2   S    
O6    Zn2   S    
C20   C21   A    
C8    H12   S    
C14   C24   A    
C10   O5    A    
C8    C9    S    
O5    Zn1   S    
C13   C20   A    
C8    N1    D    
C18   C22   A    
C7    H11   S    
N1    Zn1   S    
C6    H10   S    
C13   C24   A    
N2    Zn2   S    
C16   C17   A    
C3    C5    D    
C5    H9    S    
