data_mof_unit_13125.cif
_audit_creation_date              2012-12-11T14:38:28-0500
_audit_creation_method            fapswitch 2.2
_symmetry_space_group_name_H-M    P1
_symmetry_Int_Tables_number       1
_space_group_crystal_system       triclinic
_cell_length_a                    19.580221
_cell_length_b                    11.14279
_cell_length_c                    19.671822
_cell_angle_alpha                 89.73131
_cell_angle_beta                  96.678936
_cell_angle_gamma                 89.888428
_cell_volume                      4262.77667588

loop_
_atom_site_label
_atom_site_type_symbol
_atom_type_description
_atom_site_fract_x
_atom_site_fract_y
_atom_site_fract_z
_atom_type_partial_charge
C1    C     C_R   0.723433 0.958219 0.362221 0.546369
C2    C     C_3   0.172657 0.497413 0.469567 -0.198956
C3    C     C_3   0.002152 0.332501 0.085740 -0.285782
C4    C     C_3   0.354982 0.069427 0.333249 -0.302046
C5    C     C_3   0.629633 0.036581 0.647724 -0.288453
C6    C     C_3   0.857784 0.565189 0.340702 -0.303699
C7    C     C_3   0.186614 0.607900 0.654951 -0.311673
C8    C     C_3   0.332042 0.023704 0.515113 -0.225761
C9    C     C_3   0.670585 0.976323 0.468857 -0.213485
C10   C     C_3   0.773886 0.320561 0.555489 -0.262434
C11   C     C_3   0.234807 0.304762 0.450597 -0.298855
C12   C     C_3   0.288660 0.828218 0.552980 -0.259274
C13   C     C_3   0.747705 0.805142 0.452067 -0.287672
C14   C     C_3   0.772167 0.457571 0.561331 -0.002837
C15   C     C_3   0.233746 0.438148 0.435801 0.015634
C16   C     C_3   0.278949 0.964586 0.560016 -0.009802
C17   C     C_R   0.292818 0.997726 0.633471 0.549111
C18   C     C_3   0.736336 0.936594 0.436379 0.006032
C19   C     C_3   0.748418 0.398778 0.433005 0.071041
C20   C     C_3   0.248454 0.406410 0.567910 0.094096
C21   C     C_3   0.252571 0.903502 0.431740 0.067772
C22   C     C_3   0.752798 0.907303 0.569006 0.107013
C23   C     C_3   0.815457 0.473266 0.442622 -0.007557
C24   C     C_3   0.183432 0.486683 0.549365 -0.024178
C25   C     C_3   0.318232 0.982841 0.439352 -0.005007
C26   C     C_3   0.677695 0.950294 0.546681 -0.021655
C27   C     C_3   0.763653 0.288144 0.480166 -0.279815
C28   C     C_R   0.222684 0.459246 0.362210 0.548327
C29   C     C_3   0.230978 0.289314 0.526285 -0.261669
C30   C     C_3   0.272340 0.793478 0.478696 -0.274291
C31   C     C_3   0.769429 0.793594 0.528886 -0.260212
C32   C     C_3   0.417928 0.254580 0.974769 -0.354152
C33   C     C_3   0.444597 0.259879 0.051479 -0.344628
C34   C     C_3   0.917551 0.752170 0.974818 -0.357400
C35   C     C_3   0.944074 0.757823 0.051546 -0.343572
C36   C     C_3   0.456563 0.042761 0.966783 0.149075
C37   C     C_3   0.566575 0.210281 0.028407 0.158069
C38   C     C_3   0.958615 0.541878 0.966449 0.148747
C39   C     C_R   0.789920 0.492407 0.633213 0.549152
C40   C     C_3   0.066605 0.712433 0.028550 0.134763
C41   C     C_3   0.540385 0.224144 0.952062 0.125685
C42   C     C_3   0.478314 0.042107 0.045440 0.084424
C43   C     C_3   0.040382 0.726631 0.952268 0.119620
C44   C     C_3   0.980121 0.541224 0.045108 0.087746
C45   C     C_R   0.536469 0.180323 0.338743 0.528480
C46   C     C_R   0.463258 0.180601 0.661099 0.529043
C47   C     C_R   0.036851 0.680373 0.339015 0.527591
C48   C     C_R   0.963882 0.680468 0.661496 0.529476
C49   C     C_3   0.465502 0.172340 0.936744 0.061920
C50   C     C_3   0.684853 0.468012 0.455327 0.104013
C51   C     C_3   0.505539 0.170289 0.068399 0.043383
C52   C     C_3   0.966170 0.672079 0.936698 0.070116
C53   C     C_3   0.005907 0.670146 0.068353 0.050579
C54   C     C_1   0.762343 0.426980 0.904501 -0.017110
C55   C     C_1   0.238204 0.426578 0.095846 0.003809
C56   C     C_1   0.262497 0.927322 0.904605 -0.028123
C57   C     C_1   0.738444 0.925926 0.096066 0.004479
C58   C     C_1   0.747865 0.406199 0.034465 -0.042690
C59   C     C_1   0.252627 0.404378 0.965909 -0.051687
C60   C     C_1   0.248061 0.906661 0.034586 -0.049207
C61   C     C_3   0.313678 0.469323 0.544584 0.114635
C62   C     C_1   0.753060 0.903104 0.966234 -0.049322
C63   C     C_1   0.754095 0.415580 0.963921 -0.040730
C64   C     C_1   0.246524 0.414496 0.036488 -0.025542
C65   C     C_1   0.254325 0.916076 0.964054 -0.062016
C66   C     C_1   0.746893 0.913453 0.036775 -0.023841
C67   C     C_1   0.743150 0.392107 0.094489 -0.018936
C68   C     C_1   0.257118 0.390172 0.905856 -0.030055
C69   C     C_1   0.243268 0.892430 0.094584 -0.018367
C70   C     C_1   0.757485 0.889057 0.906160 -0.030078
C71   C     C_R   0.737400 0.355852 0.362864 0.570298
C72   C     C_3   0.189045 0.968840 0.456103 0.099530
C73   C     C_R   0.259542 0.365539 0.639897 0.545183
C74   C     C_R   0.238768 0.859021 0.361860 0.568037
C75   C     C_R   0.760234 0.866670 0.640455 0.565035
C76   C     C_R   0.722279 0.954059 0.163445 0.541716
C77   C     C_R   0.277952 0.954234 0.836803 0.540575
C78   C     C_R   0.222221 0.454212 0.163366 0.542208
C79   C     C_R   0.777922 0.454167 0.836772 0.540218
C80   C     C_R   0.530744 0.178690 0.141688 0.535891
C81   C     C_R   0.441429 0.181433 0.863268 0.559655
C82   C     C_R   0.030903 0.678672 0.141632 0.538064
C83   C     C_3   0.803052 0.007040 0.548473 0.094387
C84   C     C_R   0.941951 0.681347 0.863322 0.568828
C85   C     C_R   0.735932 0.358299 0.163610 0.524519
C86   C     C_R   0.264235 0.357214 0.836645 0.524544
C87   C     C_R   0.235962 0.858394 0.163650 0.522910
C88   C     C_R   0.764368 0.856773 0.836807 0.523747
C89   C     C_1   0.484001 0.173877 0.593767 -0.019383
C90   C     C_1   0.514875 0.172934 0.405745 -0.009258
C91   C     C_1   0.985860 0.673321 0.594685 -0.031280
C92   C     C_1   0.016337 0.673080 0.406498 -0.013983
C93   C     C_1   0.503815 0.170209 0.464685 -0.041805
C94   C     C_3   0.828631 0.508760 0.518601 -0.226266
C95   C     C_1   0.494368 0.170815 0.534634 -0.052727
C96   C     C_1   0.005970 0.670068 0.465662 -0.046687
C97   C     C_1   0.996700 0.670216 0.535688 -0.062480
C98   C     C_3   0.696629 0.492567 0.532304 -0.200763
C99   C     C_3   0.304560 0.485780 0.466844 -0.206981
C100  C     C_3   0.202149 0.989186 0.532982 -0.200008
C101  C     C_3   0.803226 0.000645 0.469633 -0.225043
C102  C     C_3   0.608895 0.069922 0.891084 -0.177546
C103  C     C_3   0.498238 0.833076 0.086409 -0.286199
C104  C     C_3   0.108897 0.576780 0.888640 -0.174862
Cr1   Cr    Cr6+3 0.765780 0.160710 0.267420 1.005525
Cr2   Cr    Cr6+3 0.383970 0.323720 0.751490 1.031311
Cr3   Cr    Cr6+3 0.116030 0.823720 0.248510 1.034204
Cr4   Cr    Cr6+3 0.883970 0.823720 0.751490 1.047548
Cr5   Cr    Cr6+3 0.234220 0.160710 0.732580 1.014758
Cr6   Cr    Cr6+3 0.265780 0.660710 0.267420 1.005677
Cr7   Cr    Cr6+3 0.734220 0.660710 0.732580 1.005019
Cr8   Cr    Cr6+3 0.612200 0.009560 0.248850 1.015073
Cr9   Cr    Cr6+3 0.387800 0.009560 0.751150 1.011642
Cr10  Cr    Cr6+3 0.112200 0.509560 0.248850 1.014863
Cr11  Cr    Cr6+3 0.887800 0.509560 0.751150 1.026950
Cr12  Cr    Cr6+3 0.616030 0.323720 0.248510 1.035607
H1    H     H_    0.678665 0.583134 0.542927 0.113228
H2    H     H_    0.124401 0.448655 0.451354 0.128766
H3    H     H_    0.384116 0.990927 0.535877 0.113923
H4    H     H_    0.624928 0.925653 0.445272 0.136342
H5    H     H_    0.859690 0.414332 0.433512 0.156564
H6    H     H_    0.137353 0.440581 0.565507 0.145182
H7    H     H_    0.363273 0.925615 0.430636 0.154789
H8    H     H_    0.641163 0.876323 0.554891 0.159027
H9    H     H_    0.364292 0.219877 0.968372 0.117495
H10   H     H_    0.461266 0.353339 0.064305 0.151832
H11   H     H_    0.864327 0.715564 0.968320 0.114686
H12   H     H_    0.310932 0.578512 0.453214 0.119397
H13   H     H_    0.959780 0.851698 0.064522 0.151901
H14   H     H_    0.415586 0.347385 0.953337 0.154063
H15   H     H_    0.402037 0.238318 0.082398 0.126903
H16   H     H_    0.914117 0.845073 0.953535 0.152842
H17   H     H_    0.901720 0.734611 0.082397 0.125980
H18   H     H_    0.400478 0.021108 0.958264 0.084159
H19   H     H_    0.584632 0.301195 0.046617 0.107847
H20   H     H_    0.902793 0.518244 0.957719 0.080846
H21   H     H_    0.084042 0.803523 0.046970 0.106353
H22   H     H_    0.430976 0.027324 0.070963 0.085413
H23   H     H_    0.183496 0.077573 0.545874 0.120962
H24   H     H_    0.534165 0.323343 0.945046 0.092355
H25   H     H_    0.932865 0.524600 0.070466 0.083555
H26   H     H_    0.032646 0.825458 0.945114 0.099868
H27   H     H_    0.660567 0.437166 0.559076 0.153437
H28   H     H_    0.346374 0.438965 0.443406 0.149913
H29   H     H_    0.169329 0.927411 0.559849 0.151517
H30   H     H_    0.849034 0.949159 0.457380 0.130029
H31   H     H_    0.678788 0.554864 0.428049 0.147392
H32   H     H_    0.319098 0.559162 0.568935 0.176939
H33   H     H_    0.182041 0.057031 0.430455 0.149334
H34   H     H_    0.811633 0.085314 0.445771 0.140385
H35   H     H_    0.782047 0.093432 0.561963 0.183797
H36   H     H_    0.339152 0.120767 0.518084 0.112342
H37   H     H_    0.657941 0.070792 0.455800 0.104371
H38   H     H_    0.836543 0.603883 0.523699 0.125435
H39   H     H_    0.161873 0.589772 0.450949 0.104452
H40   H     H_    0.824225 0.283135 0.578508 0.176721
H41   H     H_    0.191167 0.257898 0.420772 0.133947
H42   H     H_    0.342495 0.800004 0.570851 0.150114
H43   H     H_    0.700506 0.752522 0.436262 0.125140
H44   H     H_    0.733323 0.278791 0.582991 0.140297
H45   H     H_    0.814385 0.254490 0.470296 0.129102
H46   H     H_    0.283914 0.267399 0.438169 0.154768
H47   H     H_    0.255462 0.780844 0.585647 0.177832
H48   H     H_    0.790482 0.775395 0.424331 0.158286
H49   H     H_    0.724015 0.218981 0.470197 0.105675
H50   H     H_    0.263127 0.216344 0.548153 0.118346
H51   H     H_    0.232211 0.725415 0.473461 0.125736
H52   H     H_    0.825911 0.782197 0.537423 0.111669
H53   H     H_    0.589693 0.247633 0.862863 0.248439
H54   H     H_    0.571159 0.030977 0.850968 0.188808
H55   H     H_    0.614043 0.013129 0.937553 0.240361
H56   H     H_    0.176999 0.263460 0.531658 0.130985
H57   H     H_    0.659348 0.070347 0.870657 0.108509
H58   H     H_    0.568736 0.936099 0.039382 0.322864
H59   H     H_    0.540408 0.769549 0.104158 0.149249
H60   H     H_    0.465691 0.792814 0.042455 0.129590
H61   H     H_    0.466910 0.847559 0.129262 0.147557
H62   H     H_    0.133438 0.754407 0.911837 0.253537
H63   H     H_    0.068887 0.538620 0.850704 0.211669
H64   H     H_    0.117801 0.518965 0.934652 0.232218
H65   H     H_    0.156978 0.577766 0.863742 0.092715
H66   H     H_    0.071607 0.438115 0.038914 0.325463
H67   H     H_    0.320856 0.756004 0.464064 0.128575
H68   H     H_    0.044943 0.270122 0.103357 0.150113
H69   H     H_    0.970019 0.291671 0.041694 0.129134
H70   H     H_    0.970683 0.345564 0.128619 0.147096
H71   H     H_    0.650956 0.155767 0.081915 0.330857
H72   H     H_    0.464594 0.880756 0.931218 0.328073
H73   H     H_    0.151140 0.658329 0.081915 0.332763
H74   H     H_    0.968606 0.380597 0.930551 0.328321
H75   H     H_    0.625683 0.328044 0.463667 0.317643
H76   H     H_    0.370213 0.324705 0.544193 0.322533
H77   H     H_    0.131628 0.825769 0.461844 0.315095
H78   H     H_    0.747570 0.713674 0.548507 0.129007
H79   H     H_    0.894294 0.930421 0.566845 0.339661
H80   H     H_    0.265610 0.110557 0.372905 0.241503
H81   H     H_    0.358083 0.157717 0.307405 0.146029
H82   H     H_    0.330563 0.004063 0.295559 0.159955
H83   H     H_    0.407944 0.038840 0.351118 0.152294
H84   H     H_    0.637633 0.126640 0.556831 0.250311
H85   H     H_    0.616227 0.124290 0.669306 0.137543
H86   H     H_    0.665917 0.991921 0.687196 0.175047
H87   H     H_    0.582122 0.982171 0.637336 0.149978
H88   H     H_    0.766050 0.603792 0.376147 0.240955
H89   H     H_    0.879326 0.470791 0.540160 0.118782
H90   H     H_    0.862641 0.654871 0.316927 0.143954
H91   H     H_    0.834789 0.502318 0.300822 0.161645
H92   H     H_    0.909901 0.532813 0.360492 0.154260
H93   H     H_    0.151588 0.663603 0.557487 0.250577
H94   H     H_    0.175561 0.700828 0.670884 0.147572
H95   H     H_    0.237828 0.583179 0.681344 0.166149
H96   H     H_    0.146308 0.547723 0.671323 0.152613
N1    N     N_2   0.590520 0.192302 0.905171 -0.470488
N2    N     N_2   0.527134 0.945589 0.066472 -0.432401
N3    N     N_2   0.091289 0.698370 0.905582 -0.473181
N4    N     N_2   0.029927 0.446112 0.066045 -0.430522
N5    N     N_2   0.314528 0.081624 0.390031 -0.548196
N6    N     N_2   0.660617 0.056465 0.585201 -0.560467
N7    N     N_2   0.814355 0.574541 0.395292 -0.546963
N8    N     N_2   0.187262 0.604238 0.581348 -0.572645
O1    O     O_R   0.783100 0.287550 0.345460 -0.551675
O2    O     O_R   0.454350 0.284910 0.836260 -0.541530
O3    O     O_R   0.045650 0.784910 0.163740 -0.545014
O4    O     O_R   0.954350 0.784910 0.836260 -0.515440
O5    O     O_R   0.677950 0.374280 0.185410 -0.505747
O6    O     O_R   0.322050 0.374280 0.814590 -0.514149
O7    O     O_R   0.177950 0.874280 0.185410 -0.506282
O8    O     O_R   0.822050 0.874280 0.814590 -0.508782
O9    O     O_3   0.664670 0.164660 0.254930 -0.266907
O10   O     O_3   0.335330 0.164660 0.745070 -0.295590
O11   O     O_3   0.164670 0.664660 0.254930 -0.266750
O12   O     O_R   0.216900 0.287550 0.654540 -0.550416
O13   O     O_3   0.835330 0.664660 0.745070 -0.300173
O14   O     O_R   0.760020 0.037400 0.337700 -0.513782
O15   O     O_R   0.239980 0.037400 0.662300 -0.506466
O16   O     O_R   0.260020 0.537400 0.337700 -0.512962
O17   O     O_R   0.739980 0.537400 0.662300 -0.506641
O18   O     O_R   0.666600 0.921990 0.332020 -0.522110
O19   O     O_R   0.333400 0.921990 0.667980 -0.519572
O20   O     O_R   0.166600 0.421990 0.332020 -0.523523
O21   O     O_R   0.833400 0.421990 0.667980 -0.509598
O22   O     O_R   0.557260 0.082670 0.312540 -0.520137
O23   O     O_R   0.283100 0.787550 0.345460 -0.551357
O24   O     O_R   0.442740 0.082670 0.687460 -0.526736
O25   O     O_R   0.057260 0.582670 0.312540 -0.519205
O26   O     O_R   0.942740 0.582670 0.687460 -0.513455
O27   O     O_R   0.548410 0.285740 0.316480 -0.462550
O28   O     O_R   0.451590 0.285740 0.683520 -0.457175
O29   O     O_R   0.048410 0.785740 0.316480 -0.465476
O30   O     O_R   0.951590 0.785740 0.683520 -0.486307
O31   O     O_R   0.680500 0.375040 0.327000 -0.457778
O32   O     O_R   0.319500 0.375040 0.673000 -0.454557
O33   O     O_R   0.180500 0.875040 0.327000 -0.455216
O34   O     O_R   0.716900 0.787550 0.654540 -0.559034
O35   O     O_R   0.819500 0.875040 0.673000 -0.451097
O36   O     O_R   0.780350 0.286720 0.192720 -0.517778
O37   O     O_R   0.219650 0.286720 0.807280 -0.508354
O38   O     O_R   0.280350 0.786720 0.192720 -0.518706
O39   O     O_R   0.719650 0.786720 0.807280 -0.515219
O40   O     O_R   0.757470 0.036630 0.196110 -0.499739
O41   O     O_R   0.242530 0.036630 0.803890 -0.487786
O42   O     O_R   0.257470 0.536630 0.196110 -0.499480
O43   O     O_R   0.742530 0.536630 0.803890 -0.490879
O44   O     O_R   0.663840 0.921160 0.179280 -0.497307
O45   O     O_R   0.554710 0.081900 0.170950 -0.461691
O46   O     O_R   0.336160 0.921160 0.820720 -0.513015
O47   O     O_R   0.163840 0.421160 0.179280 -0.497667
O48   O     O_R   0.836160 0.421160 0.820720 -0.510590
O49   O     O_3   0.622665 0.130953 0.039163 -0.699945
O50   O     O_3   0.492338 0.955404 0.933537 -0.710186
O51   O     O_3   0.123219 0.634134 0.038831 -0.713450
O52   O     O_3   0.995536 0.456159 0.933213 -0.711276
O53   O     O_3   0.622479 0.405960 0.438987 -0.670444
O54   O     O_3   0.375186 0.406071 0.564243 -0.670566
O55   O     O_3   0.126824 0.906139 0.440033 -0.674100
O56   O     O_R   0.445290 0.081900 0.829050 -0.463000
O57   O     O_3   0.870297 0.001320 0.582926 -0.683823
O58   O     O_R   0.054710 0.581900 0.170950 -0.462308
O59   O     O_R   0.945290 0.581900 0.829050 -0.466188
O60   O     O_R   0.545650 0.284910 0.163740 -0.545593

loop_
_geom_bond_atom_site_label_1
_geom_bond_atom_site_label_2
_ccdc_geom_bond_type
C10   C27   S    
C102  H54   S    
Cr2   O6    S    
C2    H39   S    
C71   O1    A    
Cr3   O11   S    
C98   H27   S    
C35   C53   S    
C72   O55   S    
H84   N6    S    
C30   H67   S    
C27   H45   S    
C17   O15   A    
C25   N5    S    
C39   O17   A    
C57   C66   T    
C75   O34   A    
C43   N3    S    
C35   H17   S    
C32   H14   S    
H80   N5    S    
C2    H2    S    
Cr9   O10   S    
C23   H5    S    
C46   C89   S    
C61   C99   S    
C102  H57   S    
C50   O53   S    
C81   O2    A    
C76   O40   A    
Cr3   O33   S    
C59   C64   S    
Cr7   O17   S    
C77   O41   A    
H62   N3    S    
C90   C93   T    
C37   C41   S    
C74   O23   A    
C57   C76   S    
Cr10  O25   S    
C8    H36   S    
C61   H32   S    
C5    H86   S    
C30   H51   S    
Cr6   O38   S    
C75   O35   A    
Cr8   O44   S    
C5    H85   S    
Cr4   O4    S    
Cr5   O12   S    
Cr12  O9    S    
C43   C52   S    
C104  H63   S    
H79   O57   S    
C54   C63   T    
Cr2   O32   S    
C56   C65   T    
C84   O59   A    
C101  H34   S    
C92   C96   T    
C79   O43   A    
C77   O46   A    
C62   C70   T    
C13   C18   S    
C34   C35   S    
Cr1   O14   S    
Cr7   O39   S    
C20   C61   S    
C52   C84   S    
C51   C80   S    
C103  H60   S    
C41   H24   S    
C48   O26   A    
C88   O39   A    
H76   O54   S    
C14   C39   S    
Cr11  O21   S    
C11   C15   S    
C44   C53   S    
C41   C49   S    
C4    H83   S    
C12   C16   S    
C16   C17   S    
C48   C91   S    
Cr3   O7    S    
C28   O20   A    
Cr10  O58   S    
C61   O54   S    
C37   H19   S    
C14   C98   S    
C12   H47   S    
C38   H20   S    
C26   N6    S    
C19   C27   S    
C3    H68   S    
C35   H13   S    
C6    H92   S    
C69   C87   S    
C42   C51   S    
Cr11  O26   S    
H72   O50   S    
C33   H15   S    
Cr7   O34   S    
Cr8   O22   S    
C104  H65   S    
C76   O44   A    
C9    H37   S    
C8    C16   S    
C55   C64   T    
H66   N4    S    
C8    C25   S    
C78   O42   A    
C45   O27   A    
C82   O58   A    
C94   H89   S    
C26   H8    S    
C22   C75   S    
C47   C92   S    
C3    H69   S    
Cr9   O56   S    
C71   O31   A    
C1    O14   A    
Cr6   O16   S    
C9    C26   S    
C19   C71   S    
C10   H44   S    
C83   H35   S    
C20   C29   S    
C40   C43   S    
C7    H96   S    
C23   N7    S    
C101  H30   S    
C67   C85   S    
C50   C98   S    
C22   C31   S    
C62   C66   S    
H88   N7    S    
C80   O45   A    
C20   C24   S    
C99   H28   S    
Cr12  O60   S    
C33   C51   S    
C84   O4    A    
C10   H40   S    
Cr10  O11   S    
C55   C78   S    
Cr3   O29   S    
C34   H11   S    
C82   O3    A    
Cr4   O8    S    
C3    N4    S    
C21   C74   S    
C11   H46   S    
H58   N2    S    
C56   C77   S    
Cr2   O10   S    
Cr4   O30   S    
C53   C82   S    
C103  H61   S    
C18   C101  S    
Cr1   O9    S    
C29   H50   S    
C89   C95   T    
C19   C23   S    
C13   H48   S    
C50   H31   S    
C38   C44   S    
C42   N2    S    
C100  H23   S    
C59   C68   T    
C41   N1    S    
Cr5   O10   S    
C9    C18   S    
C102  N1    S    
C5    N6    S    
Cr12  O27   S    
C5    H87   S    
C100  H29   S    
C94   H38   S    
Cr9   O24   S    
C40   H21   S    
Cr11  O13   S    
C24   H6    S    
C79   O48   A    
C1    C18   S    
C91   C97   T    
C47   O29   A    
C2    C15   S    
C25   H7    S    
C103  N2    S    
Cr7   O43   S    
C6    H91   S    
C28   O16   A    
C68   C86   S    
C17   O19   A    
C14   C94   S    
C4    H81   S    
C27   H49   S    
C60   C65   S    
C4    N5    S    
Cr1   O40   S    
C87   O7    A    
Cr4   O35   S    
C10   C14   S    
C86   O6    A    
C85   O5    A    
C7    N8    S    
Cr5   O41   S    
C3    H70   S    
C24   N8    S    
C47   O25   A    
C7    H94   S    
Cr6   O23   S    
Cr11  O48   S    
C11   H41   S    
C98   H1    S    
Cr10  O20   S    
C54   C79   S    
C44   H25   S    
C40   O51   S    
Cr11  O59   S    
C102  H55   S    
C21   C25   S    
Cr4   O13   S    
C85   O36   A    
C83   C101  S    
C96   C97   S    
C12   C30   S    
C44   N4    S    
H93   N8    S    
C13   C31   S    
C16   C100  S    
C70   C88   S    
C58   C63   S    
C104  N3    S    
C15   C99   S    
C83   O57   S    
C36   H18   S    
C36   C42   S    
C72   C100  S    
C31   H78   S    
C7    H95   S    
C40   C53   S    
Cr6   O42   S    
H73   O51   S    
C99   H12   S    
Cr12  O31   S    
C1    O18   A    
H77   O55   S    
H53   N1    S    
C21   C30   S    
C34   C52   S    
Cr8   O18   S    
C23   C94   S    
C87   O38   A    
Cr12  O5    S    
Cr9   O46   S    
C81   O56   A    
Cr2   O28   S    
C32   C33   S    
C73   O32   A    
C37   O49   S    
C104  H64   S    
C88   O8    A    
C46   O28   A    
C46   O24   A    
Cr10  O47   S    
C22   C83   S    
C78   O47   A    
C2    C24   S    
C19   C50   S    
C15   C28   S    
Cr2   O2    S    
C60   C69   T    
H75   O53   S    
C37   C51   S    
C45   O22   A    
C103  H59   S    
C4    H82   S    
C33   H10   S    
Cr7   O13   S    
C32   H9    S    
H74   O52   S    
C20   C73   S    
C86   O37   A    
C49   C81   S    
C11   C29   S    
C29   H56   S    
C48   O30   A    
C32   C49   S    
C6    H90   S    
C74   O33   A    
Cr6   O11   S    
Cr8   O9    S    
C34   H16   S    
C6    N7    S    
Cr1   O1    S    
Cr3   O3    S    
C58   C67   T    
Cr9   O19   S    
C38   C52   S    
C31   H52   S    
H71   O49   S    
C93   C95   S    
C72   H33   S    
C22   C26   S    
C80   O60   A    
C9    H4    S    
C36   O50   S    
C21   C72   S    
C43   H26   S    
C42   H22   S    
Cr5   O37   S    
Cr1   O36   S    
C12   H42   S    
Cr5   O15   S    
C38   O52   S    
Cr8   O45   S    
C13   H43   S    
C73   O12   A    
C45   C90   S    
C36   C49   S    
C8    H3    S    
C39   O21   A    
