data_mof_unit_10391.cif
_audit_creation_date              2012-12-10T21:13:15-0500
_audit_creation_method            fapswitch 2.2
_symmetry_space_group_name_H-M    P1
_symmetry_Int_Tables_number       1
_space_group_crystal_system       triclinic
_cell_length_a                    17.531401
_cell_length_b                    16.74194
_cell_length_c                    14.927094
_cell_angle_alpha                 90.140279
_cell_angle_beta                  90.19563
_cell_angle_gamma                 90.198036
_cell_volume                      4381.18137239

loop_
_atom_site_label
_atom_site_type_symbol
_atom_type_description
_atom_site_fract_x
_atom_site_fract_y
_atom_site_fract_z
_atom_type_partial_charge
C1    C     C_R   0.353094 0.499945 0.502739 0.837823
C2    C     C_R   0.231746 0.439182 0.555816 0.075754
C3    C     C_R   0.227672 0.551152 0.447647 0.059944
C4    C     C_R   0.762581 0.439144 0.426850 0.076417
C5    C     C_R   0.729604 0.498788 0.483298 -0.130027
C6    C     C_R   0.269856 0.498571 0.504170 -0.125227
C7    C     C_R   0.886535 0.477579 0.481607 0.084853
C8    C     C_R   0.114284 0.474476 0.482274 0.086103
C9    C     C_1   0.966470 0.469292 0.479012 -0.057640
C10   C     C_1   0.034151 0.468284 0.478777 -0.056731
C11   C     C_R   0.476090 0.831435 0.422630 0.016790
C12   C     C_R   0.646811 0.500059 0.495288 0.838595
C13   C     C_R   0.545173 0.167785 0.561766 0.016918
C14   C     C_R   0.522281 0.833173 0.576970 0.009588
C15   C     C_R   0.453598 0.167876 0.437733 0.019417
C16   C     C_R   0.476195 0.747148 0.425706 -0.055279
C17   C     C_R   0.544167 0.252542 0.559733 -0.027884
C18   C     C_R   0.522836 0.748314 0.574366 -0.033190
C19   C     C_R   0.455416 0.252608 0.440154 -0.028661
C20   C     C_R   0.499531 0.875545 0.499125 0.077038
C21   C     C_R   0.499438 0.124858 0.499362 0.055386
C22   C     C_1   0.499323 0.963665 0.498491 -0.067608
C23   C     C_R   0.358839 0.499227 0.040523 -0.236845
C24   C     C_1   0.499347 0.036662 0.498738 -0.079894
C25   C     C_R   0.499096 0.499910 0.326829 0.886150
C26   C     C_R   0.499995 0.500057 0.673151 0.892764
C27   C     C_R   0.573557 0.495408 0.814176 0.025910
C28   C     C_R   0.425403 0.492085 0.185724 0.024756
C29   C     C_R   0.503333 0.500292 0.768231 -0.083209
C30   C     C_R   0.495469 0.499909 0.231706 -0.083957
C31   C     C_R   0.433980 0.505011 0.812120 -0.318306
C32   C     C_R   0.564481 0.508266 0.187755 -0.314985
C33   C     C_R   0.431878 0.503303 0.904282 0.135544
C34   C     C_R   0.639845 0.504069 0.959448 -0.238845
C35   C     C_R   0.566673 0.506158 0.095622 0.135201
C36   C     C_R   0.500732 0.502012 0.953112 0.034756
C37   C     C_R   0.497919 0.502007 0.046796 0.033728
C38   C     C_R   0.572229 0.500340 0.908440 0.102295
C39   C     C_R   0.426537 0.497592 0.091486 0.103456
C40   C     C_R   0.361674 0.503089 0.947942 -0.220137
C41   C     C_R   0.636871 0.508178 0.052013 -0.216524
C42   C     C_3   0.647800 0.483110 0.762757 -0.428848
C43   C     C_3   0.677011 0.397308 0.772900 -0.329856
C44   C     C_3   0.748004 0.383473 0.716069 -0.891766
C45   C     C_R   0.855978 0.540695 0.529871 -0.172314
C46   C     C_3   0.351488 0.476832 0.236924 -0.427809
C47   C     C_3   0.323425 0.390651 0.224279 -0.332693
C48   C     C_3   0.252102 0.374553 0.279891 -0.890359
C49   C     C_3   0.743497 0.622442 0.585599 -0.381814
C50   C     C_3   0.799643 0.669776 0.644944 -0.383652
C51   C     C_3   0.758308 0.732886 0.700178 -0.896941
C52   C     C_3   0.270201 0.389773 0.628744 -0.403423
C53   C     C_3   0.234866 0.405024 0.721328 -0.378451
C54   C     C_3   0.271989 0.352710 0.792801 -0.887677
C55   C     C_3   0.265889 0.622408 0.401589 -0.382090
C56   C     C_R   0.154346 0.426011 0.540685 -0.191482
C57   C     C_3   0.216613 0.669614 0.334943 -0.382786
C58   C     C_3   0.263085 0.735621 0.290203 -0.902539
C59   C     C_3   0.717164 0.387537 0.361027 -0.397942
C60   C     C_3   0.746702 0.394757 0.264403 -0.385037
C61   C     C_3   0.699989 0.342665 0.200253 -0.876420
C62   C     C_3   0.451109 0.872279 0.337131 -0.432141
C63   C     C_3   0.520269 0.901442 0.283587 -0.322330
C64   C     C_3   0.495966 0.936682 0.193786 -0.892668
C65   C     C_3   0.593540 0.121473 0.628823 -0.414343
C66   C     C_3   0.639507 0.172218 0.695908 -0.370386
C67   C     C_R   0.149391 0.537172 0.437591 -0.175498
C68   C     C_3   0.684602 0.119543 0.760253 -0.881823
C69   C     C_3   0.545816 0.880042 0.660381 -0.423913
C70   C     C_3   0.557024 0.830675 0.746022 -0.363174
C71   C     C_3   0.576794 0.884332 0.825664 -0.875958
C72   C     C_3   0.403871 0.121646 0.371450 -0.416349
C73   C     C_3   0.356095 0.172501 0.306937 -0.375650
C74   C     C_3   0.307528 0.120210 0.245124 -0.879154
C75   C     C_R   0.841032 0.426969 0.431193 -0.188450
C76   C     C_R   0.777080 0.552710 0.532481 0.060641
H1    H     H_    0.895037 0.579822 0.565210 0.132623
H2    H     H_    0.639816 0.493808 0.690341 0.196374
H3    H     H_    0.691574 0.527296 0.784244 0.190904
H4    H     H_    0.265443 0.379911 0.352452 0.269730
H5    H     H_    0.206354 0.417545 0.262242 0.265880
H6    H     H_    0.231020 0.313091 0.266339 0.248023
H7    H     H_    0.310187 0.378326 0.152824 0.223935
H8    H     H_    0.369074 0.348992 0.245708 0.218398
H9    H     H_    0.359408 0.485968 0.309674 0.197235
H10   H     H_    0.307059 0.520384 0.216735 0.193719
H11   H     H_    0.381332 0.508241 0.773779 0.144549
H12   H     H_    0.124374 0.379476 0.576873 0.138524
H13   H     H_    0.616917 0.514247 0.226075 0.145676
H14   H     H_    0.308713 0.504803 0.910301 0.151570
H15   H     H_    0.689763 0.511642 0.089674 0.148156
H16   H     H_    0.303028 0.498461 0.070868 0.153995
H17   H     H_    0.695685 0.504798 0.929191 0.154066
H18   H     H_    0.727582 0.774954 0.655449 0.263996
H19   H     H_    0.717130 0.703873 0.746319 0.255375
H20   H     H_    0.800332 0.767231 0.740761 0.254831
H21   H     H_    0.829214 0.628549 0.691797 0.224418
H22   H     H_    0.842487 0.700512 0.602332 0.224012
H23   H     H_    0.114196 0.575325 0.396385 0.132675
H24   H     H_    0.717031 0.664700 0.537407 0.221363
H25   H     H_    0.698126 0.599420 0.629977 0.202438
H26   H     H_    0.261978 0.288583 0.777362 0.263759
H27   H     H_    0.334360 0.364055 0.796232 0.271063
H28   H     H_    0.246759 0.366316 0.859212 0.248941
H29   H     H_    0.242760 0.468876 0.739894 0.217852
H30   H     H_    0.172773 0.391807 0.720541 0.226137
H31   H     H_    0.264678 0.325462 0.611005 0.204885
H32   H     H_    0.331690 0.403252 0.635867 0.226584
H33   H     H_    0.285222 0.778132 0.341382 0.260303
H34   H     H_    0.867352 0.379115 0.393441 0.136818
H35   H     H_    0.311729 0.709705 0.252621 0.258045
H36   H     H_    0.226310 0.768846 0.242534 0.254741
H37   H     H_    0.194364 0.628802 0.282018 0.222123
H38   H     H_    0.168052 0.697816 0.370594 0.224828
H39   H     H_    0.285870 0.664471 0.454501 0.222513
H40   H     H_    0.316417 0.601399 0.364250 0.206432
H41   H     H_    0.706332 0.278666 0.218146 0.261051
H42   H     H_    0.638673 0.358719 0.202976 0.273026
H43   H     H_    0.720571 0.351381 0.130679 0.251065
H44   H     H_    0.743444 0.458038 0.242536 0.217158
H45   H     H_    0.734152 0.390390 0.643851 0.269452
H46   H     H_    0.807068 0.375554 0.259805 0.224310
H47   H     H_    0.720485 0.324243 0.383021 0.205224
H48   H     H_    0.656331 0.404382 0.358216 0.231087
H49   H     H_    0.466608 0.890657 0.152345 0.263901
H50   H     H_    0.457000 0.987923 0.204234 0.258109
H51   H     H_    0.547079 0.958011 0.157076 0.250509
H52   H     H_    0.551872 0.947781 0.322230 0.226385
H53   H     H_    0.559457 0.850583 0.270932 0.223233
H54   H     H_    0.417603 0.830029 0.294814 0.199389
H55   H     H_    0.412705 0.923050 0.352986 0.206907
H56   H     H_    0.793643 0.426629 0.734831 0.264717
H57   H     H_    0.645331 0.080847 0.799264 0.262125
H58   H     H_    0.725256 0.081449 0.722641 0.259494
H59   H     H_    0.717380 0.157778 0.807660 0.250280
H60   H     H_    0.680309 0.211130 0.659317 0.225952
H61   H     H_    0.600093 0.209944 0.735822 0.220163
H62   H     H_    0.555048 0.081475 0.667437 0.210282
H63   H     H_    0.633911 0.083277 0.590747 0.207531
H64   H     H_    0.630530 0.917641 0.812642 0.261006
H65   H     H_    0.530055 0.927517 0.838275 0.258997
H66   H     H_    0.584762 0.847180 0.886482 0.252809
H67   H     H_    0.769418 0.321950 0.727202 0.247294
H68   H     H_    0.503824 0.797134 0.761388 0.227984
H69   H     H_    0.604294 0.787700 0.736811 0.221661
H70   H     H_    0.599494 0.912924 0.645445 0.206176
H71   H     H_    0.500755 0.924921 0.674480 0.212674
H72   H     H_    0.344415 0.081105 0.203704 0.258989
H73   H     H_    0.267871 0.082617 0.284920 0.260304
H74   H     H_    0.273431 0.158733 0.199792 0.250159
H75   H     H_    0.317418 0.211935 0.345750 0.228646
H76   H     H_    0.394602 0.209501 0.264947 0.220650
H77   H     H_    0.441583 0.082491 0.331004 0.215165
H78   H     H_    0.691018 0.384377 0.843952 0.222802
H79   H     H_    0.364521 0.082705 0.410204 0.209565
H80   H     H_    0.457630 0.713173 0.367849 0.146034
H81   H     H_    0.578388 0.287565 0.605556 0.137109
H82   H     H_    0.541389 0.714178 0.631526 0.141512
H83   H     H_    0.421443 0.287708 0.394584 0.137843
H84   H     H_    0.631771 0.354847 0.751018 0.219407
N1    N     N_R   0.500000 0.707230 0.500000 -0.110748
N2    N     N_R   0.500000 0.292770 0.500000 -0.117376
O1    O     O_R   0.389110 0.566570 0.500000 -0.621914
O2    O     O_R   0.610890 0.433430 0.500000 -0.623672
O3    O     O_R   0.610890 0.566570 0.500000 -0.620469
O4    O     O_R   0.389110 0.433430 0.500000 -0.623516
O5    O     O_R   0.499980 0.566550 0.367850 -0.627125
O6    O     O_R   0.500020 0.433450 0.632150 -0.622251
O7    O     O_R   0.500020 0.566550 0.632150 -0.628600
O8    O     O_R   0.499980 0.433450 0.367850 -0.626471
Zn1   Zn    Zn3+2 0.500000 0.588860 0.500000 0.924686
Zn2   Zn    Zn3+2 0.500000 0.411140 0.500000 0.922692

loop_
_geom_bond_atom_site_label_1
_geom_bond_atom_site_label_2
_ccdc_geom_bond_type
C25   O8    A    
O3    Zn1   S    
C66   C68   S    
O4    Zn2   S    
C61   H43   S    
C58   H33   S    
C73   C74   S    
C62   H54   S    
C34   H17   S    
C65   C66   S    
C11   C62   S    
C8    C56   A    
C13   C65   S    
C53   C54   S    
C25   O5    A    
C15   C19   A    
C15   C72   S    
C26   O6    A    
C55   H39   S    
C45   C76   A    
C58   H36   S    
C7    C45   A    
C74   H72   S    
C68   H57   S    
C35   C37   A    
C49   H25   S    
C18   N1    A    
C56   H12   S    
C27   C29   A    
C55   H40   S    
C27   C38   A    
C23   C40   A    
C44   H45   S    
C25   C30   S    
C33   C36   A    
C48   H5    S    
C14   C18   A    
C4    C75   A    
C3    C55   S    
C53   H30   S    
C32   H13   S    
C52   H31   S    
C50   H21   S    
C16   H80   S    
C31   C33   A    
C74   H73   S    
C70   C71   S    
C47   H7    S    
C43   H78   S    
O1    Zn1   S    
C9    C10   T    
C63   H52   S    
C64   H49   S    
C67   H23   S    
C51   H20   S    
C71   H65   S    
C46   H9    S    
C3    C6    A    
C59   C60   S    
C72   H79   S    
C73   H75   S    
C69   H70   S    
O7    Zn1   S    
C2    C6    A    
C34   C41   A    
C59   H47   S    
C11   C20   A    
C50   H22   S    
C33   C40   A    
C31   H11   S    
C61   H41   S    
C58   H35   S    
C32   C35   A    
C14   C20   A    
C54   H27   S    
C26   O7    A    
C5    C12   S    
C43   H84   S    
C12   O3    A    
C4    C5    A    
C57   H37   S    
C28   C39   A    
C1    C6    S    
C60   C61   S    
C19   N2    A    
N1    Zn1   S    
C43   C44   S    
C62   C63   S    
C18   H82   S    
C12   O2    A    
C11   C16   A    
C47   C48   S    
C15   C21   A    
C64   H51   S    
C28   C46   S    
C50   C51   S    
C49   C76   S    
C13   C21   A    
C70   H69   S    
C47   H8    S    
C60   H46   S    
C1    O1    A    
C71   H64   S    
C2    C52   S    
C26   C29   S    
C71   H66   S    
C66   H60   S    
C65   H62   S    
C8    C10   S    
C41   H15   S    
C20   C22   S    
C42   H2    S    
C64   H50   S    
C55   C57   S    
C73   H76   S    
C69   H71   S    
C14   C69   S    
C22   C24   T    
O2    Zn2   S    
C42   C43   S    
C17   H81   S    
C52   C53   S    
O6    Zn2   S    
C54   H28   S    
C59   H48   S    
C7    C9    S    
C46   C47   S    
C36   C37   A    
C75   H34   S    
C72   H77   S    
C61   H42   S    
C34   C38   A    
C62   H55   S    
C54   H26   S    
C68   H59   S    
C3    C67   A    
C72   C73   S    
C7    C75   A    
C57   H38   S    
C13   C17   A    
C16   N1    A    
C44   H56   S    
C70   H68   S    
O5    Zn1   S    
C19   H83   S    
C48   H4    S    
C5    C76   A    
C36   C38   A    
C28   C30   A    
C29   C31   A    
C2    C56   A    
C49   H24   S    
C30   C32   A    
C27   C42   S    
C57   C58   S    
C66   H61   S    
O8    Zn2   S    
C1    O4    A    
C44   H67   S    
C23   C39   A    
C4    C59   S    
C68   H58   S    
C48   H6    S    
C60   H44   S    
C63   H53   S    
C69   C70   S    
C35   C41   A    
C17   N2    A    
C51   H18   S    
C63   C64   S    
C65   H63   S    
C53   H29   S    
C42   H3    S    
N2    Zn2   S    
C52   H32   S    
C8    C67   A    
C37   C39   A    
C49   C50   S    
C21   C24   S    
C23   H16   S    
C74   H74   S    
C45   H1    S    
C40   H14   S    
C51   H19   S    
C46   H10   S    
