data_mof_unit_50041.cif
_audit_creation_date              2012-12-11T14:34:06-0500
_audit_creation_method            fapswitch 2.2
_symmetry_space_group_name_H-M    P1
_symmetry_Int_Tables_number       1
_space_group_crystal_system       triclinic
_cell_length_a                    13.851347
_cell_length_b                    13.98165
_cell_length_c                    27.299547
_cell_angle_alpha                 90.000675
_cell_angle_beta                  90.167961
_cell_angle_gamma                 119.485292
_cell_volume                      4602.17613079

loop_
_atom_site_label
_atom_site_type_symbol
_atom_type_description
_atom_site_fract_x
_atom_site_fract_y
_atom_site_fract_z
_atom_type_partial_charge
C1    C     C_R   0.233824 0.787376 0.568681 0.538685
C2    C     C_1   0.704247 0.862872 0.860503 -0.067379
C3    C     C_2   0.472899 0.766181 0.816326 0.286819
C4    C     C_2   0.137272 0.695425 0.823102 0.317741
C5    C     C_2   0.058490 0.396102 0.815832 0.313150
C6    C     C_1   0.106348 0.884751 0.851563 -0.074187
C7    C     C_1   0.114439 0.227447 0.852181 -0.079596
C8    C     C_1   0.632085 0.817229 0.658394 -0.072220
C9    C     C_1   0.173866 0.820483 0.655521 -0.071671
C10   C     C_1   0.181738 0.359653 0.656618 -0.072606
C11   C     C_1   0.603722 0.797741 0.616184 -0.010363
C12   C     C_1   0.197772 0.807344 0.614683 -0.008614
C13   C     C_1   0.194546 0.393968 0.615390 -0.007468
C14   C     C_R   0.064934 0.150300 0.095936 0.573370
C15   C     C_R   0.212889 0.446698 0.568850 0.542428
C16   C     C_R   0.777574 0.884193 0.088343 0.549551
C17   C     C_R   0.116517 0.893805 0.088164 0.563107
C18   C     C_R   0.068740 0.159241 0.943366 0.538521
C19   C     C_R   0.779571 0.887176 0.950798 0.550441
C20   C     C_R   0.089583 0.930949 0.943676 0.536559
C21   C     C_R   0.619293 0.895928 0.361756 -0.104552
C22   C     C_R   0.096584 0.732655 0.363081 -0.104323
C23   C     C_R   0.264386 0.357240 0.364040 -0.104426
C24   C     C_R   0.645380 0.911764 0.312024 0.021758
C25   C     C_R   0.079506 0.744108 0.313367 0.022024
C26   C     C_R   0.553528 0.765655 0.568806 0.538996
C27   C     C_R   0.241736 0.306288 0.317876 0.021751
C28   C     C_R   0.681531 0.929572 0.210395 -0.043943
C29   C     C_R   0.060280 0.760480 0.211561 -0.043053
C30   C     C_R   0.200809 0.225414 0.221038 -0.043364
C31   C     C_R   0.232357 0.788345 0.431905 0.545541
C32   C     C_R   0.211693 0.444432 0.431423 0.548296
C33   C     C_R   0.555544 0.767090 0.431921 0.546759
C34   C     C_R   0.655211 0.002025 0.234634 -0.106208
C35   C     C_R   0.977236 0.671410 0.237390 -0.094842
C36   C     C_R   0.303084 0.256085 0.243611 -0.092008
C37   C     C_3   0.664659 0.739030 0.789654 -0.217695
C38   C     C_R   0.637075 0.993332 0.285167 0.363730
C39   C     C_R   0.987257 0.662332 0.287935 0.369914
C40   C     C_R   0.323735 0.296467 0.291641 0.372430
C41   C     C_R   0.704625 0.940118 0.160130 -0.145529
C42   C     C_R   0.050887 0.771516 0.161108 -0.129721
C43   C     C_R   0.182923 0.194681 0.171531 -0.124232
C44   C     C_R   0.728487 0.864857 0.136959 0.005290
C45   C     C_R   0.135352 0.861702 0.136359 0.004433
C46   C     C_R   0.082895 0.172304 0.148624 -0.002101
C47   C     C_R   0.657553 0.743801 0.363900 -0.120278
C48   C     C_3   0.245532 0.928604 0.787056 -0.215969
C49   C     C_R   0.263942 0.911350 0.362514 -0.115703
C50   C     C_R   0.076417 0.327751 0.368103 -0.119471
C51   C     C_R   0.681371 0.756634 0.314331 0.010081
C52   C     C_R   0.252049 0.921129 0.312801 0.008766
C53   C     C_R   0.053074 0.278770 0.322031 0.010938
C54   C     C_R   0.672804 0.839176 0.287954 0.008414
C55   C     C_R   0.160811 0.836356 0.287782 0.005586
C56   C     C_R   0.136547 0.270044 0.296251 0.006825
C57   C     C_R   0.705413 0.682708 0.290143 -0.091866
C58   C     C_R   0.334786 0.010616 0.287255 -0.081692
C59   C     C_3   0.030360 0.191176 0.769779 -0.229420
C60   C     C_R   0.949715 0.245133 0.300072 -0.100545
C61   C     C_R   0.717297 0.687958 0.239648 -0.115017
C62   C     C_R   0.329545 0.014271 0.236610 -0.119732
C63   C     C_R   0.930771 0.208037 0.251843 -0.112423
C64   C     C_R   0.708344 0.769092 0.213248 0.017295
C65   C     C_R   0.239328 0.930720 0.211423 0.017454
C66   C     C_R   0.013742 0.201530 0.225406 0.024687
C67   C     C_3   0.566122 0.858639 0.735335 -0.185048
C68   C     C_3   0.094275 0.721863 0.733592 -0.178682
C69   C     C_3   0.183577 0.424088 0.741226 -0.171681
C70   C     C_3   0.638403 0.724209 0.734148 -0.212464
C71   C     C_R   0.687963 0.846346 0.237222 0.046951
C72   C     C_R   0.153214 0.842503 0.236929 0.045375
C73   C     C_R   0.116442 0.230486 0.247829 0.044496
C74   C     C_R   0.723016 0.775894 0.163230 -0.116574
C75   C     C_R   0.232016 0.936650 0.161178 -0.126730
C76   C     C_R   0.997467 0.171728 0.176172 -0.123730
C77   C     C_R   0.618515 0.807539 0.386740 -0.023679
C78   C     C_R   0.192504 0.813307 0.386729 -0.025516
C79   C     C_R   0.183315 0.372265 0.388257 -0.025235
C80   C     C_3   0.769325 0.926614 0.723703 -0.231565
C81   C     C_3   0.264634 0.909029 0.733119 -0.214537
C82   C     C_3   0.078464 0.888237 0.711179 -0.228921
C83   C     C_3   0.249645 0.288950 0.724453 -0.230537
C84   C     C_3   0.784135 0.941298 0.780040 -0.240118
C85   C     C_3   0.059305 0.904393 0.765717 -0.242574
C86   C     C_3   0.232917 0.255938 0.779299 -0.237016
C87   C     C_1   0.732850 0.872992 0.902749 0.000290
C88   C     C_1   0.098470 0.905203 0.893722 -0.004033
C89   C     C_1   0.094963 0.196502 0.893930 -0.009160
C90   C     C_3   0.651856 0.831780 0.711514 0.041256
C91   C     C_3   0.152706 0.834607 0.707035 0.027675
C92   C     C_3   0.046914 0.229785 0.715922 -0.212192
C93   C     C_3   0.165913 0.326007 0.708253 0.024057
C94   C     C_3   0.575311 0.861272 0.793075 0.041024
C95   C     C_3   0.076089 0.736121 0.789769 0.039759
C96   C     C_3   0.158550 0.388445 0.796711 0.044755
C97   C     C_3   0.680758 0.851734 0.807422 0.027264
C98   C     C_3   0.120171 0.862237 0.799991 0.011367
C99   C     C_3   0.134446 0.266081 0.801049 0.011732
C100  C     C_2   0.586191 0.969358 0.811452 0.186494
C101  C     C_2   0.952194 0.669116 0.800846 0.226722
C102  C     C_2   0.259936 0.463822 0.827616 0.283618
Cr1   Cr    Cr6+3 0.164410 0.584450 0.499910 1.040326
Cr2   Cr    Cr6+3 0.415550 0.579960 0.499910 1.040027
Cr3   Cr    Cr6+3 0.420040 0.835590 0.499910 1.036222
Cr4   Cr    Cr6+3 0.155170 0.075460 0.019960 1.037504
Cr5   Cr    Cr6+3 0.924540 0.079710 0.019960 1.028090
Cr6   Cr    Cr6+3 0.920290 0.844830 0.019960 1.033833
F1    F     F_    0.610352 0.063811 0.307611 -0.654638
F2    F     F_    0.907490 0.573317 0.311773 -0.642583
F3    F     F_    0.425086 0.329345 0.311756 -0.636949
H1    H     H_    0.481408 0.799552 0.722000 0.163636
H2    H     H_    0.590569 0.946301 0.379822 0.191913
H3    H     H_    0.040109 0.657996 0.382266 0.189164
H4    H     H_    0.346599 0.390567 0.379820 0.190406
H5    H     H_    0.648865 0.065505 0.214492 0.131001
H6    H     H_    0.905512 0.607968 0.218345 0.130982
H7    H     H_    0.368456 0.252309 0.223519 0.131534
H8    H     H_    0.739493 0.716007 0.145446 0.130830
H9    H     H_    0.297869 0.005946 0.141993 0.125557
H10   H     H_    0.919351 0.151746 0.158672 0.116751
H11   H     H_    0.733767 0.628849 0.221237 0.120263
H12   H     H_    0.143590 0.679825 0.727695 0.177236
H13   H     H_    0.395418 0.082828 0.217180 0.118902
H14   H     H_    0.852884 0.188573 0.234587 0.125532
H15   H     H_    0.711578 0.618841 0.310056 0.179351
H16   H     H_    0.405362 0.075748 0.306263 0.193246
H17   H     H_    0.885189 0.251943 0.319466 0.163412
H18   H     H_    0.581364 0.939440 0.720898 0.085683
H19   H     H_    0.013837 0.668365 0.714773 0.101708
H20   H     H_    0.270632 0.491572 0.736562 0.126819
H21   H     H_    0.659132 0.677043 0.383463 0.151457
H22   H     H_    0.336409 0.975576 0.380936 0.159507
H23   H     H_    0.132263 0.458998 0.727001 0.179441
H24   H     H_    0.012748 0.337241 0.386879 0.151054
H25   H     H_    0.832994 0.908445 0.708415 0.117209
H26   H     H_    0.118350 0.969215 0.692272 0.121738
H27   H     H_    0.238124 0.217791 0.701845 0.124970
H28   H     H_    0.782508 0.004538 0.706776 0.117930
H29   H     H_    0.997193 0.835576 0.692912 0.113116
H30   H     H_    0.336053 0.356593 0.718660 0.118961
H31   H     H_    0.799555 0.024131 0.790549 0.104845
H32   H     H_    0.969184 0.861781 0.773513 0.097177
H33   H     H_    0.310729 0.307497 0.800011 0.113311
H34   H     H_    0.741506 0.734491 0.796803 0.124093
H35   H     H_    0.858825 0.936839 0.791359 0.109772
H36   H     H_    0.090242 0.992671 0.772704 0.113067
H37   H     H_    0.217114 0.170436 0.782950 0.118593
H38   H     H_    0.552040 0.656178 0.728348 0.143954
H39   H     H_    0.317988 0.870071 0.731804 0.146935
H40   H     H_    0.985439 0.256173 0.706223 0.146126
H41   H     H_    0.694958 0.700237 0.715733 0.113595
H42   H     H_    0.309933 0.989459 0.713948 0.121700
H43   H     H_    0.031199 0.159813 0.691463 0.112174
H44   H     H_    0.597094 0.669933 0.810212 0.137684
H45   H     H_    0.276889 0.017943 0.792924 0.125296
H46   H     H_    0.295116 0.905494 0.811510 0.178565
H47   H     H_    0.955926 0.191160 0.784767 0.128393
H48   H     H_    0.648678 0.046596 0.795945 0.114211
H49   H     H_    0.892764 0.674844 0.776772 0.086647
H50   H     H_    0.341808 0.481038 0.816022 0.110235
H51   H     H_    0.463662 0.762601 0.855875 0.168758
H52   H     H_    0.132823 0.702120 0.862557 0.151044
H53   H     H_    0.035994 0.379298 0.854196 0.153523
H54   H     H_    0.014145 0.105336 0.771132 0.105698
H55   H     H_    0.707772 0.007994 0.139627 0.110750
H56   H     H_    0.976300 0.713658 0.141724 0.119076
H57   H     H_    0.248058 0.192470 0.150488 0.124810
O1    O     O_R   0.137150 0.468200 0.553200 -0.506855
O2    O     O_R   0.140110 0.470540 0.446010 -0.511172
O3    O     O_R   0.529460 0.669570 0.446010 -0.511129
O4    O     O_R   0.330430 0.859890 0.446010 -0.513104
O5    O     O_R   0.176710 0.690910 0.450560 -0.500991
O6    O     O_R   0.309090 0.485800 0.450560 -0.500201
O7    O     O_R   0.514200 0.823290 0.450560 -0.503389
O8    O     O_3   0.333333 0.666667 0.499990 -0.271559
O9    O     O_R   0.176750 0.985260 0.074180 -0.529204
O10   O     O_R   0.014740 0.191490 0.074180 -0.486209
O11   O     O_R   0.808510 0.823250 0.074180 -0.516046
O12   O     O_R   0.531800 0.668950 0.553200 -0.508109
O13   O     O_R   0.146100 0.172630 0.068980 -0.474984
O14   O     O_R   0.827370 0.973470 0.068980 -0.518676
O15   O     O_R   0.026530 0.853900 0.068980 -0.489643
O16   O     O_3   0.000000 0.000000 0.020040 -0.302300
O17   O     O_R   0.148270 0.170520 0.969620 -0.481776
O18   O     O_R   0.829480 0.977750 0.969620 -0.519004
O19   O     O_R   0.022250 0.851730 0.969620 -0.468840
O20   O     O_2   0.525165 0.972050 0.843023 -0.517921
O21   O     O_2   0.916937 0.607711 0.836150 -0.479078
O22   O     O_2   0.252140 0.505796 0.865604 -0.464706
O23   O     O_R   0.331050 0.862850 0.553200 -0.506863
O24   O     O_2   0.401910 0.691851 0.791761 -0.517347
O25   O     O_2   0.191185 0.655122 0.806985 -0.451329
O26   O     O_2   0.001429 0.418771 0.789322 -0.503211
O27   O     O_R   0.179100 0.982980 0.967000 -0.492341
O28   O     O_R   0.017020 0.196120 0.967000 -0.469132
O29   O     O_R   0.803880 0.820900 0.967000 -0.502002
O30   O     O_R   0.173970 0.688730 0.549930 -0.498850
O31   O     O_R   0.311270 0.485240 0.549930 -0.499387
O32   O     O_R   0.514760 0.826030 0.549930 -0.497773

loop_
_geom_bond_atom_site_label_1
_geom_bond_atom_site_label_2
_ccdc_geom_bond_type
C58   C62   A    
C69   H23   S    
Cr3   O4    S    
C96   C102  S    
C29   C42   A    
C59   C99   S    
C37   H44   S    
Cr6   O19   S    
C1    O30   A    
C80   C84   S    
C69   C96   S    
C50   C79   A    
C85   H32   S    
C46   C76   A    
C95   C98   S    
C86   H33   S    
C14   C46   S    
C67   H18   S    
C43   H57   S    
C49   C78   A    
C74   H8    S    
C1    C12   S    
Cr5   O18   S    
C7    C99   S    
C60   C63   A    
C76   H10   S    
C6    C98   S    
C5    C96   S    
C100  O20   D    
C17   C45   S    
C82   H26   S    
C69   C93   S    
C50   H24   S    
C102  H50   S    
C19   O18   A    
C59   H47   S    
C16   O14   A    
C31   O4    A    
C24   C54   A    
C81   H39   S    
C83   C93   S    
C96   C99   S    
C28   C41   A    
Cr1   O5    S    
C68   C91   S    
C81   H42   S    
C48   C81   S    
C15   O1    A    
C64   C71   A    
Cr6   O29   S    
Cr3   O23   S    
Cr1   O8    S    
C82   H29   S    
C85   C98   S    
C3    H51   S    
C102  O22   D    
Cr3   O32   S    
C54   C71   A    
C2    C97   S    
C22   C25   A    
C67   C94   S    
C24   C38   A    
C51   C57   A    
C84   H31   S    
C36   H7    S    
C16   C44   S    
C20   O27   A    
C55   C72   A    
C59   H54   S    
C16   O11   A    
C37   C97   S    
C29   C72   A    
C48   H45   S    
C63   C66   A    
C28   C34   A    
C58   H16   S    
C37   C70   S    
C9    C91   S    
C70   C90   S    
C70   H38   S    
C68   H12   S    
C62   H13   S    
Cr5   O28   S    
C9    C12   T    
C53   C60   A    
C40   F3    S    
C80   H28   S    
C39   F2    S    
C4    O25   D    
C19   O29   A    
C50   C53   A    
Cr6   O16   S    
Cr5   O14   S    
C18   O28   A    
C68   C95   S    
C5    H53   S    
C25   C55   A    
C36   C40   A    
C70   H41   S    
C65   C75   A    
C101  H49   S    
Cr2   O8    S    
C57   H15   S    
C83   H30   S    
C30   C73   A    
C27   C56   A    
Cr2   O6    S    
C94   C97   S    
C66   C73   A    
C32   O6    A    
Cr3   O8    S    
C67   C90   S    
C82   C91   S    
Cr6   O11   S    
C61   H11   S    
C42   C45   A    
C61   C64   A    
C35   C39   A    
Cr4   O13   S    
Cr1   O2    S    
C4    C95   S    
C15   O31   A    
C17   O15   A    
C94   C100  S    
C27   C40   A    
C69   H20   S    
C49   C52   A    
C10   C93   S    
C41   H55   S    
C92   H40   S    
C4    H52   S    
C2    C87   T    
C63   H14   S    
C38   F1    S    
C44   C74   A    
C86   C99   S    
C22   C78   A    
C14   O10   A    
C52   C58   A    
Cr2   O3    S    
C1    O23   A    
C21   H2    S    
C23   C27   A    
C13   C15   S    
Cr5   O10   S    
C41   C44   A    
C30   C43   A    
C35   H6    S    
C28   C71   A    
C8    C90   S    
C84   C97   S    
C32   O2    A    
C82   C85   S    
C14   O13   A    
C26   O32   A    
C42   H56   S    
C31   C78   S    
C31   O5    A    
C53   C56   A    
C17   O9    A    
C62   C65   A    
C33   O3    A    
C49   H22   S    
C64   C74   A    
C56   C73   A    
Cr4   O9    S    
Cr6   O15   S    
C34   C38   A    
C18   C89   S    
C75   H9    S    
C85   H36   S    
C60   H17   S    
C10   C13   T    
C86   H37   S    
C47   C51   A    
C52   C55   A    
C57   C61   A    
Cr4   O27   S    
C26   O12   A    
C65   C72   A    
C48   C98   S    
C48   H46   S    
C29   C35   A    
C18   O17   A    
C101  O21   D    
C11   C26   S    
C30   C36   A    
C47   H21   S    
C45   C75   A    
C51   C54   A    
C37   H34   S    
C19   C87   S    
C6    C88   T    
C3    O24   D    
C25   C39   A    
C20   O19   A    
C100  H48   S    
C33   C77   S    
Cr2   O12   S    
C8    C11   T    
C20   C88   S    
C92   C93   S    
Cr2   O31   S    
C3    C94   S    
C59   C92   S    
C80   C90   S    
C33   O7    A    
C43   C46   A    
C80   H25   S    
C23   H4    S    
C81   C91   S    
Cr4   O17   S    
C67   H1    S    
C22   H3    S    
C83   C86   S    
Cr3   O7    S    
C21   C24   A    
C21   C77   A    
Cr1   O1    S    
C47   C77   A    
C68   H19   S    
C92   H43   S    
C84   H35   S    
C23   C79   A    
Cr4   O16   S    
Cr5   O16   S    
C34   H5    S    
Cr1   O30   S    
C83   H27   S    
C66   C76   A    
C95   C101  S    
C5    O26   D    
C32   C79   S    
C7    C89   T    
