data_mof_unit_50707.cif
_audit_creation_date              2012-12-10T18:58:14-0500
_audit_creation_method            fapswitch 2.2
_symmetry_space_group_name_H-M    P1
_symmetry_Int_Tables_number       1
_space_group_crystal_system       triclinic
_cell_length_a                    11.031792
_cell_length_b                    10.82127
_cell_length_c                    9.534731
_cell_angle_alpha                 90.081136
_cell_angle_beta                  102.945729
_cell_angle_gamma                 90.176965
_cell_volume                      1109.29831858

loop_
_atom_site_label
_atom_site_type_symbol
_atom_type_description
_atom_site_fract_x
_atom_site_fract_y
_atom_site_fract_z
_atom_type_partial_charge
C1    C     C_R   0.497384 0.262290 0.499203 0.799486
C2    C     C_R   0.484600 0.129204 0.495619 -0.096188
C3    C     C_R   0.467344 0.064148 0.364812 -0.218662
C4    C     C_R   0.467653 0.935282 0.364970 -0.224952
C5    C     C_R   0.485298 0.870794 0.495943 -0.097902
C6    C     C_R   0.484830 0.936629 0.621754 0.134125
C7    C     C_3   0.572581 0.931146 0.765765 -0.480039
C8    C     C_3   0.571403 0.071418 0.765850 -0.460603
C9    C     C_R   0.558035 0.592682 0.088774 0.259461
C10   C     C_R   0.432434 0.415812 0.056839 -0.098905
C11   C     C_R   0.432454 0.415774 0.907872 -0.081632
C12   C     C_R   0.261843 0.502897 0.440609 0.826665
C13   C     C_R   0.558158 0.592526 0.941290 0.261657
C14   C     C_3   0.692910 0.624462 0.970241 -0.513621
C15   C     C_3   0.692810 0.625165 0.129140 -0.506325
C16   C     C_R   0.497803 0.737734 0.499418 0.797149
C17   C     C_R   0.737546 0.496916 0.558725 0.864100
C18   C     C_2   0.124501 0.504579 0.404848 -0.064711
C19   C     C_2   0.066697 0.472506 0.510409 -0.196358
C20   C     C_2   0.873188 0.490293 0.592303 -0.358170
C21   C     C_2   0.931380 0.466432 0.486739 -0.170004
C22   C     C_R   0.484246 0.063809 0.621552 0.118637
Cu1   Cu    Cu3+1 0.499990 0.499980 0.640670 0.933961
Cu2   Cu    Cu3+1 0.500010 0.500020 0.359330 0.926034
H1    H     H_    0.878104 0.445996 0.379163 0.171992
H2    H     H_    0.662630 0.113361 0.761373 0.199360
H3    H     H_    0.379661 0.346263 0.098988 0.134995
H4    H     H_    0.379743 0.346133 0.838223 0.136244
H5    H     H_    0.749998 0.548763 0.940042 0.218504
H6    H     H_    0.709967 0.717094 0.928576 0.191429
H7    H     H_    0.750383 0.550192 0.188785 0.210643
H8    H     H_    0.709204 0.718329 0.179176 0.193850
H9    H     H_    0.119659 0.451527 0.618260 0.169403
H10   H     H_    0.925316 0.507905 0.701449 0.147126
H11   H     H_    0.459730 0.112128 0.263597 0.159552
H12   H     H_    0.460158 0.886921 0.263818 0.161594
H13   H     H_    0.528640 0.890025 0.849066 0.195241
H14   H     H_    0.664416 0.891798 0.760332 0.192520
H15   H     H_    0.526163 0.111283 0.848696 0.193831
N1    N     N_R   0.500780 0.500930 0.148120 -0.184986
N2    N     N_R   0.500790 0.500890 0.852210 -0.182404
O1    O     O_R   0.500000 0.319640 0.618810 -0.582536
O2    O     O_R   0.500010 0.319680 0.381230 -0.587116
O3    O     O_R   0.320680 0.500000 0.575130 -0.591726
O4    O     O_R   0.320690 0.500040 0.337550 -0.592124
O5    O     O_R   0.499990 0.680320 0.618770 -0.576115
O6    O     O_R   0.500000 0.680360 0.381190 -0.588956
O7    O     O_R   0.679310 0.499960 0.662450 -0.583348
O8    O     O_R   0.679320 0.500000 0.424870 -0.576562
C23   C     C_3   0.047947 0.544102 0.256544 -0.419626
C24   C     C_3   0.119274 0.607010 0.154572 -0.308246
C25   C     C_3   0.030396 0.662998 0.024343 -0.891155
H16   H     H_    0.971330 0.589570 0.961963 0.251094
H17   H     H_    0.970265 0.733658 0.058954 0.262651
H18   H     H_    0.084644 0.707924 0.953360 0.245229
H19   H     H_    0.179709 0.681926 0.212429 0.224442
H20   H     H_    0.176970 0.537946 0.113215 0.238810
H21   H     H_    0.998270 0.461922 0.201156 0.192906
H22   H     H_    0.977091 0.611454 0.274929 0.220275

loop_
_geom_bond_atom_site_label_1
_geom_bond_atom_site_label_2
_ccdc_geom_bond_type
C10   H3    S    
C2    C22   A    
C8    C22   S    
Cu1   Cu2   S    
C17   O7    A    
C15   H7    S    
C6    C7    S    
C24   H20   S    
C8    H15   S    
C8    H2    S    
Cu1   N2    S    
C25   H18   S    
C3    H11   S    
C20   H10   S    
C13   N2    A    
C23   C24   S    
C7    H13   S    
C15   H8    S    
C12   O3    A    
Cu1   O5    S    
C13   C14   S    
C25   H16   S    
Cu1   O1    S    
C11   H4    S    
C14   H6    S    
Cu2   O4    S    
C16   O6    A    
C19   C21   S    
C7    H14   S    
C25   H17   S    
C2    C3    A    
C9    C15   S    
C5    C6    A    
C4    H12   S    
C10   C11   A    
C23   H22   S    
C14   H5    S    
C12   C18   S    
C3    C4    A    
C23   H21   S    
C1    O1    A    
C7    C8    S    
C17   C20   S    
C24   C25   S    
C20   C21   D    
C18   C23   S    
C10   N1    A    
C1    C2    S    
C19   H9    S    
C11   N2    A    
C16   O5    A    
Cu2   O8    S    
C12   O4    A    
Cu2   O2    S    
C9    C13   A    
C14   C15   S    
C18   C19   D    
C5    C16   S    
C21   H1    S    
Cu1   O7    S    
Cu2   N1    S    
Cu2   O6    S    
C1    O2    A    
C9    N1    A    
C17   O8    A    
Cu1   O3    S    
C24   H19   S    
C4    C5    A    
C6    C22   A    
