data_mof_unit_19389.cif
_audit_creation_date              2012-10-26T19:06:49-0400
_audit_creation_method            fapswitch 2.2
_symmetry_space_group_name_H-M    P1
_symmetry_Int_Tables_number       1
_space_group_crystal_system       triclinic
_cell_length_a                    12.402403
_cell_length_b                    13.439718
_cell_length_c                    27.734663
_cell_angle_alpha                 75.551352
_cell_angle_beta                  99.992294
_cell_angle_gamma                 117.367264
_cell_volume                      3966.37762232

loop_
_atom_site_label
_atom_site_type_symbol
_atom_type_description
_atom_site_fract_x
_atom_site_fract_y
_atom_site_fract_z
_atom_type_partial_charge
C1    C     C_R   0.853716 0.285182 0.508849 0.536600
C2    C     C_R   0.916327 0.400745 0.030634 -0.007491
C3    C     C_R   0.085817 0.592528 0.021757 0.031603
C4    C     C_R   0.999304 0.500109 0.592234 0.547367
C5    C     C_R   0.999042 0.496144 0.051517 0.027315
C6    C     C_R   0.814399 0.320536 0.056841 -0.071429
C7    C     C_R   0.803816 0.320347 0.106233 0.224661
C8    C     C_R   0.899285 0.405086 0.130872 0.010757
C9    C     C_R   0.993849 0.495779 0.102254 -0.059279
C10   C     C_R   0.083465 0.586916 0.124129 0.034420
C11   C     C_R   0.081441 0.584625 0.174616 0.409373
C12   C     C_R   0.909382 0.523672 0.711102 0.017428
C13   C     C_R   0.904589 0.405583 0.182335 0.430797
C14   C     C_R   0.023726 0.416919 0.291296 -0.044613
C15   C     C_R   0.025367 0.417950 0.341586 -0.143707
C16   C     C_R   0.145710 0.712953 0.491699 0.543486
C17   C     C_R   0.967866 0.574359 0.318157 -0.126466
C18   C     C_R   0.966018 0.573141 0.267938 -0.038121
C19   C     C_R   0.994430 0.494797 0.254315 0.229475
C20   C     C_R   0.931195 0.393900 0.982139 0.005696
C21   C     C_R   0.004011 0.496374 0.950384 0.010691
C22   C     C_R   0.079670 0.596846 0.969782 0.029905
C23   C     C_R   0.997771 0.503033 0.746184 0.233775
C24   C     C_R   0.876919 0.290033 0.963560 0.199838
C25   C     C_R   0.139181 0.700493 0.885636 -0.089408
C26   C     C_R   0.174408 0.681855 0.044932 -0.117575
C27   C     C_R   0.173758 0.678383 0.095319 -0.077991
C28   C     C_R   0.000068 0.499306 0.407948 0.549603
C29   C     C_R   0.145241 0.698592 0.936352 -0.122258
C30   C     C_R   0.270360 0.027988 0.487307 0.264292
C31   C     C_R   0.230620 0.833802 0.488306 -0.049604
C32   C     C_R   0.817724 0.079402 0.523559 -0.112820
C33   C     C_R   0.742949 0.960558 0.533962 0.017961
C34   C     C_R   0.001705 0.498349 0.898941 -0.036188
C35   C     C_R   0.615361 0.919609 0.536892 0.021849
C36   C     C_R   0.564296 0.999414 0.519688 0.044879
C37   C     C_R   0.643125 0.115367 0.520285 0.015199
C38   C     C_R   0.437756 0.970345 0.506629 -0.006514
C39   C     C_R   0.392632 0.051898 0.503890 0.043283
C40   C     C_R   0.930645 0.401767 0.828651 0.441079
C41   C     C_R   0.470148 0.153143 0.520059 -0.097783
C42   C     C_R   0.592718 0.181974 0.528893 -0.112331
C43   C     C_R   0.355871 0.864987 0.494520 -0.141684
C44   C     C_R   0.188999 0.917040 0.481767 -0.111993
C45   C     C_R   0.932394 0.397862 0.879813 -0.006096
C46   C     C_R   0.770287 0.158699 0.518087 -0.027820
C47   C     C_R   0.353742 0.351170 0.589029 -0.112190
C48   C     C_R   0.771799 0.654764 0.435195 0.063282
C49   C     C_R   0.703254 0.714114 0.432152 -0.152904
C50   C     C_R   0.609041 0.670178 0.463624 -0.145690
C51   C     C_R   0.571752 0.559765 0.493086 -0.006177
C52   C     C_R   0.064045 0.601053 0.815648 0.435225
C53   C     C_R   0.659693 0.516724 0.502551 0.182725
C54   C     C_R   0.460452 0.497258 0.518589 -0.010542
C55   C     C_R   0.457703 0.413950 0.561982 0.015998
C56   C     C_R   0.872635 0.294623 0.912414 -0.075588
C57   C     C_R   0.557997 0.390702 0.577147 -0.202068
C58   C     C_R   0.654488 0.438150 0.546856 -0.127676
C59   C     C_R   0.348179 0.504068 0.500775 0.146909
C60   C     C_R   0.249191 0.365837 0.572003 0.092362
C61   C     C_R   0.086391 0.481847 0.730493 0.294861
C62   C     C_R   0.085761 0.481083 0.680220 -0.129570
C63   C     C_R   0.911048 0.522835 0.660845 -0.148252
C64   C     C_3   0.813476 0.548175 0.725990 -0.257540
C65   C     C_3   0.687505 0.448355 0.723109 -0.423206
C66   C     C_3   0.545192 0.802804 0.570096 -0.284032
C67   C     C_R   0.068689 0.600889 0.866553 0.041673
C68   C     C_3   0.476154 0.807998 0.609521 -0.403017
C69   C     C_3   0.801503 0.878837 0.544307 -0.297930
C70   C     C_3   0.893194 0.908125 0.506848 -0.409113
C71   C     C_3   0.333021 0.565776 0.447638 -0.234891
C72   C     C_3   0.300725 0.489307 0.409945 -0.376821
C73   C     C_R   0.998471 0.501224 0.645149 -0.059228
C74   C     C_R   0.998981 0.497673 0.355264 0.003087
Cu1   Cu    Cu3+1 0.098270 0.475420 0.511360 0.943043
Cu2   Cu    Cu3+1 0.901730 0.524580 0.488640 0.936168
H1    H     H_    0.843783 0.539533 0.633988 0.141102
H2    H     H_    0.388217 0.805766 0.490641 0.132324
H3    H     H_    0.914696 0.110341 0.522052 0.176647
H4    H     H_    0.647918 0.250325 0.547112 0.120935
H5    H     H_    0.169615 0.319303 0.593464 0.132604
H6    H     H_    0.558116 0.328729 0.610754 0.115100
H7    H     H_    0.352879 0.289699 0.622940 0.115328
H8    H     H_    0.849104 0.691651 0.412721 0.135187
H9    H     H_    0.827404 0.215682 0.898437 0.183769
H10   H     H_    0.572941 0.726928 0.467618 0.108759
H11   H     H_    0.727646 0.796830 0.407769 0.129714
H12   H     H_    0.190530 0.780644 0.861420 0.175456
H13   H     H_    0.723862 0.411282 0.559489 0.165719
H14   H     H_    0.045439 0.355601 0.369713 0.154412
H15   H     H_    0.045013 0.355651 0.281006 0.159803
H16   H     H_    0.739432 0.259759 0.037799 0.198711
H17   H     H_    0.153802 0.464733 0.668380 0.183245
H18   H     H_    0.351503 0.421951 0.769646 0.372198
H19   H     H_    0.367220 0.307891 0.460240 0.340007
H20   H     H_    0.660317 0.433495 0.684292 0.145267
H21   H     H_    0.687135 0.369483 0.748073 0.200496
H22   H     H_    0.619636 0.467900 0.735132 0.155017
H23   H     H_    0.247755 0.754113 0.025280 0.137316
H24   H     H_    0.833372 0.565416 0.764428 0.166470
H25   H     H_    0.812365 0.626284 0.700735 0.148036
H26   H     H_    0.536557 0.878526 0.629565 0.166856
H27   H     H_    0.394006 0.819826 0.593015 0.167493
H28   H     H_    0.445398 0.726314 0.637152 0.165610
H29   H     H_    0.484595 0.736757 0.548082 0.138016
H30   H     H_    0.608535 0.769336 0.592704 0.142896
H31   H     H_    0.858200 0.931573 0.468188 0.184338
H32   H     H_    0.980574 0.979273 0.515916 0.217476
H33   H     H_    0.910406 0.832816 0.509368 0.148375
H34   H     H_    0.946258 0.635915 0.328039 0.132007
H35   H     H_    0.847295 0.878443 0.582477 0.154444
H36   H     H_    0.732326 0.790555 0.542235 0.148021
H37   H     H_    0.382161 0.479824 0.404912 0.172747
H38   H     H_    0.226677 0.403677 0.422685 0.221643
H39   H     H_    0.271823 0.529405 0.373262 0.151539
H40   H     H_    0.271632 0.604604 0.444650 0.198996
H41   H     H_    0.409121 0.644509 0.433405 0.098788
H42   H     H_    0.533983 0.204854 0.069904 0.344869
H43   H     H_    0.809506 0.032807 0.955610 0.356177
H44   H     H_    0.244247 0.748590 0.111539 0.194973
H45   H     H_    0.942613 0.633072 0.239533 0.152381
H46   H     H_    0.198963 0.779242 0.948141 0.129126
H47   H     H_    0.093748 0.895735 0.472089 0.152608
H48   H     H_    0.436641 0.208884 0.527220 0.162363
N1    N     N_R   0.996858 0.502103 0.797953 -0.380993
N2    N     N_R   0.993671 0.494739 0.202534 -0.411070
N3    N     N_R   0.246290 0.438210 0.528570 -0.220944
N4    N     N_R   0.754320 0.561170 0.471730 -0.234812
O1    O     O_R   0.972510 0.318140 0.514280 -0.486037
O2    O     O_R   0.082990 0.479230 0.439860 -0.519232
O3    O     O_R   0.917010 0.520730 0.420680 -0.491132
O4    O     O_2   0.864599 0.305989 0.809738 -0.478198
O5    O     O_2   0.273940 0.557422 0.797491 -0.245550
O6    O     O_2   0.138624 0.352440 0.812504 -0.231263
O7    O     O_3   0.290811 0.433520 0.743411 -0.555983
O8    O     O_2   0.103906 0.099001 0.436603 -0.281397
O9    O     O_2   0.198275 0.163983 0.515098 -0.353002
O10   O     O_3   0.327068 0.253733 0.437091 -0.508508
O11   O     O_2   0.691462 0.127726 0.172240 -0.148064
O12   O     O_2   0.823700 0.317834 0.212548 -0.383494
O13   O     O_2   0.612232 0.270529 0.156652 -0.223525
O14   O     O_3   0.563178 0.148539 0.089733 -0.470155
O15   O     O_2   0.905448 0.161821 0.052977 -0.198840
O16   O     O_2   0.705075 0.089767 0.007388 -0.274756
O17   O     O_3   0.882514 0.077282 0.975704 -0.466986
O18   O     O_2   0.126657 0.698882 0.784069 -0.473260
O19   O     O_2   0.167519 0.671031 0.195974 -0.465097
O20   O     O_R   0.806530 0.359640 0.495100 -0.497251
O21   O     O_R   0.082990 0.479270 0.579320 -0.507514
O22   O     O_R   0.917010 0.520770 0.560140 -0.526750
O23   O     O_R   0.193470 0.640360 0.504900 -0.524666
O24   O     O_R   0.027490 0.681860 0.485720 -0.511864
S1    S     S_3+6 0.198984 0.455958 0.773099 0.039058
S2    S     S_3+6 0.219950 0.136601 0.469353 -0.032510
S3    S     S_3+6 0.665909 0.215554 0.133065 0.107671
S4    S     S_3+6 0.840096 0.152689 0.002128 0.041695

loop_
_geom_bond_atom_site_label_1
_geom_bond_atom_site_label_2
_ccdc_geom_bond_type
C10   C27   A    
C66   C68   S    
C42   H4    S    
C8    C13   A    
C22   C29   A    
C41   C42   A    
C49   H11   S    
C35   C36   A    
C25   C67   A    
C68   H27   S    
C28   C74   S    
C17   H34   S    
C56   H9    S    
O15   S4    D    
C7    C8    A    
C39   C41   A    
C27   H44   S    
C16   C31   S    
C4    O21   A    
C12   C23   A    
C26   C27   A    
C31   C43   A    
O5    S1    D    
C41   H48   S    
C36   C37   A    
C70   H33   S    
C68   H26   S    
C65   H22   S    
C1    O1    A    
C70   H31   S    
C38   C39   A    
C12   C64   S    
Cu2   O3    S    
C1    C46   S    
O6    S1    D    
Cu2   O24   S    
C59   N3    A    
C72   H38   S    
C18   C19   A    
C37   C42   A    
C33   C35   A    
C47   C60   A    
O17   S4    S    
C65   H20   S    
C20   C24   A    
C45   C56   A    
Cu1   O23   S    
C8    C9    A    
O9    S2    D    
C62   C73   A    
C47   H7    S    
O14   S3    S    
C9    C10   A    
C3    C22   A    
Cu1   N3    S    
Cu1   O2    S    
C33   C69   S    
C26   H23   S    
C23   N1    S    
O10   S2    S    
H18   O7    S    
C40   O4    S    
C21   C22   A    
C30   C44   A    
C2    C6    A    
C66   H30   S    
C50   C51   A    
C54   C59   A    
C60   N3    A    
C25   C29   A    
C64   H25   S    
C31   C44   A    
C71   H41   S    
C2    C20   A    
C13   O12   S    
C11   N2    A    
C12   C63   A    
O13   S3    D    
C21   C34   A    
C63   C73   A    
C35   C66   S    
C3    C5    A    
C72   H37   S    
C25   H12   S    
C48   H8    S    
C51   C53   A    
O16   S4    D    
Cu1   Cu2   S    
C5    C9    A    
C53   N4    A    
C48   N4    A    
O8    S2    D    
C60   H5    S    
C72   H39   S    
Cu2   O22   S    
C53   C58   A    
C29   H46   S    
C17   C18   A    
C16   O24   A    
C34   C45   A    
C20   C21   A    
C4    C73   S    
C52   C67   A    
C13   N2    A    
C48   C49   A    
C30   S2    S    
C55   C57   A    
C17   C74   A    
Cu2   N4    S    
C2    C5    A    
H43   O17   S    
C66   H29   S    
C47   C55   A    
C63   H1    S    
C23   C61   A    
C43   H2    S    
C54   C55   A    
H19   O10   S    
C52   O18   S    
C19   N2    S    
C14   C15   A    
C32   C46   A    
C14   C19   A    
C3    C26   A    
C68   H28   S    
H42   O14   S    
C61   S1    S    
C34   C67   A    
C52   N1    A    
C6    C7    A    
C24   C56   A    
C4    O22   A    
O11   S3    D    
C44   H47   S    
O7    S1    S    
C28   O3    A    
C64   C65   S    
C51   C54   A    
C36   C38   A    
C65   H21   S    
C38   C43   A    
C70   H32   S    
C32   C33   A    
C15   H14   S    
C69   H35   S    
C11   O19   S    
C57   C58   A    
Cu1   O21   S    
C6    H16   S    
C40   N1    A    
C69   H36   S    
C30   C39   A    
C16   O23   A    
C28   O2    A    
C61   C62   A    
C58   H13   S    
C69   C70   S    
C14   H15   S    
C71   H40   S    
C10   C11   A    
C50   H10   S    
C18   H45   S    
C24   S4    S    
C64   H24   S    
C15   C74   A    
C7    S3    S    
C40   C45   A    
Cu2   O20   S    
C49   C50   A    
C62   H17   S    
C57   H6    S    
C1    O20   A    
C71   C72   S    
C37   C46   A    
Cu1   O1    S    
C59   C71   S    
C32   H3    S    
