data_mof_unit_21259.cif
_audit_creation_date              2012-12-10T17:46:58-0500
_audit_creation_method            fapswitch 2.2
_symmetry_space_group_name_H-M    P1
_symmetry_Int_Tables_number       1
_space_group_crystal_system       triclinic
_cell_length_a                    9.971823
_cell_length_b                    10.769017
_cell_length_c                    13.625366
_cell_angle_alpha                 89.940327
_cell_angle_beta                  84.87935
_cell_angle_gamma                 89.541004
_cell_volume                      1457.29705708

loop_
_atom_site_label
_atom_site_type_symbol
_atom_type_description
_atom_site_fract_x
_atom_site_fract_y
_atom_site_fract_z
_atom_type_partial_charge
C1    C     C_R   0.497169 0.739881 0.505300 0.869734
C2    C     C_R   0.605445 0.934083 0.535665 -0.230653
C3    C     C_R   0.608916 0.061454 0.536829 -0.031444
C4    C     C_R   0.477637 0.500191 0.685097 0.927934
C5    C     C_R   0.507209 0.126925 0.491446 -0.187963
C6    C     C_R   0.867025 0.534844 0.678932 -0.060400
C7    C     C_R   0.925081 0.497565 0.765664 -0.140117
C8    C     C_R   0.036886 0.415594 0.756568 -0.197284
C9    C     C_R   0.106926 0.396948 0.662393 -0.075436
C10   C     C_R   0.059543 0.458063 0.580207 0.095923
C11   C     C_R   0.920620 0.488379 0.586414 0.081337
C12   C     C_1   0.462280 0.496032 0.788145 0.006529
C13   C     C_R   0.938651 0.541189 0.419937 -0.023676
C14   C     C_R   0.081429 0.549967 0.423295 -0.013109
C15   C     C_R   0.501802 0.260268 0.496551 0.946315
C16   C     C_R   0.522056 0.500223 0.314854 0.904148
C17   C     C_1   0.533426 0.479487 0.213059 0.003320
C18   C     C_2   0.527007 0.425941 0.027281 -0.145092
C19   C     C_2   0.430536 0.482973 0.979497 -0.114087
C20   C     C_1   0.446519 0.490310 0.875359 0.168584
C21   C     C_1   0.534602 0.454728 0.128193 0.075389
C22   C     C_2   0.312322 0.550259 0.029514 0.978866
C23   C     C_R   0.241593 0.899160 0.486687 -0.061947
C24   C     C_1   0.790850 0.649567 0.682937 0.323987
C25   C     C_2   0.873586 0.548249 0.864371 0.983599
C26   C     C_2   0.073424 0.344718 0.844039 1.018671
C27   C     C_2   0.184475 0.280777 0.645575 0.973780
C28   C     C_1   0.160098 0.619862 0.348594 0.296773
C29   C     C_2   0.632053 0.340299 0.980041 1.015057
C30   C     C_1   0.183852 0.823201 0.567532 0.231764
C31   C     C_1   0.018707 0.910369 0.417818 0.228488
C32   C     C_2   0.371664 0.207275 0.305990 0.929508
C33   C     C_2   0.717984 0.119941 0.587984 0.971408
C34   C     C_R   0.153757 0.955247 0.424109 -0.002886
C35   C     C_1   0.880758 0.591894 0.335072 0.289448
C36   C     C_R   0.197751 0.055949 0.365824 -0.140368
C37   C     C_R   0.321966 0.111181 0.378140 -0.091223
C38   C     C_R   0.403352 0.061744 0.449623 -0.043372
C39   C     C_R   0.376578 0.942191 0.485144 0.053424
C40   C     C_R   0.489190 0.873285 0.513579 -0.104621
H1    H     H_    0.691704 0.883013 0.556699 0.203817
H2    H     H_    0.133754 0.093206 0.312391 0.179751
H3    H     H_    0.170979 0.684052 0.020875 0.371778
H4    H     H_    0.718652 0.623209 0.950415 0.340206
H5    H     H_    0.010829 0.234137 0.958211 0.375513
H6    H     H_    0.186958 0.110606 0.587431 0.346859
H7    H     H_    0.694372 0.227964 0.866533 0.372152
H8    H     H_    0.562616 0.138808 0.290848 0.312546
H9    H     H_    0.769784 0.243647 0.688650 0.346700
N1    N     N_R   0.857120 0.501200 0.500900 -0.131372
N2    N     N_R   0.142720 0.501280 0.500940 -0.137362
N3    N     N_1   0.730199 0.741476 0.689907 -0.199588
N4    N     N_1   0.221558 0.677720 0.288977 -0.173644
N5    N     N_1   0.137455 0.763174 0.632231 -0.182968
N6    N     N_1   0.910541 0.874547 0.412520 -0.195944
N7    N     N_1   0.837596 0.634118 0.266190 -0.174275
O1    O     O_R   0.385310 0.683220 0.500000 -0.636879
O2    O     O_R   0.251312 0.646503 0.980225 -0.771456
O3    O     O_2   0.948925 0.557309 0.930057 -0.581928
O4    O     O_R   0.739955 0.588354 0.881641 -0.833952
O5    O     O_2   0.188600 0.346107 0.867801 -0.578951
O6    O     O_R   0.974492 0.277981 0.900142 -0.771844
O7    O     O_2   0.281293 0.257420 0.691755 -0.583255
O8    O     O_R   0.139305 0.192979 0.581352 -0.769318
O9    O     O_2   0.729878 0.312862 0.023985 -0.563501
O10   O     O_R   0.617512 0.286705 0.888230 -0.762486
O11   O     O_2   0.292396 0.281372 0.274785 -0.537461
O12   O     O_R   0.614640 0.683250 0.500010 -0.625062
O13   O     O_R   0.506983 0.211038 0.268854 -0.797579
O14   O     O_2   0.834831 0.086402 0.568870 -0.607985
O15   O     O_R   0.686594 0.209531 0.660818 -0.752120
O16   O     O_R   0.368830 0.499960 0.640340 -0.616363
O17   O     O_R   0.598160 0.499980 0.640350 -0.609420
O18   O     O_R   0.385360 0.316750 0.499990 -0.606067
O19   O     O_R   0.614690 0.316780 0.500000 -0.594149
O20   O     O_R   0.401840 0.500020 0.359650 -0.585361
O21   O     O_R   0.631170 0.500040 0.359660 -0.619640
O22   O     O_2   0.264814 0.518589 0.111462 -0.575307
Zn1   Zn    Zn3+2 0.346870 0.499980 0.499990 1.013424
Zn2   Zn    Zn3+2 0.653130 0.500020 0.500010 1.002183

loop_
_geom_bond_atom_site_label_1
_geom_bond_atom_site_label_2
_ccdc_geom_bond_type
O12   Zn2   S    
C15   O19   A    
C24   N3    T    
C18   C21   S    
C8    C26   S    
O1    Zn1   S    
C36   H2    S    
C19   C20   S    
O20   Zn1   S    
H8    O13   S    
C7    C8    A    
C30   N5    T    
C36   C37   A    
C26   O5    D    
C13   C35   S    
O16   Zn1   S    
C38   C39   A    
C3    C33   S    
C2    H1    S    
H5    O6    S    
C1    O12   A    
C18   C19   D    
C1    C40   S    
C8    C9    A    
C25   O4    S    
C4    C12   S    
O19   Zn2   S    
H7    O10   S    
H3    O2    S    
C13   C14   A    
C10   N2    A    
C23   C30   S    
C19   C22   S    
C22   O22   D    
C27   O8    S    
C39   C40   A    
C16   C17   S    
C17   C21   T    
C29   O10   S    
H6    O8    S    
C37   C38   A    
C1    O1    A    
C14   N2    A    
C23   C34   A    
C6    C24   S    
C12   C20   T    
C31   C34   S    
C18   C29   S    
C32   C37   S    
C4    O17   A    
C32   O13   S    
C27   O7    D    
C33   O14   D    
C32   O11   D    
C29   O9    D    
O18   Zn1   S    
C6    C11   A    
C4    O16   A    
C9    C27   S    
C9    C10   A    
O21   Zn2   S    
C35   N7    T    
C16   O20   A    
C3    C5    A    
N1    Zn2   S    
C22   O2    S    
C28   N4    T    
C6    C7    A    
C7    C25   S    
C14   C28   S    
C2    C3    A    
C26   O6    S    
C11   N1    A    
H4    O4    S    
C23   C39   A    
O17   Zn2   S    
C34   C36   A    
N2    Zn1   S    
C5    C15   S    
C10   C11   A    
C33   O15   S    
C13   N1    A    
C2    C40   A    
C15   O18   A    
H9    O15   S    
C16   O21   A    
C25   O3    D    
C31   N6    T    
C5    C38   A    
