data_mof_unit_26952.cif
_audit_creation_date              2012-12-11T14:29:59-0500
_audit_creation_method            fapswitch 2.2
_symmetry_space_group_name_H-M    P1
_symmetry_Int_Tables_number       1
_space_group_crystal_system       triclinic
_cell_length_a                    12.711117
_cell_length_b                    12.64373
_cell_length_c                    26.950544
_cell_angle_alpha                 89.855173
_cell_angle_beta                  89.864951
_cell_angle_gamma                 120.004323
_cell_volume                      3750.87846665

loop_
_atom_site_label
_atom_site_type_symbol
_atom_type_description
_atom_site_fract_x
_atom_site_fract_y
_atom_site_fract_z
_atom_type_partial_charge
C1    C     C_R   0.558405 0.456280 0.822239 0.534855
C2    C     C_R   0.899156 0.441580 0.677644 0.535414
C3    C     C_R   0.542595 0.098924 0.821279 0.537212
C4    C     C_R   0.559252 0.458008 0.677613 0.533340
C5    C     C_R   0.900413 0.443269 0.821740 0.533491
C6    C     C_R   0.543071 0.102610 0.677239 0.530399
C7    C     C_R   0.456055 0.556762 0.321907 0.534345
C8    C     C_R   0.439187 0.895739 0.176737 0.531907
C9    C     C_R   0.100232 0.542958 0.321854 0.535573
C10   C     C_R   0.458227 0.558404 0.177940 0.533075
C11   C     C_R   0.443250 0.900209 0.321587 0.535949
C12   C     C_R   0.100369 0.542049 0.177780 0.532881
C13   C     C_R   0.012323 0.511005 0.971974 0.051264
C14   C     C_R   0.515199 0.027505 0.522369 0.052239
C15   C     C_R   0.500029 0.498403 0.973223 0.051919
C16   C     C_R   0.983392 0.491581 0.524010 0.052574
C17   C     C_R   0.488976 0.969918 0.968434 0.054643
C18   C     C_R   0.508172 0.489789 0.523847 0.052731
C19   C     C_R   0.514607 0.019344 0.470134 0.053535
C20   C     C_R   0.019460 0.511101 0.024202 0.051772
C21   C     C_R   0.499990 0.489667 0.471675 0.053969
C22   C     C_R   0.480199 0.959880 0.020557 0.053424
C23   C     C_R   0.989991 0.497663 0.471747 0.054036
C24   C     C_R   0.498995 0.504984 0.025424 0.054826
C25   C     C_R   0.948165 0.662571 0.977012 -0.130409
C26   C     C_R   0.684111 0.988934 0.526096 -0.127502
C27   C     C_R   0.336680 0.286919 0.977765 -0.134031
C28   C     C_R   0.016808 0.698318 0.526785 -0.131127
C29   C     C_R   0.697886 0.014077 0.972938 -0.130972
C30   C     C_R   0.298918 0.324077 0.528807 -0.131288
C31   C     C_R   0.675623 0.968872 0.474851 -0.129464
C32   C     C_R   0.966711 0.670886 0.028354 -0.132281
C33   C     C_R   0.287185 0.332000 0.477513 -0.130205
C34   C     C_R   0.683812 0.989518 0.023696 -0.134247
C35   C     C_R   0.035358 0.708719 0.475429 -0.130464
C36   C     C_R   0.327713 0.297797 0.029015 -0.137061
C37   C     C_R   0.944260 0.567237 0.898044 -0.157821
C38   C     C_R   0.610365 0.037687 0.601553 -0.157746
C39   C     C_R   0.435909 0.376218 0.898910 -0.158866
C40   C     C_R   0.968329 0.576400 0.602562 -0.158860
C41   C     C_R   0.617147 0.042216 0.895747 -0.163195
C42   C     C_R   0.423500 0.395453 0.603504 -0.159215
C43   C     C_R   0.573936 0.953666 0.396374 -0.159845
C44   C     C_R   0.023279 0.602871 0.103575 -0.158163
C45   C     C_R   0.375188 0.429988 0.398152 -0.161018
C46   C     C_R   0.565560 0.950768 0.099832 -0.158522
C47   C     C_R   0.048753 0.620473 0.397111 -0.160452
C48   C     C_R   0.397244 0.421958 0.103942 -0.161196
C49   C     C_R   0.042504 0.515496 0.127864 -0.011487
C50   C     C_R   0.488747 0.968746 0.368448 -0.001013
C51   C     C_R   0.486313 0.525828 0.128658 -0.002331
C52   C     C_R   0.034754 0.519818 0.369585 -0.009028
C53   C     C_R   0.464512 0.942381 0.124757 -0.001886
C54   C     C_R   0.476534 0.512477 0.369656 -0.005364
C55   C     C_R   0.519768 0.050168 0.626337 -0.002793
C56   C     C_R   0.964486 0.485349 0.869870 -0.014288
C57   C     C_R   0.529082 0.483994 0.627452 -0.001854
C58   C     C_R   0.518169 0.028380 0.867641 -0.002561
C59   C     C_R   0.956731 0.473612 0.627677 -0.003663
C60   C     C_R   0.518979 0.478060 0.870707 0.001002
C61   C     C_R   0.970453 0.582593 0.948660 0.007337
C62   C     C_R   0.602957 0.016481 0.550292 0.014189
C63   C     C_R   0.421805 0.387225 0.949640 0.000490
C64   C     C_R   0.991411 0.590238 0.551418 0.013884
C65   C     C_R   0.601288 0.006182 0.945282 0.010961
C66   C     C_R   0.408821 0.403595 0.552364 0.013391
C67   C     C_R   0.590857 0.983557 0.446707 0.009201
C68   C     C_R   0.000832 0.594200 0.052373 0.014185
C69   C     C_R   0.387383 0.414490 0.448749 0.008518
C70   C     C_R   0.577672 0.968043 0.048337 0.013120
C71   C     C_R   0.021759 0.608720 0.447725 0.009577
C72   C     C_R   0.408533 0.406692 0.053138 0.011651
C73   C     C_R   0.030316 0.432585 0.891182 -0.001363
C74   C     C_R   0.416125 0.033703 0.598794 0.006116
C75   C     C_R   0.578504 0.596094 0.892528 -0.004964
C76   C     C_R   0.979036 0.388689 0.601017 0.005853
C77   C     C_R   0.398969 0.960789 0.887532 -0.003081
C78   C     C_R   0.617124 0.587496 0.599513 0.005654
C79   C     C_R   0.434587 0.033086 0.389294 -0.003215
C80   C     C_R   0.030075 0.413189 0.100135 0.001985
C81   C     C_R   0.594343 0.565499 0.390445 -0.002603
C82   C     C_R   0.375728 0.956150 0.096842 0.005807
C83   C     C_R   0.974321 0.401326 0.391311 -0.003768
C84   C     C_R   0.594074 0.610540 0.102084 0.005477
C85   C     C_R   0.045518 0.438184 0.943427 0.030506
C86   C     C_R   0.426007 0.043604 0.546572 0.021354
C87   C     C_R   0.581005 0.602237 0.944891 0.021088
C88   C     C_R   0.971101 0.387791 0.548765 0.022034
C89   C     C_R   0.386944 0.947353 0.939684 0.020688
C90   C     C_R   0.615117 0.577649 0.547366 0.021194
C91   C     C_R   0.435352 0.043429 0.441606 0.021796
C92   C     C_R   0.043802 0.426837 0.048214 0.031383
C93   C     C_R   0.603719 0.566716 0.442663 0.023294
C94   C     C_R   0.375288 0.944793 0.044630 0.020994
C95   C     C_R   0.967723 0.393758 0.443757 0.023693
C96   C     C_R   0.589151 0.609424 0.049770 0.023622
C97   C     C_R   0.085526 0.362318 0.019908 -0.137712
C98   C     C_R   0.354292 0.070263 0.466505 -0.133396
C99   C     C_R   0.670477 0.710908 0.021078 -0.130801
C100  C     C_R   0.946670 0.287753 0.469237 -0.132850
C101  C     C_R   0.272770 0.918037 0.015662 -0.132823
C102  C     C_R   0.712313 0.647339 0.466873 -0.133472
C103  C     C_R   0.349720 0.070176 0.517869 -0.131950
C104  C     C_R   0.088927 0.369691 0.968439 -0.138770
C105  C     C_R   0.717862 0.652302 0.518089 -0.132504
C106  C     C_R   0.278159 0.918487 0.964203 -0.135384
C107  C     C_R   0.948890 0.285106 0.520632 -0.131967
C108  C     C_R   0.666754 0.707404 0.969893 -0.133045
Cr1   Cr    Cr6+3 0.487630 0.241180 0.750000 0.981554
Cr2   Cr    Cr6+3 0.753550 0.512370 0.750000 0.983283
Cr3   Cr    Cr6+3 0.758820 0.246450 0.750000 0.982465
Cr4   Cr    Cr6+3 0.241180 0.487630 0.250000 0.983358
Cr5   Cr    Cr6+3 0.512370 0.753550 0.250000 0.984348
Cr6   Cr    Cr6+3 0.246450 0.758820 0.250000 0.983654
H1    H     H_    0.028900 0.678788 0.124084 0.112696
H2    H     H_    0.621935 0.911785 0.379780 0.126788
H3    H     H_    0.317413 0.355230 0.123772 0.114070
H4    H     H_    0.087160 0.709795 0.379818 0.128748
H5    H     H_    0.634440 0.943486 0.120572 0.121282
H6    H     H_    0.285530 0.382847 0.381669 0.129313
H7    H     H_    0.687531 0.046596 0.621921 0.116504
H8    H     H_    0.900674 0.613511 0.881340 0.130445
H9    H     H_    0.354160 0.319052 0.624378 0.114572
H10   H     H_    0.707735 0.085999 0.879787 0.129445
H11   H     H_    0.956091 0.643712 0.622433 0.113711
H12   H     H_    0.385458 0.287045 0.881807 0.133558
H13   H     H_    0.951989 0.735322 0.049360 0.094155
H14   H     H_    0.735296 0.941931 0.457233 0.097360
H15   H     H_    0.258878 0.220634 0.049864 0.096557
H16   H     H_    0.059747 0.794679 0.457349 0.097269
H17   H     H_    0.757392 0.990642 0.043587 0.099049
H18   H     H_    0.200068 0.273266 0.460312 0.099142
H19   H     H_    0.751480 0.979130 0.547002 0.092142
H20   H     H_    0.917078 0.719134 0.959430 0.100415
H21   H     H_    0.221413 0.257774 0.550175 0.091216
H22   H     H_    0.783820 0.038356 0.955303 0.096082
H23   H     H_    0.025085 0.775617 0.547379 0.091285
H24   H     H_    0.276016 0.200729 0.960036 0.101852
H25   H     H_    0.118076 0.307399 0.037517 0.114990
H26   H     H_    0.287672 0.084017 0.447225 0.095818
H27   H     H_    0.735731 0.796750 0.037225 0.092191
H28   H     H_    0.935685 0.207686 0.450321 0.093288
H29   H     H_    0.185925 0.893294 0.032078 0.103605
H30   H     H_    0.792805 0.713200 0.447136 0.095170
H31   H     H_    0.287430 0.094532 0.534479 0.100931
H32   H     H_    0.120944 0.316490 0.949137 0.111321
H33   H     H_    0.805346 0.713359 0.534045 0.099883
H34   H     H_    0.198184 0.904023 0.944435 0.097577
H35   H     H_    0.928776 0.199639 0.537732 0.095333
H36   H     H_    0.737019 0.786643 0.950825 0.090372
O1    O     O_R   0.460870 0.120930 0.805240 -0.521789
O2    O     O_R   0.660060 0.539130 0.694760 -0.526037
O3    O     O_R   0.879070 0.339940 0.805240 -0.530955
O4    O     O_R   0.460870 0.120930 0.694760 -0.525014
O5    O     O_R   0.660060 0.539130 0.805240 -0.524607
O6    O     O_R   0.879070 0.339940 0.694760 -0.522799
O7    O     O_R   0.120930 0.460870 0.305240 -0.520929
O8    O     O_R   0.539130 0.660060 0.194760 -0.525163
O9    O     O_R   0.339940 0.879070 0.305240 -0.521356
O10   O     O_R   0.120930 0.460870 0.194760 -0.534458
O11   O     O_R   0.539130 0.660060 0.305240 -0.520944
O12   O     O_R   0.339940 0.879070 0.194760 -0.526030
O13   O     O_R   0.498910 0.350470 0.801870 -0.504892
O14   O     O_R   0.851560 0.501090 0.698130 -0.502808
O15   O     O_R   0.649530 0.148440 0.801870 -0.504337
O16   O     O_R   0.498910 0.350470 0.698130 -0.501860
O17   O     O_R   0.851560 0.501090 0.801870 -0.501472
O18   O     O_R   0.649530 0.148440 0.698130 -0.503304
O19   O     O_R   0.350470 0.498910 0.301870 -0.506204
O20   O     O_R   0.501090 0.851560 0.198130 -0.501043
O21   O     O_R   0.148440 0.649530 0.301870 -0.503397
O22   O     O_R   0.350470 0.498910 0.198130 -0.500777
O23   O     O_R   0.501090 0.851560 0.301870 -0.505791
O24   O     O_R   0.148440 0.649530 0.198130 -0.500486
O25   O     O_3   0.666667 0.333333 0.750000 -0.213433
O26   O     O_3   0.333333 0.666667 0.250000 -0.213862
C109  C     C_3   0.009457 0.295447 0.125740 -0.236139
C110  C     C_3   0.912858 0.175024 0.102749 -0.325290
C111  C     C_3   0.896773 0.067298 0.134673 -0.475096
H37   H     H_    0.985590 0.072729 0.140924 0.144329
H38   H     H_    0.855575 0.067071 0.171104 0.146583
H39   H     H_    0.837224 0.979580 0.115959 0.120800
H40   H     H_    0.825078 0.174083 0.100606 0.174285
H41   H     H_    0.938760 0.162487 0.065007 0.159810
H42   H     H_    0.097379 0.296783 0.128267 0.150708
H43   H     H_    0.971958 0.289619 0.163474 0.179495
C112  C     C_3   0.379461 0.091755 0.356451 -0.242552
C113  C     C_3   0.462437 0.164023 0.312617 -0.294653
C114  C     C_3   0.418132 0.242585 0.287529 -0.460592
H44   H     H_    0.321675 0.185196 0.276619 0.150819
H45   H     H_    0.425350 0.313729 0.313327 0.155102
H46   H     H_    0.474550 0.287847 0.254185 0.133127
H47   H     H_    0.556075 0.223578 0.326196 0.149796
H48   H     H_    0.465346 0.102436 0.284188 0.178135
H49   H     H_    0.288351 0.021777 0.343127 0.157760
H50   H     H_    0.366881 0.159343 0.377840 0.136633
C115  C     C_3   0.713809 0.699910 0.127785 -0.229179
C116  C     C_3   0.760467 0.636920 0.162773 -0.285755
C117  C     C_3   0.882100 0.731486 0.185178 -0.462698
H51   H     H_    0.867231 0.786040 0.213673 0.146743
H52   H     H_    0.927341 0.684853 0.202231 0.144878
H53   H     H_    0.944547 0.794947 0.156355 0.130173
H54   H     H_    0.694654 0.587604 0.193136 0.175438
H55   H     H_    0.773758 0.569309 0.141416 0.158844
H56   H     H_    0.788678 0.746357 0.100746 0.113783
H57   H     H_    0.707768 0.774723 0.146398 0.172229
C118  C     C_3   0.916612 0.285685 0.359289 -0.242062
C119  C     C_3   0.835424 0.290207 0.318046 -0.292759
C120  C     C_3   0.775662 0.172491 0.287896 -0.451788
H58   H     H_    0.846008 0.159887 0.268671 0.143932
H59   H     H_    0.720827 0.092656 0.312316 0.156927
H60   H     H_    0.714841 0.177351 0.259587 0.133500
H61   H     H_    0.763861 0.304161 0.335176 0.153890
H62   H     H_    0.888275 0.366555 0.291896 0.172496
H63   H     H_    0.987503 0.268529 0.343666 0.161857
H64   H     H_    0.855429 0.204069 0.381671 0.132385
C121  C     C_3   0.287086 0.990181 0.120929 -0.227465
C122  C     C_3   0.352177 0.108012 0.151472 -0.284064
C123  C     C_3   0.259865 0.137868 0.174083 -0.465163
H65   H     H_    0.200619 0.141802 0.144826 0.129291
H66   H     H_    0.202374 0.067206 0.201863 0.147270
H67   H     H_    0.307881 0.228261 0.192379 0.142909
H68   H     H_    0.406937 0.100309 0.181748 0.175978
H69   H     H_    0.414774 0.184697 0.126826 0.161444
H70   H     H_    0.236578 0.010659 0.092796 0.113631
H71   H     H_    0.215670 0.912895 0.142680 0.171538
C124  C     C_3   0.707543 0.614928 0.357561 -0.244668
C125  C     C_3   0.693741 0.524752 0.316562 -0.298266
C126  C     C_3   0.815727 0.561427 0.292641 -0.463099
H72   H     H_    0.864047 0.660033 0.283340 0.152605
H73   H     H_    0.872188 0.544818 0.318962 0.153386
H74   H     H_    0.802412 0.506457 0.258735 0.135709
H75   H     H_    0.656739 0.432219 0.332816 0.159123
H76   H     H_    0.631235 0.521364 0.287199 0.172352
H77   H     H_    0.730769 0.704982 0.341525 0.158437
H78   H     H_    0.787212 0.629106 0.379409 0.138444
C127  C     C_3   0.293697 0.998777 0.623331 -0.227985
C128  C     C_3   0.244442 0.882888 0.655339 -0.284136
C129  C     C_3   0.123150 0.852584 0.679061 -0.461856
H79   H     H_    0.137825 0.920167 0.708377 0.147689
H80   H     H_    0.059926 0.853606 0.650926 0.129637
H81   H     H_    0.079845 0.759899 0.695730 0.143447
H82   H     H_    0.230444 0.805244 0.631494 0.159580
H83   H     H_    0.309119 0.893391 0.685083 0.172526
H84   H     H_    0.297906 0.076409 0.644091 0.170950
H85   H     H_    0.221857 0.975224 0.595361 0.113471
C130  C     C_3   0.087437 0.375247 0.858847 -0.255148
C131  C     C_3   0.224654 0.459481 0.853607 -0.315436
C132  C     C_3   0.270402 0.424867 0.807387 -0.456271
H86   H     H_    0.227307 0.437385 0.773845 0.142625
H87   H     H_    0.368549 0.484961 0.802863 0.139866
H88   H     H_    0.250008 0.328711 0.809867 0.155128
H89   H     H_    0.246272 0.555756 0.849480 0.163167
H90   H     H_    0.271414 0.453155 0.887154 0.179644
H91   H     H_    0.064753 0.283496 0.872654 0.117477
H92   H     H_    0.053925 0.358309 0.820763 0.188672
C133  C     C_3   0.709204 0.709241 0.623477 -0.228097
C134  C     C_3   0.648989 0.763045 0.656354 -0.286090
C135  C     C_3   0.744709 0.887779 0.676100 -0.465073
H93   H     H_    0.806272 0.877059 0.702191 0.144459
H94   H     H_    0.800079 0.949044 0.645287 0.128930
H95   H     H_    0.699795 0.931858 0.695527 0.145100
H96   H     H_    0.581919 0.774613 0.634020 0.159202
H97   H     H_    0.600224 0.701963 0.688161 0.175778
H98   H     H_    0.781590 0.701878 0.643347 0.169526
H99   H     H_    0.757999 0.780937 0.595144 0.115054
C136  C     C_3   0.287888 0.898475 0.853765 -0.245189
C137  C     C_3   0.306851 0.829730 0.810697 -0.297993
C138  C     C_3   0.186584 0.736263 0.787697 -0.455639
H100  H     H_    0.137294 0.658577 0.813507 0.155366
H101  H     H_    0.129468 0.777985 0.780136 0.151608
H102  H     H_    0.203509 0.701114 0.752638 0.134384
H103  H     H_    0.363968 0.894411 0.781166 0.174563
H104  H     H_    0.353317 0.781063 0.824432 0.154863
H105  H     H_    0.208046 0.828947 0.874877 0.139257
H106  H     H_    0.263756 0.965850 0.839308 0.155284
C139  C     C_3   0.015476 0.303204 0.626698 -0.227810
C140  C     C_3   0.125656 0.371502 0.660952 -0.286566
C141  C     C_3   0.153897 0.281658 0.687563 -0.463814
H107  H     H_    0.084311 0.230890 0.716623 0.147505
H108  H     H_    0.155020 0.215061 0.661073 0.131999
H109  H     H_    0.244658 0.331948 0.705164 0.143748
H110  H     H_    0.205876 0.435537 0.638288 0.158488
H111  H     H_    0.109944 0.425896 0.689183 0.168422
H112  H     H_    0.937069 0.227057 0.646144 0.170069
H113  H     H_    0.045401 0.258361 0.599393 0.112328
C142  C     C_3   0.639799 0.713760 0.861209 -0.239172
C143  C     C_3   0.560233 0.714734 0.818594 -0.299015
C144  C     C_3   0.615720 0.840070 0.794220 -0.459679
H114  H     H_    0.621846 0.908409 0.821108 0.158874
H115  H     H_    0.708491 0.868437 0.780566 0.148197
H116  H     H_    0.557750 0.836967 0.762864 0.134497
H117  H     H_    0.550373 0.649771 0.789124 0.176887
H118  H     H_    0.469180 0.689541 0.833364 0.152764
H119  H     H_    0.657441 0.793598 0.884047 0.136126
H120  H     H_    0.729282 0.731302 0.847131 0.157939

loop_
_geom_bond_atom_site_label_1
_geom_bond_atom_site_label_2
_ccdc_geom_bond_type
C44   C49   A    
C103  H31   S    
C119  H61   S    
C82   C94   A    
C112  H50   S    
C52   C83   A    
C18   C21   A    
C22   C94   A    
C138  H102  S    
C5    C56   S    
C115  H56   S    
C134  H96   S    
C6    C55   S    
C135  H95   S    
C50   C79   A    
C144  H116  S    
C127  C128  S    
C12   C49   S    
C41   H10   S    
C11   O9    A    
C122  H68   S    
C130  H91   S    
Cr2   O25   S    
C78   C90   A    
C31   C67   A    
C99   C108  A    
C20   C92   A    
C136  H105  S    
C132  H86   S    
C79   C112  S    
C76   C139  S    
Cr3   O25   S    
C32   H13   S    
Cr5   O23   S    
Cr1   O1    S    
C129  H79   S    
C41   C58   A    
C126  H74   S    
Cr2   O2    S    
C24   C96   A    
C44   C68   A    
C131  H90   S    
Cr6   O12   S    
C86   C103  A    
C10   O22   A    
C98   C103  A    
C14   C62   A    
C96   C99   A    
C128  H83   S    
C120  H60   S    
C109  H42   S    
C142  H120  S    
C102  C105  A    
C114  H45   S    
C133  C134  S    
C84   C96   A    
C141  H109  S    
C1    O5    A    
C83   C118  S    
Cr2   O5    S    
C58   C77   A    
C144  H115  S    
C128  C129  S    
C55   C74   A    
C78   C133  S    
C48   C51   A    
C38   C55   A    
C124  C125  S    
C94   C101  A    
C4    O16   A    
C119  C120  S    
C132  H88   S    
C89   C106  A    
C42   H9    S    
C117  H53   S    
C119  H62   S    
C141  H107  S    
C42   C66   A    
C3    O15   A    
C19   C67   A    
C116  C117  S    
Cr3   O15   S    
C143  H118  S    
Cr5   O8    S    
C131  H89   S    
C81   C124  S    
Cr3   O6    S    
C34   C70   A    
C125  H76   S    
C110  H40   S    
C13   C20   A    
C33   C69   A    
C121  H71   S    
C32   C68   A    
C111  H39   S    
C130  H92   S    
C25   C32   A    
Cr6   O26   S    
C35   C71   A    
C26   C31   A    
C40   C59   A    
C140  H111  S    
C139  C140  S    
C37   C56   A    
C115  H57   S    
C114  H44   S    
C9    C52   S    
C102  H30   S    
C31   H14   S    
C48   C72   A    
C10   C51   S    
C57   C78   A    
C42   C57   A    
C125  C126  S    
C8    O20   A    
C92   C97   A    
C120  H58   S    
C47   H4    S    
Cr6   O21   S    
C4    O2    A    
C6    O18   A    
C136  H106  S    
C11   O23   A    
C27   H24   S    
C132  H87   S    
Cr4   O7    S    
C87   C108  A    
C59   C76   A    
C45   C69   A    
C118  C119  S    
C18   C90   A    
C23   C71   A    
C17   C89   A    
C28   C35   A    
Cr1   O13   S    
C1    C60   S    
C2    O14   A    
C123  H65   S    
C88   C107  A    
Cr2   O14   S    
C95   C100  A    
C41   C65   A    
C137  H104  S    
C121  C122  S    
C143  H117  S    
C139  H112  S    
C128  H82   S    
C44   H1    S    
C74   C86   A    
C109  H43   S    
C77   C136  S    
C21   C69   A    
C53   C82   A    
C107  H35   S    
C80   C92   A    
C114  H46   S    
C43   C67   A    
C126  H72   S    
C124  H78   S    
C104  H32   S    
C43   H2    S    
C123  H66   S    
C81   C93   A    
Cr2   O17   S    
Cr4   O19   S    
C9    O7    A    
C130  C131  S    
C77   C89   A    
C22   C70   A    
C118  H63   S    
C144  H114  S    
C106  H34   S    
C127  H84   S    
C129  H80   S    
C25   C61   A    
C83   C95   A    
C12   O10   A    
C7    O11   A    
C122  H69   S    
Cr1   O4    S    
Cr3   O3    S    
C35   H16   S    
C14   C86   A    
C125  H75   S    
C30   C66   A    
C85   C104  A    
C27   C63   A    
Cr5   O26   S    
C29   C65   A    
C39   C60   A    
C28   C64   A    
C45   H6    S    
C75   C87   A    
C15   C24   A    
Cr4   O26   S    
C38   H7    S    
C34   H17   S    
C109  C110  S    
C16   C23   A    
C11   C50   S    
C140  H110  S    
C7    O19   A    
C142  C143  S    
C116  H55   S    
C84   C115  S    
C108  H36   S    
C101  H29   S    
C9    O21   A    
Cr5   O11   S    
C47   C71   A    
C75   C142  S    
C135  H93   S    
C43   C50   A    
C25   H20   S    
C124  H77   S    
C131  C132  S    
C24   C72   A    
C12   O24   A    
C76   C88   A    
C73   C85   A    
C101  C106  A    
C10   O8    A    
C33   H18   S    
C100  C107  A    
C2    O6    A    
C56   C73   A    
Cr4   O10   S    
C30   C33   A    
C112  H49   S    
C2    C59   S    
C93   C102  A    
C79   C91   A    
C14   C19   A    
C20   C68   A    
C134  H97   S    
C133  H99   S    
C90   C105  A    
C3    O1    A    
C135  H94   S    
C8    C53   S    
C113  H47   S    
Cr5   O20   S    
C37   C61   A    
C136  C137  S    
C133  H98   S    
C137  H103  S    
C99   H27   S    
C48   H3    S    
C73   C130  S    
C27   C36   A    
C18   C66   A    
C39   C63   A    
C139  H113  S    
C60   C75   A    
C17   C65   A    
C17   C22   A    
C40   C64   A    
C49   C80   A    
C15   C63   A    
C143  C144  S    
C74   C127  S    
C138  H101  S    
C134  C135  S    
C26   C62   A    
C112  C113  S    
Cr1   O25   S    
C26   H19   S    
C100  H28   S    
C36   H15   S    
C80   C109  S    
C123  H67   S    
C6    O4    A    
C127  H85   S    
C122  C123  S    
Cr4   O22   S    
C82   C121  S    
C21   C93   A    
C142  H119  S    
C16   C88   A    
C40   H11   S    
C29   C34   A    
C46   C53   A    
C118  H64   S    
C120  H59   S    
C45   C54   A    
C23   C95   A    
C46   H5    S    
C129  H81   S    
C117  H51   S    
C5    O17   A    
C91   C98   A    
C115  C116  S    
C117  H52   S    
Cr6   O9    S    
C46   C70   A    
C97   C104  A    
C19   C91   A    
Cr1   O16   S    
C113  H48   S    
C37   H8    S    
C5    O3    A    
C3    C58   S    
C141  H108  S    
Cr6   O24   S    
C29   H22   S    
C13   C61   A    
C137  C138  S    
C1    O13   A    
C126  H73   S    
C30   H21   S    
C28   H23   S    
C15   C87   A    
C13   C85   A    
C116  H54   S    
C39   H12   S    
C111  H37   S    
C98   H26   S    
C140  C141  S    
C113  C114  S    
C47   C52   A    
C8    O12   A    
Cr3   O18   S    
C16   C64   A    
C7    C54   S    
C38   C62   A    
C138  H100  S    
C51   C84   A    
C97   H25   S    
C54   C81   A    
C110  H41   S    
C36   C72   A    
C4    C57   S    
C121  H70   S    
C110  C111  S    
C111  H38   S    
C105  H33   S    
