data_mof_unit_11100.cif
_audit_creation_date              2012-12-10T16:47:55-0500
_audit_creation_method            fapswitch 2.2
_symmetry_space_group_name_H-M    P1
_symmetry_Int_Tables_number       1
_space_group_crystal_system       triclinic
_cell_length_a                    7.769723
_cell_length_b                    8.614663
_cell_length_c                    10.655429
_cell_angle_alpha                 90.665633
_cell_angle_beta                  86.377311
_cell_angle_gamma                 93.583637
_cell_volume                      710.367649905

loop_
_atom_site_label
_atom_site_type_symbol
_atom_type_description
_atom_site_fract_x
_atom_site_fract_y
_atom_site_fract_z
_atom_type_partial_charge
C1    C     C_R   0.545025 0.793700 0.486157 0.913725
C2    C     C_2   0.433115 0.044233 0.461838 0.171144
C3    C     C_R   0.501831 0.491369 0.737081 0.870786
C4    C     C_R   0.454787 0.206144 0.490262 0.884774
C5    C     C_R   0.499652 0.514202 0.263068 0.875592
C6    C     C_2   0.643277 0.539693 0.059520 -0.156164
C7    C     C_2   0.501114 0.558989 0.134039 0.241247
C8    C     C_2   0.634950 0.544443 0.925587 -0.162555
C9    C     C_2   0.509541 0.463045 0.867869 -0.145752
C10   C     C_2   0.571350 0.955012 0.460647 -0.357499
H1    H     H_    0.762510 0.503700 0.095030 0.199056
H2    H     H_    0.728198 0.623286 0.874110 0.187222
H3    H     H_    0.013517 0.383186 0.406400 0.209274
H4    H     H_    0.986726 0.617331 0.593352 0.222236
N1    N     N_2   0.950320 0.457950 0.466680 -0.143835
N2    N     N_2   0.049680 0.542050 0.533320 -0.131420
O1    O     O_R   0.389250 0.738570 0.508180 -0.546347
O2    O     O_R   0.678390 0.711630 0.486820 -0.616367
O3    O     O_R   0.355470 0.513470 0.691600 -0.566666
O4    O     O_R   0.644610 0.486520 0.670240 -0.629236
O5    O     O_R   0.321610 0.288370 0.513180 -0.577476
O6    O     O_R   0.610750 0.261430 0.491820 -0.629886
O7    O     O_R   0.355390 0.513480 0.329760 -0.586283
O8    O     O_R   0.644530 0.486530 0.308400 -0.631849
Zn1   Zn    Zn3+2 0.306940 0.517990 0.514260 1.082084
Zn2   Zn    Zn3+2 0.693060 0.482010 0.485740 1.024344
Cl1   Cl    Cl    0.316774 0.645643 0.082169 -0.543892
C11   C     C_2   0.394955 0.333768 0.925962 0.966222
O9    O     O_2   0.255140 0.298476 0.883373 -0.568771
O10   O     O_R   0.449602 0.248275 0.025334 -0.783304
H5    H     H_    0.360667 0.163558 0.055545 0.373115
C12   C     C_2   0.754594 0.013957 0.436916 1.005072
O11   O     O_2   0.857203 0.000874 0.517903 -0.548343
O12   O     O_R   0.806900 0.086004 0.322687 -0.752391
H6    H     H_    0.933694 0.122179 0.317211 0.364105
Cl2   Cl    Cl    0.223075 0.975356 0.423537 -0.511964

loop_
_geom_bond_atom_site_label_1
_geom_bond_atom_site_label_2
_ccdc_geom_bond_type
C2    C4    S    
C3    O3    A    
C6    C7    D    
C3    C9    S    
C4    O6    A    
C1    O1    A    
C5    O7    A    
C8    H2    S    
O1    Zn1   S    
C12   O11   D    
C11   O10   S    
C3    O4    A    
C4    O5    A    
C1    O2    A    
C5    O8    A    
O4    Zn2   S    
C11   O9    D    
O8    Zn2   S    
H3    N1    S    
O10   H5    S    
O3    Zn1   S    
H4    N2    S    
N1    N2    D    
C2    C10   D    
C10   C12   S    
N2    Zn1   S    
O7    Zn1   S    
C7    Cl1   S    
O12   H6    S    
O6    Zn2   S    
C2    Cl2   S    
C6    H1    S    
C5    C7    S    
O5    Zn1   S    
N1    Zn2   S    
C6    C8    S    
C1    C10   S    
C9    C11   S    
C12   O12   S    
C8    C9    D    
O2    Zn2   S    
