data_mof_unit_23021.cif
_audit_creation_date              2012-12-10T18:59:16-0500
_audit_creation_method            fapswitch 2.2
_symmetry_space_group_name_H-M    P1
_symmetry_Int_Tables_number       1
_space_group_crystal_system       triclinic
_cell_length_a                    10.837617
_cell_length_b                    10.849268
_cell_length_c                    9.523358
_cell_angle_alpha                 90.987263
_cell_angle_beta                  89.740176
_cell_angle_gamma                 90.605111
_cell_volume                      1119.51916968

loop_
_atom_site_label
_atom_site_type_symbol
_atom_type_description
_atom_site_fract_x
_atom_site_fract_y
_atom_site_fract_z
_atom_type_partial_charge
C1    C     C_R   0.495087 0.262217 0.498720 0.918859
C2    C     C_R   0.060047 0.521688 0.632095 -0.018124
C3    C     C_R   0.127618 0.520188 0.503905 -0.151223
C4    C     C_R   0.064989 0.505192 0.376481 -0.268935
C5    C     C_R   0.938377 0.489897 0.374812 0.585693
C6    C     C_R   0.872796 0.477064 0.501483 -0.175050
C7    C     C_R   0.470328 0.066502 0.622109 -0.120801
C8    C     C_R   0.475349 0.129486 0.496429 -0.263505
C9    C     C_R   0.449730 0.062745 0.371460 0.615428
C10   C     C_R   0.439698 0.933685 0.372955 0.325410
C11   C     C_R   0.464491 0.870200 0.499720 -0.309651
C12   C     C_R   0.262403 0.510562 0.501099 0.861593
C13   C     C_R   0.463931 0.939983 0.624501 -0.004624
C14   C     C_3   0.539887 0.936756 0.754639 0.388329
C15   C     C_3   0.549027 0.075956 0.749507 0.457566
C16   C     C_R   0.601939 0.538739 0.074251 0.197947
C17   C     C_R   0.406709 0.445880 0.074188 -0.116096
C18   C     C_R   0.407159 0.444730 0.925293 0.663158
C19   C     C_R   0.602371 0.537894 0.926563 0.088779
C20   C     C_3   0.661135 0.662164 0.924473 0.407718
C21   C     C_3   0.661614 0.662739 0.083515 -0.439921
C22   C     C_R   0.490172 0.737641 0.500504 0.835953
C23   C     C_R   0.737687 0.488704 0.499988 0.896270
C24   C     C_R   0.107996 0.566592 0.761969 0.510766
C25   C     C_R   0.052138 0.528928 0.887785 -0.163169
C26   C     C_R   0.949566 0.451004 0.884247 -0.172802
C27   C     C_R   0.890912 0.422980 0.756038 0.500836
C28   C     C_R   0.938966 0.473337 0.630132 -0.064588
Cu1   Cu    Cu3+1 0.499990 0.499980 0.640670 1.078931
Cu2   Cu    Cu3+1 0.500010 0.500020 0.359330 1.016725
H1    H     H_    0.113861 0.505651 0.276971 0.181906
H2    H     H_    0.629622 0.889505 0.740175 0.118092
H3    H     H_    0.504756 0.125830 0.839056 0.162684
H4    H     H_    0.330502 0.403539 0.129711 0.185255
H5    H     H_    0.600135 0.730145 0.878690 0.158430
H6    H     H_    0.755653 0.659519 0.129109 0.261094
H7    H     H_    0.600457 0.733940 0.130670 0.221188
H8    H     H_    0.089592 0.557778 0.988491 0.149651
H9    H     H_    0.913151 0.415863 0.981860 0.203018
N1    N     N_R   0.500790 0.500930 0.147930 -0.221336
N2    N     N_R   0.500790 0.500890 0.852020 -0.262894
O1    O     O_R   0.500000 0.319640 0.618810 -0.537003
O2    O     O_R   0.500010 0.319680 0.381230 -0.535786
O3    O     O_R   0.319640 0.499980 0.618820 -0.492321
O4    O     O_R   0.319650 0.500020 0.381230 -0.627495
O5    O     O_R   0.499990 0.680320 0.618770 -0.568307
O6    O     O_R   0.500000 0.680360 0.381190 -0.587924
O7    O     O_R   0.680350 0.499980 0.618770 -0.532707
O8    O     O_R   0.680360 0.500020 0.381180 -0.537078
F1    F     F_    0.667606 0.115571 0.718270 -0.641644
F2    F     F_    0.313965 0.386324 0.856249 -0.654113
F3    F     F_    0.778415 0.660533 0.867080 -0.648943
O9    O     O_3   0.201683 0.654078 0.763417 -0.687553
H10   H     H_    0.223097 0.675391 0.862103 0.336437
O10   O     O_3   0.794431 0.338946 0.750529 -0.647453
H11   H     H_    0.772399 0.314162 0.847331 0.347149
F4    F     F_    0.881275 0.484088 0.248347 -0.682540
F5    F     F_    0.435928 0.121156 0.247549 -0.600239
O11   O     O_3   0.409293 0.874071 0.248787 -0.634503
H12   H     H_    0.353303 0.804468 0.271948 0.333039
F6    F     F_    0.469315 0.899458 0.868169 -0.639577

loop_
_geom_bond_atom_site_label_1
_geom_bond_atom_site_label_2
_ccdc_geom_bond_type
C17   C18   A    
O10   H11   S    
Cu1   Cu2   S    
C23   O7    A    
C25   H8    S    
C1    C8    S    
C9    C10   A    
Cu2   O6    S    
C11   C22   S    
C19   C20   S    
C5    F4    S    
Cu1   O5    S    
C7    C15   S    
C22   O6    A    
C24   O9    S    
Cu2   N1    S    
O11   H12   S    
C12   O3    A    
C21   H6    S    
O9    H10   S    
C20   C21   S    
C4    C5    A    
C11   C13   A    
C26   C27   A    
C16   C21   S    
C26   H9    S    
C16   N1    A    
C16   C19   A    
C6    C23   S    
C22   O5    A    
Cu2   O8    S    
C14   F6    S    
C18   F2    S    
C2    C3    A    
Cu1   O3    S    
C2    C24   A    
C5    C6    A    
Cu1   O1    S    
C27   O10   S    
Cu2   O2    S    
C23   O8    A    
C4    H1    S    
C7    C8    A    
C10   C11   A    
Cu1   O7    S    
C3    C4    A    
C19   N2    A    
C1    O1    A    
C7    C13   A    
C21   H7    S    
C24   C25   A    
C20   F3    S    
C9    F5    S    
C17   H4    S    
C15   F1    S    
C14   H2    S    
C27   C28   A    
C14   C15   S    
C12   O4    A    
C2    C28   A    
C3    C12   S    
Cu2   O4    S    
Cu1   N2    S    
C25   C26   A    
C13   C14   S    
C20   H5    S    
C10   O11   S    
C1    O2    A    
C6    C28   A    
C18   N2    A    
C15   H3    S    
C8    C9    A    
C17   N1    A    
