data_mof_unit_38537.cif
_audit_creation_date              2012-12-10T18:10:53-0500
_audit_creation_method            fapswitch 2.2
_symmetry_space_group_name_H-M    P1
_symmetry_Int_Tables_number       1
_space_group_crystal_system       triclinic
_cell_length_a                    12.599413
_cell_length_b                    13.186602
_cell_length_c                    15.729577
_cell_angle_alpha                 90.712938
_cell_angle_beta                  102.681642
_cell_angle_gamma                 82.409868
_cell_volume                      2526.90361282

loop_
_atom_site_label
_atom_site_type_symbol
_atom_type_description
_atom_site_fract_x
_atom_site_fract_y
_atom_site_fract_z
_atom_type_partial_charge
C1    C     C_R   0.439103 0.690439 0.482150 0.891633
C2    C     C_R   0.596522 0.196650 0.509533 -0.115532
C3    C     C_R   0.291623 0.836983 0.459585 -0.200767
C4    C     C_R   0.500981 0.500294 0.661572 0.902168
C5    C     C_R   0.259114 0.941712 0.456498 -0.150845
C6    C     C_R   0.335966 0.008494 0.457438 -0.157417
C7    C     C_R   0.445958 0.970962 0.454179 0.032940
C8    C     C_R   0.473792 0.865177 0.443341 -0.056173
C9    C     C_R   0.531788 0.032927 0.468966 0.063714
C10   C     C_R   0.641708 0.987823 0.477995 0.036080
C11   C     C_R   0.663549 0.888138 0.450515 -0.324547
C12   C     C_3   0.382870 0.489367 0.026999 -0.395588
C13   C     C_R   0.577791 0.830478 0.424118 0.537702
C14   C     C_R   0.511854 0.137808 0.477766 -0.269699
C15   C     C_R   0.706354 0.146826 0.534433 0.168208
C16   C     C_R   0.561382 0.307886 0.510802 0.842875
C17   C     C_R   0.400223 0.798044 0.457744 -0.112802
C18   C     C_R   0.085113 0.354578 0.372884 -0.310290
C19   C     C_R   0.800103 0.628547 0.603436 0.035555
C20   C     C_R   0.904367 0.657994 0.624238 -0.268288
C21   C     C_R   0.985222 0.610846 0.583817 -0.198689
C22   C     C_R   0.961639 0.533734 0.521873 0.012065
C23   C     C_3   0.499167 0.497009 0.082541 0.372538
C24   C     C_R   0.853621 0.507355 0.502347 0.244385
C25   C     C_R   0.040541 0.481467 0.479099 -0.018927
C26   C     C_R   0.008596 0.407733 0.415127 0.198243
C27   C     C_R   0.901116 0.386181 0.395085 -0.309154
C28   C     C_R   0.499302 0.498824 0.338506 0.914942
C29   C     C_R   0.825877 0.432780 0.440267 -0.188129
C30   C     C_R   0.150827 0.498235 0.497621 -0.051385
C31   C     C_R   0.192824 0.374384 0.394567 0.004950
C32   C     C_3   0.384753 0.490557 0.929202 -0.395014
C33   C     C_3   0.539067 0.598852 0.960365 -0.392623
C34   C     C_3   0.579437 0.405255 0.062254 -0.395764
C35   C     C_3   0.537173 0.597665 0.058172 -0.406728
C36   C     C_1   0.497607 0.496769 0.249192 -0.194419
C37   C     C_3   0.502354 0.499021 0.917896 0.365822
C38   C     C_3   0.801497 0.195626 0.587497 -0.415490
C39   C     C_3   0.892399 0.198952 0.537782 -0.855899
C40   C     C_3   0.539494 0.754744 0.292552 -0.334005
C41   C     C_3   0.581326 0.406447 0.964434 -0.398376
C42   C     C_1   0.497650 0.496199 0.173787 -0.139357
C43   C     C_1   0.503654 0.500011 0.826554 -0.129059
C44   C     C_1   0.503247 0.500404 0.751045 -0.189068
C45   C     C_R   0.727700 0.043557 0.512861 -0.183783
H1    H     H_    0.323793 0.554610 0.040897 0.166361
H2    H     H_    0.175725 0.971322 0.459637 0.135430
H3    H     H_    0.326512 0.556343 0.895911 0.165921
H4    H     H_    0.253368 0.334448 0.362469 0.128481
H5    H     H_    0.876106 0.329647 0.346745 0.150352
H6    H     H_    0.061963 0.298051 0.324082 0.139888
H7    H     H_    0.182831 0.552595 0.544778 0.125916
H8    H     H_    0.736765 0.665009 0.634455 0.131626
H9    H     H_    0.064568 0.636819 0.601862 0.134288
H10   H     H_    0.922460 0.717237 0.671445 0.144951
H11   H     H_    0.747290 0.406769 0.426819 0.213109
H12   H     H_    0.356590 0.419329 0.898765 0.168301
H13   H     H_    0.623440 0.606543 0.952742 0.166524
H14   H     H_    0.483454 0.666462 0.927583 0.164382
H15   H     H_    0.480698 0.664741 0.072599 0.159713
H16   H     H_    0.620639 0.604835 0.097747 0.168229
H17   H     H_    0.556524 0.333790 0.934583 0.165822
H18   H     H_    0.666404 0.410937 0.956883 0.166566
H19   H     H_    0.553739 0.332030 0.079593 0.164339
H20   H     H_    0.943897 0.123314 0.541585 0.239958
H21   H     H_    0.856503 0.218430 0.468221 0.265717
H22   H     H_    0.945960 0.256699 0.566600 0.258538
H23   H     H_    0.353859 0.417564 0.043755 0.166369
H24   H     H_    0.776736 0.272904 0.610057 0.231184
H25   H     H_    0.836079 0.149297 0.648187 0.193383
H26   H     H_    0.551880 0.827519 0.263049 0.149067
H27   H     H_    0.450597 0.751364 0.287311 0.155217
H28   H     H_    0.570945 0.691641 0.253795 0.195968
H29   H     H_    0.663612 0.409179 0.101904 0.167918
H30   H     H_    0.746088 0.856271 0.446414 0.172353
H31   H     H_    0.811385 0.005278 0.526199 0.143299
H32   H     H_    0.429124 0.174995 0.457097 0.166696
H33   H     H_    0.232926 0.786761 0.467563 0.156436
H34   H     H_    0.307164 0.088177 0.464101 0.125337
N1    N     N_R   0.222200 0.444690 0.455710 -0.099993
N2    N     N_R   0.776960 0.554780 0.543830 -0.121207
O1    O     O_R   0.366740 0.627160 0.478850 -0.630719
O2    O     O_R   0.544830 0.662520 0.507140 -0.574100
O3    O     O_R   0.410920 0.482310 0.608710 -0.611210
O4    O     O_R   0.589010 0.517670 0.637000 -0.625843
O5    O     O_R   0.455170 0.337480 0.492860 -0.618060
O6    O     O_R   0.633260 0.372840 0.521150 -0.642898
O7    O     O_R   0.410990 0.482330 0.363000 -0.620038
O8    O     O_R   0.589080 0.517690 0.391290 -0.591078
O9    O     O_3   0.597944 0.741188 0.379918 -0.569913
Zn1   Zn    Zn3+2 0.381090 0.476390 0.481110 0.934663
Zn2   Zn    Zn3+2 0.618910 0.523610 0.518890 0.956753

loop_
_geom_bond_atom_site_label_1
_geom_bond_atom_site_label_2
_ccdc_geom_bond_type
C38   H25   S    
C33   H13   S    
C40   H26   S    
C13   O9    S    
C27   C29   A    
C32   H3    S    
C36   C42   T    
C19   C20   A    
C18   C26   A    
C9    C14   A    
C7    C8    A    
O2    Zn2   S    
C12   H23   S    
C12   C23   S    
C26   C27   A    
C8    C13   A    
C23   C42   S    
C45   H31   S    
C32   H12   S    
O5    Zn1   S    
C5    C6    A    
C40   H28   S    
C14   H32   S    
C24   C29   A    
N2    Zn2   S    
C22   C25   A    
C28   O7    A    
C16   O6    A    
C28   O8    A    
O3    Zn1   S    
C2    C16   S    
C9    C10   A    
C27   H5    S    
C30   N1    A    
C19   H8    S    
C38   H24   S    
C33   H14   S    
C21   C22   A    
C12   C32   S    
C16   O5    A    
C39   H20   S    
C34   C41   S    
C41   H17   S    
C31   H4    S    
C20   H10   S    
O4    Zn2   S    
C18   H6    S    
C31   N1    A    
C12   H1    S    
C19   N2    A    
C4    O4    A    
C4    C44   S    
C1    O1    A    
C33   C37   S    
O1    Zn1   S    
C35   H15   S    
C37   C43   S    
C24   N2    A    
C15   C38   S    
C5    H2    S    
C4    O3    A    
O7    Zn1   S    
C23   C34   S    
C10   C45   A    
C34   H19   S    
C35   H16   S    
C32   C37   S    
O8    Zn2   S    
C2    C15   A    
C34   H29   S    
C23   C35   S    
C43   C44   T    
C39   H21   S    
C22   C24   A    
C15   C45   A    
C25   C30   A    
C7    C9    A    
C30   H7    S    
C40   H27   S    
C39   H22   S    
C3    C5    A    
C6    C7    A    
C29   H11   S    
C1    O2    A    
C1    C17   S    
C8    C17   A    
C21   H9    S    
N1    Zn1   S    
C25   C26   A    
C11   H30   S    
C11   C13   A    
C6    H34   S    
C38   C39   S    
C33   C35   S    
C3    C17   A    
C37   C41   S    
C2    C14   A    
C10   C11   A    
C20   C21   A    
C28   C36   S    
C41   H18   S    
C18   C31   A    
C40   O9    S    
O6    Zn2   S    
C3    H33   S    
