data_mof_unit_34365.cif
_audit_creation_date              2012-12-11T16:54:48-0500
_audit_creation_method            fapswitch 2.2
_symmetry_space_group_name_H-M    P1
_symmetry_Int_Tables_number       1
_space_group_crystal_system       triclinic
_cell_length_a                    27.628362
_cell_length_b                    7.174117
_cell_length_c                    24.849718
_cell_angle_alpha                 89.997359
_cell_angle_beta                  95.357827
_cell_angle_gamma                 89.999988
_cell_volume                      4903.9208466

loop_
_atom_site_label
_atom_site_type_symbol
_atom_type_description
_atom_site_fract_x
_atom_site_fract_y
_atom_site_fract_z
_atom_type_partial_charge
O1    O     O_R   0.297580 0.601040 0.203260 -0.521911
O2    O     O_R   0.702420 0.398960 0.796740 -0.506474
O3    O     O_R   0.202420 0.101040 0.296740 -0.521913
O4    O     O_R   0.797580 0.898960 0.703260 -0.506326
O5    O     O_R   0.198250 0.269810 0.192660 -0.525554
O6    O     O_R   0.801750 0.730190 0.807340 -0.507003
O7    O     O_R   0.301750 0.769810 0.307340 -0.525559
O8    O     O_R   0.698250 0.230190 0.692660 -0.507157
C1    C     C_R   0.180697 0.439625 0.179421 0.709681
C2    C     C_R   0.817830 0.560515 0.822053 0.694623
C3    C     C_R   0.319302 0.939620 0.320580 0.709688
C4    C     C_R   0.682186 0.060516 0.677927 0.694024
O9    O     O_R   0.296940 0.271230 0.196830 -0.527617
O10   O     O_R   0.703060 0.728770 0.803170 -0.521412
O11   O     O_R   0.203060 0.771230 0.303170 -0.527617
O12   O     O_R   0.796940 0.228770 0.696830 -0.521595
O13   O     O_R   0.301830 0.102400 0.300940 -0.531911
O14   O     O_R   0.698170 0.897600 0.699060 -0.546711
O15   O     O_R   0.198170 0.602400 0.199060 -0.531911
O16   O     O_R   0.801830 0.397600 0.800940 -0.546839
C5    C     C_R   0.313204 0.439730 0.185203 0.775042
C6    C     C_R   0.687570 0.559331 0.816097 0.715537
C7    C     C_R   0.186798 0.939726 0.314799 0.775050
C8    C     C_R   0.812435 0.059335 0.683912 0.715886
O17   O     O_3   0.251490 0.435010 0.284150 -0.380067
O18   O     O_3   0.748510 0.564990 0.715850 -0.370181
O19   O     O_3   0.248510 0.935010 0.215850 -0.380064
O20   O     O_3   0.751490 0.064990 0.784150 -0.370123
V1    V     V_3+5 0.249720 0.159590 0.243660 1.475286
V2    V     V_3+5 0.750280 0.840410 0.756340 1.513748
V3    V     V_3+5 0.250280 0.659590 0.256340 1.475284
V4    V     V_3+5 0.749720 0.340410 0.743660 1.513225
C9    C     C_R   0.876087 0.877983 0.636786 0.356280
C10   C     C_R   0.143736 0.090130 0.389704 0.353648
C11   C     C_R   0.623968 0.377948 0.863308 0.355986
C12   C     C_R   0.356281 0.590185 0.110315 0.353651
C13   C     C_R   0.907595 0.866508 0.595126 -0.201692
C14   C     C_R   0.104571 0.090248 0.422754 -0.246129
C15   C     C_R   0.592483 0.366497 0.904986 -0.201640
C16   C     C_R   0.395459 0.590343 0.077282 -0.246035
H1    H     H_    0.925369 0.736963 0.586856 0.141253
H2    H     H_    0.102358 0.190322 0.454855 0.111741
H3    H     H_    0.574762 0.236891 0.913313 0.141383
H4    H     H_    0.397685 0.690462 0.045191 0.111731
C17   C     C_R   0.917519 0.020548 0.563766 0.027615
C18   C     C_R   0.067480 0.959062 0.416136 0.078299
C19   C     C_R   0.582512 0.520625 0.936281 0.027366
C20   C     C_R   0.432542 0.459125 0.083897 0.078285
C21   C     C_R   0.891997 0.186003 0.570333 -0.265098
C22   C     C_R   0.069230 0.820566 0.377029 -0.239222
C23   C     C_R   0.607990 0.686140 0.929651 -0.265036
C24   C     C_R   0.430776 0.320570 0.122987 -0.239408
H5    H     H_    0.899237 0.307255 0.546356 0.140979
H6    H     H_    0.041031 0.715631 0.373869 0.118418
H7    H     H_    0.600718 0.807458 0.953583 0.140977
H8    H     H_    0.458966 0.215602 0.126142 0.118408
C25   C     C_R   0.856971 0.198096 0.607868 0.342315
C26   C     C_R   0.107454 0.815238 0.342860 0.344413
C27   C     C_R   0.643019 0.698198 0.892117 0.342568
C28   C     C_R   0.392549 0.315238 0.157152 0.344469
C29   C     C_R   0.849118 0.045596 0.642693 -0.242878
C30   C     C_R   0.145832 0.947479 0.350276 -0.215210
C31   C     C_R   0.650901 0.545608 0.857335 -0.243230
C32   C     C_R   0.354175 0.447496 0.149734 -0.215205
C33   C     C_R   0.946795 0.065186 0.471590 -0.322210
C34   C     C_R   0.037274 0.909931 0.506118 -0.311386
C35   C     C_R   0.553214 0.565444 0.028435 -0.322057
C36   C     C_R   0.462772 0.409824 0.993937 -0.311175
H9    H     H_    0.912031 0.126970 0.457950 0.142779
H10   H     H_    0.072515 0.852464 0.520034 0.155578
H11   H     H_    0.587965 0.627340 0.042066 0.142845
H12   H     H_    0.427545 0.352220 0.980032 0.155622
C37   C     C_R   0.982207 0.043326 0.434681 0.431441
C38   C     C_R   0.002266 0.931686 0.542941 0.417787
C39   C     C_R   0.517803 0.543567 0.065344 0.431409
C40   C     C_R   0.497779 0.431586 0.957113 0.417823
C41   C     C_R   0.027799 0.966149 0.452255 -0.024426
C42   C     C_R   0.956017 0.006774 0.525621 -0.019859
C43   C     C_R   0.472229 0.466216 0.047785 -0.024595
C44   C     C_R   0.544009 0.506868 0.974419 -0.019960
C45   C     C_R   0.429023 0.810031 0.421129 -0.209923
C46   C     C_R   0.573838 0.193291 0.577074 -0.216860
C47   C     C_R   0.070973 0.310052 0.078877 -0.209919
C48   C     C_R   0.926256 0.693146 0.922807 -0.217302
H13   H     H_    0.445853 0.687065 0.440029 0.117883
H14   H     H_    0.550524 0.312089 0.567061 0.118221
H15   H     H_    0.054144 0.187087 0.059978 0.117892
H16   H     H_    0.949629 0.811810 0.932764 0.118173
C49   C     C_R   0.385278 0.791936 0.387562 0.414934
C50   C     C_R   0.610717 0.206675 0.620213 0.411004
C51   C     C_R   0.114720 0.291954 0.112443 0.414942
C52   C     C_R   0.889391 0.706495 0.879641 0.411109
C53   C     C_R   0.363773 0.950842 0.360557 -0.161483
C54   C     C_R   0.642042 0.052618 0.633023 -0.152714
C55   C     C_R   0.136224 0.450854 0.139446 -0.161487
C56   C     C_R   0.857980 0.552614 0.866948 -0.152356
C57   C     C_R   0.386983 0.124781 0.370403 -0.228900
C58   C     C_R   0.634425 0.887884 0.602480 -0.254525
C59   C     C_R   0.113013 0.624794 0.129598 -0.228905
C60   C     C_R   0.865506 0.388067 0.897598 -0.254653
H17   H     H_    0.372606 0.249582 0.350388 0.188176
H18   H     H_    0.657334 0.767183 0.611293 0.178194
H19   H     H_    0.127391 0.749592 0.149611 0.188178
H20   H     H_    0.842531 0.267502 0.888861 0.177883
C61   C     C_R   0.429601 0.141057 0.405442 -0.156208
C62   C     C_R   0.597055 0.875597 0.560395 -0.147708
C63   C     C_R   0.070394 0.641074 0.094560 -0.156212
C64   C     C_R   0.902863 0.375808 0.939699 -0.147799
H21   H     H_    0.446346 0.276657 0.412072 0.129054
H22   H     H_    0.591824 0.746243 0.538105 0.130452
H23   H     H_    0.053649 0.776676 0.087928 0.129055
H24   H     H_    0.908020 0.246601 0.962078 0.130341
C65   C     C_R   0.450426 0.984133 0.431626 0.066607
C66   C     C_R   0.566491 0.027957 0.547558 0.071990
C67   C     C_R   0.049568 0.484154 0.068379 0.066606
C68   C     C_R   0.933511 0.527995 0.952434 0.072209
C69   C     C_1   0.492425 0.001269 0.471085 -0.041933
C70   C     C_1   0.526585 0.013568 0.505346 -0.041556
C71   C     C_1   0.007569 0.501297 0.028919 -0.041935
C72   C     C_1   0.973411 0.513602 0.994655 -0.041547
O21   O     O_3   0.869194 0.725652 0.670325 -0.526596
C73   C     C_3   0.912744 0.624292 0.683623 0.149776
H25   H     H_    0.943984 0.719279 0.694742 0.097871
H26   H     H_    0.920821 0.532386 0.649632 0.143023
C74   C     C_3   0.907048 0.497230 0.731379 -0.710636
H27   H     H_    0.878466 0.391884 0.720865 0.246391
H28   H     H_    0.941912 0.424843 0.742840 0.168587
H29   H     H_    0.897265 0.579417 0.766211 0.194472
O22   O     O_3   0.182374 0.215869 0.397519 -0.551798
C75   C     C_3   0.167656 0.391685 0.416248 0.111995
H30   H     H_    0.160496 0.384334 0.459445 0.110612
H31   H     H_    0.135109 0.444663 0.391043 0.155896
C76   C     C_3   0.208501 0.530907 0.413986 -0.699850
H32   H     H_    0.195429 0.673373 0.422320 0.170072
H33   H     H_    0.238049 0.494611 0.445264 0.196040
H34   H     H_    0.222591 0.527448 0.373864 0.257134
O23   O     O_3   0.630865 0.225481 0.829833 -0.526497
C77   C     C_3   0.587233 0.124833 0.816340 0.150128
H35   H     H_    0.556141 0.220353 0.805042 0.097593
H36   H     H_    0.578893 0.033183 0.850286 0.142683
C78   C     C_3   0.592976 0.997470 0.768668 -0.710418
H37   H     H_    0.621265 0.891178 0.779410 0.246152
H38   H     H_    0.558001 0.926262 0.756910 0.168502
H39   H     H_    0.603190 0.079259 0.733957 0.194452
O24   O     O_3   0.317642 0.715921 0.102494 -0.551796
C79   C     C_3   0.332355 0.891733 0.083752 0.111994
H40   H     H_    0.339513 0.884365 0.040555 0.110620
H41   H     H_    0.364903 0.944727 0.108952 0.155891
C80   C     C_3   0.291509 0.030948 0.086011 -0.699842
H42   H     H_    0.304577 0.173417 0.077673 0.170070
H43   H     H_    0.261959 0.994645 0.054736 0.196039
H44   H     H_    0.277419 0.027485 0.126135 0.257136
O25   O     O_3   0.832784 0.365207 0.612285 -0.545607
C81   C     C_3   0.792398 0.370106 0.573061 0.123668
H45   H     H_    0.764609 0.266886 0.583491 0.100036
H46   H     H_    0.803211 0.339052 0.531842 0.093378
C82   C     C_3   0.770158 0.565315 0.572145 -0.247397
H47   H     H_    0.760852 0.603112 0.613244 0.225017
H48   H     H_    0.797195 0.667834 0.559779 0.186281
C83   C     C_3   0.724309 0.576296 0.532973 -0.889262
H49   H     H_    0.732537 0.537067 0.491558 0.233978
H50   H     H_    0.710100 0.721130 0.531915 0.234451
H51   H     H_    0.695886 0.481655 0.546255 0.245433
O26   O     O_3   0.110461 0.674809 0.304582 -0.555130
C84   C     C_3   0.065546 0.638993 0.273853 0.084583
H52   H     H_    0.071742 0.644954 0.230408 0.143689
H53   H     H_    0.036768 0.744897 0.278801 0.069512
C85   C     C_3   0.046963 0.443936 0.286608 -0.319729
H54   H     H_    0.045043 0.428292 0.330816 0.205184
H55   H     H_    0.009681 0.425701 0.266334 0.159721
C86   C     C_3   0.079590 0.291055 0.267183 -0.668941
H56   H     H_    0.079039 0.294815 0.222496 0.209510
H57   H     H_    0.066150 0.152755 0.279181 0.198704
H58   H     H_    0.117514 0.309070 0.285453 0.252799
O27   O     O_3   0.667181 0.865343 0.887655 -0.545379
C87   C     C_3   0.707504 0.870597 0.926959 0.123829
H59   H     H_    0.735340 0.767388 0.916650 0.099949
H60   H     H_    0.696624 0.839768 0.968164 0.093367
C88   C     C_3   0.729703 0.065871 0.927817 -0.247119
H61   H     H_    0.739119 0.103368 0.886737 0.224971
H62   H     H_    0.702602 0.168415 0.940017 0.186511
C89   C     C_3   0.775451 0.077277 0.967132 -0.889800
H63   H     H_    0.767108 0.038416 0.008536 0.234076
H64   H     H_    0.789638 0.222142 0.968124 0.234471
H65   H     H_    0.803936 0.982552 0.954033 0.245258
O28   O     O_3   0.389537 0.174794 0.195428 -0.555125
C90   C     C_3   0.434451 0.138946 0.226158 0.084556
H66   H     H_    0.428254 0.144904 0.269602 0.143698
H67   H     H_    0.463233 0.244833 0.221209 0.069550
C91   C     C_3   0.453024 0.943877 0.213405 -0.319775
H68   H     H_    0.454941 0.928235 0.169196 0.205238
H69   H     H_    0.490306 0.925615 0.233678 0.159740
C92   C     C_3   0.420391 0.791020 0.232835 -0.668989
H70   H     H_    0.420951 0.794760 0.277523 0.209521
H71   H     H_    0.433817 0.652712 0.220832 0.198658
H72   H     H_    0.382465 0.809083 0.214574 0.252840
O29   O     O_3   0.974194 0.112835 0.382732 -0.552481
C93   C     C_3   0.942411 0.991898 0.351736 0.099625
H73   H     H_    0.904926 0.002989 0.364391 0.116994
H74   H     H_    0.954832 0.844096 0.355455 0.107189
C94   C     C_3   0.941141 0.047188 0.292540 -0.724638
H75   H     H_    0.978059 0.034966 0.278643 0.218408
H76   H     H_    0.916002 0.953938 0.267627 0.173985
H77   H     H_    0.928368 0.193359 0.287082 0.221124
O30   O     O_3   0.013487 0.874565 0.595747 -0.559844
C95   C     C_3   0.032403 0.028267 0.626332 0.097619
H78   H     H_    0.003750 0.135704 0.629760 0.126770
H79   H     H_    0.063796 0.092337 0.608024 0.117567
C96   C     C_3   0.050209 0.962412 0.682897 -0.732362
H80   H     H_    0.079947 0.859238 0.680839 0.224996
H81   H     H_    0.064125 0.082837 0.707814 0.183858
H82   H     H_    0.019978 0.896339 0.702336 0.215668
O31   O     O_3   0.525812 0.613159 0.117281 -0.552486
C97   C     C_3   0.557526 0.492072 0.148317 0.099698
H83   H     H_    0.595015 0.502729 0.135650 0.116975
H84   H     H_    0.545013 0.344371 0.144652 0.107191
C98   C     C_3   0.558838 0.547632 0.207493 -0.724743
H85   H     H_    0.521915 0.535847 0.221399 0.218485
H86   H     H_    0.583918 0.454243 0.232436 0.173999
H87   H     H_    0.571706 0.693702 0.212897 0.221116
O32   O     O_3   0.486569 0.374280 0.904323 -0.559840
C99   C     C_3   0.467695 0.527907 0.873670 0.097567
H88   H     H_    0.496423 0.634902 0.870055 0.126901
H89   H     H_    0.436416 0.592627 0.892031 0.117519
C100  C     C_3   0.449676 0.461690 0.817206 -0.732454
H90   H     H_    0.419842 0.359046 0.819455 0.224941
H91   H     H_    0.435826 0.582057 0.792220 0.184004
H92   H     H_    0.479775 0.394872 0.797721 0.215820
O33   O     O_3   0.366213 0.615306 0.378927 -0.580322
C101  C     C_3   0.333513 0.575240 0.417998 0.083399
H93   H     H_    0.311013 0.455831 0.402007 0.161985
H94   H     H_    0.308164 0.693385 0.423422 0.099743
C102  C     C_3   0.360057 0.517766 0.472729 -0.353237
H95   H     H_    0.389565 0.418167 0.466163 0.209436
H96   H     H_    0.376357 0.642433 0.493786 0.188373
C103  C     C_3   0.325872 0.426640 0.509704 -0.818912
H97   H     H_    0.297657 0.527545 0.519904 0.227638
H98   H     H_    0.346893 0.382239 0.547818 0.232760
H99   H     H_    0.308293 0.301688 0.490021 0.239568
O34   O     O_3   0.617094 0.372825 0.648486 -0.568807
C104  C     C_3   0.577731 0.404912 0.680108 0.054359
H100  H     H_    0.592576 0.411496 0.723193 0.149655
H101  H     H_    0.549285 0.293509 0.676987 0.105178
C105  C     C_3   0.554059 0.592495 0.665010 -0.292609
H102  H     H_    0.580800 0.705626 0.675047 0.209414
H103  H     H_    0.542834 0.596524 0.620932 0.198331
C106  C     C_3   0.509543 0.626008 0.695679 -0.873088
H104  H     H_    0.481470 0.517992 0.685015 0.238316
H105  H     H_    0.493839 0.764949 0.684802 0.236949
H106  H     H_    0.519940 0.622231 0.739919 0.230975
O35   O     O_3   0.133787 0.115325 0.121076 -0.580321
C107  C     C_3   0.166489 0.075285 0.082005 0.083406
H107  H     H_    0.188992 0.955879 0.097995 0.161980
H108  H     H_    0.191835 0.193440 0.076581 0.099739
C108  C     C_3   0.139946 0.017823 0.027274 -0.353235
H109  H     H_    0.110441 0.918204 0.033841 0.209437
H110  H     H_    0.123640 0.142490 0.006219 0.188383
C109  C     C_3   0.174132 0.926734 0.990297 -0.818934
H111  H     H_    0.202345 0.027656 0.980100 0.227645
H112  H     H_    0.153112 0.882346 0.952183 0.232751
H113  H     H_    0.191715 0.801777 0.009978 0.239565
O36   O     O_3   0.883054 0.872464 0.851255 -0.568665
C110  C     C_3   0.922646 0.905188 0.820014 0.054092
H114  H     H_    0.908091 0.911798 0.776833 0.149591
H115  H     H_    0.951167 0.794083 0.823331 0.105156
C111  C     C_3   0.946068 0.093010 0.835361 -0.292449
H116  H     H_    0.919282 0.205835 0.825121 0.209448
H117  H     H_    0.956974 0.096994 0.879505 0.198330
C112  C     C_3   0.990815 0.127259 0.805137 -0.872644
H118  H     H_    0.018937 0.019646 0.816053 0.238296
H119  H     H_    0.006301 0.266431 0.816150 0.236999
H120  H     H_    0.980753 0.123401 0.760838 0.230812

loop_
_geom_bond_atom_site_label_1
_geom_bond_atom_site_label_2
_ccdc_geom_bond_type
O17   V3    S    
C110  C111  S    
C59   H19   S    
C86   H56   S    
C108  H110  S    
C26   C30   A    
C84   H52   S    
O19   V1    S    
O13   V1    S    
C94   H75   S    
O12   C8    A    
O3    C7    A    
O1    V3    S    
C64   C68   A    
O15   V3    S    
C96   H82   S    
O24   C79   S    
C21   C25   A    
O35   C107  S    
C111  C112  S    
C51   O35   S    
O30   C95   S    
C105  H102  S    
C98   H87   S    
O1    C5    A    
C86   H57   S    
C22   H6    S    
C62   C66   A    
C103  H98   S    
C20   C43   S    
O9    V1    S    
O26   C84   S    
C100  H90   S    
O22   C75   S    
C27   O27   S    
C80   H43   S    
C62   H22   S    
C11   C15   A    
O4    C8    A    
C95   H79   S    
C85   H55   S    
C54   C58   A    
C55   C59   A    
C89   H64   S    
C34   C38   A    
C56   C60   A    
C52   C56   A    
C100  H92   S    
C33   C37   A    
C103  H97   S    
C101  C102  S    
O2    V4    S    
C104  H100  S    
C58   C62   A    
C25   C29   A    
O3    V1    S    
O32   C99   S    
C89   H63   S    
C5    C32   S    
C24   C28   A    
C91   C92   S    
C100  H91   S    
C6    C31   S    
C110  H115  S    
C78   H37   S    
C11   C31   A    
C1    O15   A    
C60   H20   S    
C10   O22   S    
C2    O16   A    
C90   C91   S    
C37   O29   S    
O2    C6    A    
C74   H29   S    
C28   O28   S    
C87   H59   S    
C93   H73   S    
O14   V2    S    
C2    C56   S    
C102  H95   S    
C1    C55   S    
C98   H86   S    
C81   H46   S    
C36   H12   S    
C88   C89   S    
C57   C61   A    
C3    C53   S    
C36   C43   A    
O11   C7    A    
C74   H27   S    
C108  C109  S    
C26   O26   S    
C48   C68   A    
C10   C14   A    
C112  H118  S    
C9    O21   S    
C94   H76   S    
C4    C54   S    
O29   C93   S    
C19   C44   S    
O10   V2    S    
C45   H13   S    
C50   C54   A    
C23   C27   A    
C79   H41   S    
C73   H25   S    
C85   C86   S    
C86   H58   S    
C60   C64   A    
O7    V3    S    
O8    V4    S    
C83   H51   S    
C47   C67   A    
C110  H114  S    
C46   C66   A    
C81   C82   S    
C111  H116  S    
C80   H44   S    
C112  H119  S    
C97   H83   S    
C19   C23   A    
C23   H7    S    
C92   H71   S    
C98   H85   S    
O31   C97   S    
C25   O25   S    
C39   O31   S    
C49   C53   A    
C9    C13   A    
C68   C72   S    
C82   H47   S    
C104  H101  S    
C89   H65   S    
C22   C26   A    
C82   H48   S    
O7    C3    A    
C91   H68   S    
O5    C1    A    
O33   C101  S    
C76   H34   S    
C79   C80   S    
C107  H108  S    
O27   C87   S    
C17   C21   A    
O8    C4    A    
C92   H72   S    
C93   C94   S    
C4    O14   A    
C96   H80   S    
O21   C73   S    
C106  H105  S    
O9    C5    A    
C66   C70   S    
C101  H94   S    
C102  H96   S    
C63   C67   A    
C81   H45   S    
C17   C42   S    
C111  H117  S    
C8    C29   S    
C65   C69   S    
C9    C29   A    
C85   H54   S    
O6    V2    S    
C16   H4    S    
C82   C83   S    
C67   C71   S    
C107  C108  S    
C76   H32   S    
C94   H77   S    
C78   H39   S    
C109  H113  S    
O12   V4    S    
C7    C30   S    
C13   C17   A    
C108  H109  S    
O5    V1    S    
C53   C57   A    
C109  H112  S    
C12   C16   A    
C59   C63   A    
C15   C19   A    
C79   H40   S    
O16   V4    S    
C106  H106  S    
C61   C65   A    
C16   C20   A    
C34   C41   A    
C61   H21   S    
C3    O13   A    
C91   H69   S    
C33   C42   A    
C104  C105  S    
C99   H89   S    
C95   H78   S    
C63   H23   S    
C35   C44   A    
C40   C44   A    
C77   C78   S    
C46   C50   A    
C47   H15   S    
O6    C2    A    
C18   C41   S    
C15   H3    S    
C71   C72   T    
C105  C106  S    
O11   V3    S    
O36   C110  S    
C77   H36   S    
C40   O32   S    
C36   C40   A    
C47   C51   A    
O23   C77   S    
C18   C22   A    
C27   C31   A    
C84   C85   S    
C99   C100  S    
C103  H99   S    
C50   O34   S    
C28   C32   A    
C75   H31   S    
C83   H49   S    
C87   C88   S    
C73   C74   S    
C78   H38   S    
C109  H111  S    
O25   C81   S    
C97   H84   S    
C45   C49   A    
O20   V2    S    
C10   C30   A    
C58   H18   S    
C80   H42   S    
C11   O23   S    
C14   C18   A    
C46   H14   S    
C95   C96   S    
O10   C6    A    
C34   H10   S    
C48   H16   S    
C39   C43   A    
C33   H9    S    
C52   O36   S    
C87   H60   S    
O34   C104  S    
C96   H81   S    
C105  H103  S    
C75   H30   S    
C35   H11   S    
C12   C32   A    
C97   C98   S    
C13   H1    S    
C101  H93   S    
C102  C103  S    
C57   H17   S    
C90   H67   S    
C21   H5    S    
C77   H35   S    
C51   C55   A    
C88   H61   S    
C75   C76   S    
C14   H2    S    
C64   H24   S    
C12   O24   S    
C20   C24   A    
C35   C39   A    
C90   H66   S    
C84   H53   S    
C92   H70   S    
C38   C42   A    
C112  H120  S    
C45   C65   A    
C74   H28   S    
C76   H33   S    
C37   C41   A    
C93   H74   S    
C48   C52   A    
C49   O33   S    
O28   C90   S    
C69   C70   T    
C73   H26   S    
C99   H88   S    
O18   V4    S    
O4    V2    S    
C24   H8    S    
C106  H104  S    
C83   H50   S    
C107  H107  S    
C88   H62   S    
C38   O30   S    
