data_mof_unit_52361.cif
_audit_creation_date              2012-10-26T20:03:18-0400
_audit_creation_method            fapswitch 2.2
_symmetry_space_group_name_H-M    P1
_symmetry_Int_Tables_number       1
_space_group_crystal_system       triclinic
_cell_length_a                    10.622122
_cell_length_b                    12.332697
_cell_length_c                    13.189259
_cell_angle_alpha                 116.729286
_cell_angle_beta                  77.041832
_cell_angle_gamma                 100.121912
_cell_volume                      1498.28256058

loop_
_atom_site_label
_atom_site_type_symbol
_atom_type_description
_atom_site_fract_x
_atom_site_fract_y
_atom_site_fract_z
_atom_type_partial_charge
C1    C     C_R   0.508710 0.855246 0.286798 0.573415
C2    C     C_R   0.490002 0.567089 0.009773 0.037391
C3    C     C_R   0.454253 0.651017 0.125850 0.030329
C4    C     C_R   0.739921 0.000890 0.502597 0.607058
C5    C     C_R   0.453407 0.440832 0.977730 0.027302
C6    C     C_R   0.369814 0.402062 0.057725 0.045543
C7    C     C_R   0.321862 0.487936 0.166646 -0.134538
C8    C     C_R   0.362059 0.610634 0.199837 -0.126780
C9    C     C_R   0.498441 0.351595 0.868624 -0.127071
C10   C     C_R   0.373821 0.191452 0.915860 -0.127033
C11   C     C_R   0.509747 0.773528 0.163588 0.012677
C12   C     C_3   0.030981 0.086998 0.607804 -0.150308
C13   C     C_R   0.633562 0.308402 0.285644 -0.119655
C14   C     C_R   0.344751 0.774691 0.662675 0.064127
C15   C     C_R   0.310045 0.684100 0.701949 -0.145053
C16   C     C_R   0.480996 0.145145 0.713606 0.546488
C17   C     C_R   0.357687 0.570077 0.637089 -0.122797
C18   C     C_R   0.438447 0.544452 0.530263 0.003884
C19   C     C_R   0.471467 0.640011 0.492578 0.165399
C20   C     C_R   0.494925 0.430424 0.461724 -0.015401
C21   C     C_R   0.557854 0.406677 0.348564 -0.039468
C22   C     C_R   0.563973 0.492212 0.305777 -0.162517
C23   C     C_3   0.932340 0.974809 0.587969 0.065675
C24   C     C_R   0.552232 0.613139 0.384432 0.090938
C25   C     C_R   0.497423 0.340726 0.500692 0.014501
C26   C     C_R   0.652044 0.235977 0.336227 0.411525
C27   C     C_R   0.259898 0.002361 0.501854 0.532969
C28   C     C_3   0.970610 0.921902 0.402440 -0.157704
C29   C     C_3   0.026917 0.893212 0.485497 -0.135144
C30   C     C_3   0.123466 0.005717 0.503989 0.014415
C31   C     C_3   0.069630 0.034420 0.421118 -0.108814
C32   C     C_3   0.974363 0.115380 0.524742 -0.101236
C33   C     C_2   0.678014 0.682423 0.378104 0.617112
C34   C     C_3   0.876818 0.002493 0.505722 0.033035
C35   C     C_2   0.853582 0.943983 0.682408 0.611311
C36   C     C_R   0.332454 0.277742 0.026782 -0.120718
C37   C     C_R   0.454664 0.228788 0.835721 0.012386
C38   C     C_R   0.577086 0.815572 0.081822 -0.111885
C39   C     C_R   0.598637 0.736360 0.965898 -0.130751
C40   C     C_R   0.558775 0.613082 0.929999 -0.114051
Cu1   Cu    Cu3+1 0.529830 0.098270 0.475420 1.024830
Cu2   Cu    Cu3+1 0.470170 0.901730 0.524580 0.994078
H1    H     H_    0.053803 0.803368 0.470116 0.142394
H2    H     H_    0.306605 0.862483 0.714381 0.132752
H3    H     H_    0.944542 0.854581 0.318061 0.157447
H4    H     H_    0.328191 0.502686 0.670820 0.103424
H5    H     H_    0.246271 0.702655 0.783384 0.116268
H6    H     H_    0.128887 0.059345 0.352671 0.144251
H7    H     H_    0.951137 0.207354 0.543200 0.178900
H8    H     H_    0.058831 0.154276 0.691595 0.125758
H9    H     H_    0.338776 0.096606 0.891644 0.126054
H10   H     H_    0.253413 0.460155 0.226875 0.132346
H11   H     H_    0.268319 0.247686 0.087426 0.136108
H12   H     H_    0.567308 0.375256 0.806648 0.126535
H13   H     H_    0.867749 0.988139 0.230527 0.353610
H14   H     H_    0.851372 0.713513 0.425856 0.326945
H15   H     H_    0.719140 0.994612 0.826301 0.338415
H16   H     H_    0.615289 0.909726 0.107350 0.183710
H17   H     H_    0.579555 0.557062 0.838743 0.115014
H18   H     H_    0.650001 0.770137 0.903614 0.153230
H19   H     H_    0.316646 0.673211 0.283155 0.143329
H20   H     H_    0.617481 0.473257 0.219817 0.142957
H21   H     H_    0.690816 0.298143 0.203233 0.151110
H22   H     H_    0.439764 0.345436 0.580795 0.121441
N1    N     N_R   0.575030 0.246270 0.438190 -0.246953
N2    N     N_R   0.425760 0.754330 0.561190 -0.246708
O1    O     O_R   0.537510 0.972500 0.318130 -0.461880
O2    O     O_2   0.882876 0.225116 0.375467 -0.303415
O3    O     O_3   0.778903 0.013761 0.249427 -0.510874
O4    O     O_2   0.720722 0.707237 0.296137 -0.539690
O5    O     O_R   0.757115 0.699598 0.456280 -0.661004
O6    O     O_2   0.864714 0.848149 0.684610 -0.494583
O7    O     O_R   0.767654 0.025461 0.767550 -0.695115
O8    O     O_R   0.487140 0.806530 0.359650 -0.511989
O9    O     O_R   0.708330 0.082950 0.479220 -0.429999
O10   O     O_R   0.657960 0.916980 0.520740 -0.454794
O11   O     O_R   0.512860 0.193470 0.640350 -0.528072
O12   O     O_R   0.462490 0.027500 0.681870 -0.511503
O13   O     O_R   0.342040 0.083020 0.479260 -0.522781
O14   O     O_R   0.291670 0.917050 0.520780 -0.523914
O15   O     O_2   0.869315 0.179547 0.178135 -0.316022
S1    S     S_3+6 0.799121 0.163479 0.283615 0.021838

loop_
_geom_bond_atom_site_label_1
_geom_bond_atom_site_label_2
_ccdc_geom_bond_type
Cu2   O14   S    
Cu1   Cu2   S    
C1    C11   S    
C15   H5    S    
O15   S1    D    
C7    C8    A    
Cu1   O1    S    
C12   C23   S    
C10   C37   A    
C1    O8    A    
C23   C29   S    
C28   C29   S    
C7    H10   S    
C18   C19   A    
C27   O13   A    
Cu1   O11   S    
C38   C39   A    
C22   H20   S    
C20   C25   A    
C19   N2    A    
C16   O11   A    
H15   O7    S    
C4    O9    A    
O3    S1    S    
C38   H16   S    
C36   H11   S    
C16   O12   A    
C8    H19   S    
C23   C34   S    
C28   C34   S    
C26   S1    S    
C40   H17   S    
C21   C22   A    
C12   C32   S    
C27   C30   S    
C10   H9    S    
C4    C34   S    
C28   H3    S    
Cu2   O8    S    
C25   N1    A    
C17   H4    S    
C3    C8    A    
C39   C40   A    
Cu1   N1    S    
C25   H22   S    
C32   C34   S    
C11   C38   A    
C5    C9    A    
C29   C30   S    
Cu1   O9    S    
C31   C32   S    
C13   H21   S    
C30   C31   S    
H14   O5    S    
C9    C37   A    
C17   C18   A    
C14   N2    A    
C13   C21   A    
H13   O3    S    
C33   O4    D    
C35   O6    D    
Cu2   O12   S    
C23   C35   S    
C31   H6    S    
C22   C24   A    
C13   C26   A    
C2    C5    A    
C14   H2    S    
C15   C17   A    
C35   O7    S    
C12   C30   S    
C26   N1    A    
C28   C31   S    
Cu1   O13   S    
C12   H8    S    
C6    C7    A    
C16   C37   S    
Cu2   O10   S    
C24   C33   S    
O2    S1    D    
C2    C3    A    
C5    C6    A    
C39   H18   S    
C1    O1    A    
C6    C36   A    
C19   C24   A    
C18   C20   A    
C32   H7    S    
C4    O10   A    
C3    C11   A    
C33   O5    S    
C2    C40   A    
C20   C21   A    
C27   O14   A    
Cu2   N2    S    
C14   C15   A    
C10   C36   A    
C9    H12   S    
C29   H1    S    
