data_mof_unit_28364.cif
_audit_creation_date              2013-03-05T15:48:18-0500
_audit_creation_method            fapswitch 2.2
_symmetry_space_group_name_H-M    P1
_symmetry_Int_Tables_number       1
_space_group_crystal_system       triclinic
_cell_length_a                    10.278619
_cell_length_b                    10.39492
_cell_length_c                    16.540455
_cell_angle_alpha                 91.991065
_cell_angle_beta                  75.848425
_cell_angle_gamma                 93.820285
_cell_volume                      1709.52044709

loop_
_atom_site_label
_atom_site_type_symbol
_atom_site_description
_atom_site_fract_x
_atom_site_fract_y
_atom_site_fract_z
_atom_type_partial_charge
O1    O     O_R   0.430310 0.692580 0.506610 -0.613036
O2    O     O_R   0.569690 0.307420 0.493390 -0.630860
O3    O     O_R   0.652740 0.659410 0.485540 -0.537914
O4    O     O_R   0.347260 0.340590 0.514460 -0.536861
C1    C     C_R   0.553562 0.735173 0.498157 0.993911
C2    C     C_R   0.445468 0.265102 0.508381 0.901469
O5    O     O_R   0.375640 0.518570 0.627580 -0.622113
O6    O     O_R   0.624360 0.481430 0.372420 -0.588182
O7    O     O_R   0.598070 0.485390 0.606510 -0.546290
O8    O     O_R   0.401930 0.514610 0.393490 -0.574532
C3    C     C_R   0.479317 0.498098 0.655859 0.861814
C4    C     C_R   0.518482 0.493961 0.344938 0.965644
Zn1   Zn    Zn3+2 0.351480 0.522150 0.514070 1.023266
Zn2   Zn    Zn3+2 0.648520 0.477850 0.485930 1.050774
C5    C     C_R   0.453661 0.468269 0.744645 -0.252531
C6    C     C_R   0.521273 0.446456 0.261614 -0.190102
C7    C     C_R   0.554736 0.479381 0.788828 0.349380
C8    C     C_R   0.551832 0.526990 0.192244 0.300774
C9    C     C_R   0.523291 0.445747 0.872065 -0.296009
C10   C     C_R   0.534721 0.474346 0.116550 -0.280540
C11   C     C_R   0.395110 0.393099 0.911396 -0.076605
C12   C     C_R   0.485041 0.345966 0.110196 -0.084971
C13   C     C_R   0.293555 0.378951 0.867564 0.350135
C14   C     C_R   0.460546 0.264123 0.178933 0.335498
C15   C     C_R   0.323615 0.419161 0.784968 -0.311243
C16   C     C_R   0.480690 0.315947 0.254153 -0.256855
C17   C     C_2   0.368643 0.368655 0.001277 0.211982
C18   C     C_2   0.458415 0.303900 0.029786 0.194633
H1    H     H_    0.458202 0.255870 0.308746 0.190360
H2    H     H_    0.245880 0.406721 0.750915 0.221811
H3    H     H_    0.557792 0.534237 0.061963 0.194020
H4    H     H_    0.600378 0.460715 0.906455 0.186879
C19   C     C_2   0.574735 0.873008 0.512157 -0.327913
C20   C     C_2   0.419581 0.128612 0.526518 -0.381103
C21   C     C_2   0.488003 0.932895 0.574366 0.182345
C22   C     C_2   0.487126 0.073017 0.575327 0.155441
H5    H     H_    0.358920 0.070388 0.491976 0.177719
H6    H     H_    0.653165 0.927473 0.468152 0.160953
N1    N     N_2   0.846390 0.448330 0.467170 -0.075109
N2    N     N_2   0.153610 0.551670 0.532830 -0.087662
C23   C     C_2   0.927066 0.522560 0.500662 0.323026
C24   C     C_2   0.066380 0.481232 0.502174 0.285443
N3    N     N_R   0.689462 0.524569 0.751157 0.231496
O9    O     O_R   0.739969 0.627844 0.781658 -0.367616
O10   O     O_R   0.770608 0.444524 0.705909 -0.390434
N4    N     N_R   0.596075 0.661044 0.197620 0.217019
O11   O     O_R   0.586190 0.740780 0.140740 -0.328054
O12   O     O_R   0.653905 0.703194 0.255967 -0.379416
N5    N     N_2   0.540182 0.211072 0.978385 -0.289394
H7    H     H_    0.520579 0.187432 0.921281 0.241951
C25   C     C_3   0.680608 0.213492 0.979849 -0.589076
H8    H     H_    0.730775 0.136898 0.937319 0.255082
H9    H     H_    0.690954 0.194605 0.043565 0.256861
H10   H     H_    0.731591 0.308328 0.958837 0.242995
N6    N     N_2   0.262302 0.432235 0.057977 -0.276905
H11   H     H_    0.241808 0.406407 0.119666 0.248878
C26   C     C_3   0.253180 0.568355 0.045878 -0.639811
H12   H     H_    0.166618 0.604706 0.093322 0.258052
H13   H     H_    0.236491 0.585146 0.983391 0.248065
H14   H     H_    0.346292 0.623367 0.052787 0.246639
N7    N     N_R   0.161425 0.322985 0.905043 0.219420
O13   O     O_R   0.145208 0.232668 0.959786 -0.343184
O14   O     O_R   0.058326 0.352434 0.878300 -0.381952
N8    N     N_R   0.411291 0.131529 0.174784 0.231012
O15   O     O_R   0.334763 0.095117 0.125078 -0.330117
O16   O     O_R   0.432657 0.048489 0.226528 -0.332862
N9    N     N_2   0.547619 0.145290 0.633178 -0.307981
H15   H     H_    0.518980 0.237971 0.647018 0.231432
C27   C     C_3   0.689323 0.130163 0.624145 -0.592081
H16   H     H_    0.723304 0.184905 0.674815 0.260120
H17   H     H_    0.747949 0.167848 0.563172 0.253638
H18   H     H_    0.708682 0.027183 0.628864 0.247868
N10   N     N_2   0.395708 0.862992 0.638955 -0.303653
H19   H     H_    0.308034 0.908750 0.662833 0.237157
C28   C     C_3   0.454566 0.822537 0.704211 -0.684017
H20   H     H_    0.379691 0.760353 0.748235 0.229815
H21   H     H_    0.484911 0.907959 0.739151 0.254464
H22   H     H_    0.543975 0.766502 0.677593 0.257520
N11   N     N_R   0.099745 0.353009 0.473869 0.197918
O17   O     O_R   0.038770 0.254943 0.517180 -0.399127
O18   O     O_R   0.186628 0.333564 0.403541 -0.395278
N12   N     N_R   0.886495 0.648640 0.529401 0.222421
O19   O     O_R   0.812140 0.667259 0.603965 -0.334691
O20   O     O_R   0.925864 0.746224 0.480351 -0.381969
N13   N     N_2   0.116642 0.669454 0.568437 -0.240136
H23   H     H_    0.185434 0.743267 0.544163 0.264103
C29   C     C_3   0.086666 0.669533 0.658445 -0.539496
H24   H     H_    0.043815 0.762136 0.683549 0.240959
H25   H     H_    0.179276 0.658965 0.680036 0.222712
H26   H     H_    0.012086 0.589420 0.682995 0.284809
N14   N     N_2   0.901392 0.403878 0.386892 -0.241735
H27   H     H_    0.999285 0.433483 0.358436 0.232522
C30   C     C_3   0.858928 0.273050 0.368975 -0.516974
H28   H     H_    0.916138 0.243105 0.305893 0.223635
H29   H     H_    0.751029 0.266192 0.369091 0.237822
H30   H     H_    0.877676 0.206399 0.415265 0.242724

loop_
_geom_bond_atom_site_label_1
_geom_bond_atom_site_label_2
_geom_bond_distance
_ccdc_geom_bond_type
N6    H11   1.031502 S    
C30   H28   1.110499 S    
C20   H5    1.086910 S    
N10   H19   1.031678 S    
C21   C22   1.456701 S    
N3    O9    1.301026 A    
C22   N9    1.430170 S    
N1    C23   1.303673 D    
N13   H23   1.029655 S    
O5    C3    1.296361 A    
O1    C1    1.289754 A    
C9    C11   1.402905 A    
C14   C16   1.394828 A    
C27   H16   1.109833 S    
C17   N6    1.436323 S    
C5    C15   1.410318 A    
C27   H17   1.110189 S    
C23   C24   1.528375 S    
O4    Zn1   1.885107 S    
N7    O14   1.301619 A    
Zn1   N2    2.023579 S    
C19   C21   1.349799 D    
Zn2   N1    2.023579 S    
C3    C5    1.467569 S    
C4    C6    1.442008 S    
N5    C25   1.448026 S    
C1    C19   1.453922 S    
C20   C22   1.351927 D    
N2    C24   1.306190 D    
C11   C17   1.472419 S    
C24   N11   1.432614 S    
C30   H29   1.106124 S    
C12   C18   1.468562 S    
N10   C28   1.446583 S    
O2    C2    1.289652 A    
C9    H4    1.083240 S    
C8    N4    1.443334 S    
N1    N14   1.386135 S    
N13   C29   1.444656 S    
C6    C16   1.402788 A    
N4    O12   1.301204 A    
N9    H15   1.027970 S    
O4    C2    1.302022 A    
N14   H27   1.032433 S    
N11   O18   1.300490 A    
O7    Zn2   1.934349 S    
C26   H14   1.109969 S    
C25   H8    1.110443 S    
N9    C27   1.446025 S    
N8    O16   1.301673 A    
N2    N13   1.375772 S    
C27   H18   1.110571 S    
C28   H20   1.110292 S    
C7    N3    1.427690 S    
N14   C30   1.443582 S    
N3    O10   1.300818 A    
C18   N5    1.435955 S    
C13   N7    1.440598 S    
O6    C4    1.293394 A    
O7    C3    1.304006 A    
O3    Zn2   1.885107 S    
O8    C4    1.295391 A    
C16   H1    1.084759 S    
C10   C12   1.406547 A    
N5    H7    1.031237 S    
C30   H30   1.109133 S    
N12   O20   1.301114 A    
C11   C13   1.406789 A    
C12   C14   1.406597 A    
C29   H26   1.110074 S    
O1    Zn1   1.893505 S    
C15   H2    1.083331 S    
C5    C7    1.405746 A    
N4    O11   1.301770 A    
C21   N10   1.426816 S    
O6    Zn2   1.955033 S    
O3    C1    1.301736 A    
O8    Zn1   1.934349 S    
C19   H6    1.086782 S    
C25   H10   1.110473 S    
N8    O15   1.301109 A    
N6    C26   1.448269 S    
C26   H12   1.110416 S    
C23   N12   1.431825 S    
C7    C9    1.386729 A    
C14   N8    1.441595 S    
C8    C10   1.394705 A    
C13   C15   1.397371 A    
N7    O13   1.301350 A    
O2    Zn2   1.893506 S    
C28   H22   1.110552 S    
C26   H13   1.109659 S    
N11   O17   1.300475 A    
C2    C20   1.453971 S    
O5    Zn1   1.955032 S    
C29   H24   1.110087 S    
C6    C8    1.404104 A    
N12   O19   1.298025 A    
C28   H21   1.111451 S    
C17   C18   1.358121 D    
C29   H25   1.108426 S    
C25   H9    1.110178 S    
C10   H3    1.083375 S    
