data_mof_unit_10858.cif
_audit_creation_date              2013-03-05T15:51:15-0500
_audit_creation_method            fapswitch 2.2
_symmetry_space_group_name_H-M    P1
_symmetry_Int_Tables_number       1
_space_group_crystal_system       triclinic
_cell_length_a                    19.296239
_cell_length_b                    11.100536
_cell_length_c                    18.753412
_cell_angle_alpha                 90.561836
_cell_angle_beta                  90.634582
_cell_angle_gamma                 90.128554
_cell_volume                      4016.50391461

loop_
_atom_site_label
_atom_site_type_symbol
_atom_site_description
_atom_site_fract_x
_atom_site_fract_y
_atom_site_fract_z
_atom_type_partial_charge
O1    O     O_R   0.787520 0.042810 0.170440 -0.519329
O2    O     O_R   0.212480 0.042810 0.829560 -0.534936
O3    O     O_R   0.287520 0.542810 0.170440 -0.526458
O4    O     O_R   0.712480 0.542810 0.829560 -0.528333
O5    O     O_R   0.765640 0.292100 0.175020 -0.520510
O6    O     O_R   0.234360 0.292100 0.824980 -0.505103
O7    O     O_R   0.265640 0.792100 0.175020 -0.519992
O8    O     O_R   0.734360 0.792100 0.824980 -0.505321
C1    C     C_R   0.728175 0.376684 0.145639 0.544203
C2    C     C_R   0.269249 0.379344 0.852817 0.571136
C3    C     C_R   0.228170 0.876670 0.145633 0.545859
C4    C     C_R   0.769243 0.879358 0.852810 0.569426
O9    O     O_R   0.670190 0.408840 0.168540 -0.437563
O10   O     O_R   0.329810 0.408840 0.831460 -0.483876
O11   O     O_R   0.170190 0.908840 0.168540 -0.437399
O12   O     O_R   0.829810 0.908840 0.831460 -0.484180
O13   O     O_R   0.556620 0.251410 0.175160 -0.487106
O14   O     O_R   0.443380 0.251410 0.824840 -0.526379
O15   O     O_R   0.056620 0.751410 0.175160 -0.487791
O16   O     O_R   0.943380 0.751410 0.824840 -0.525976
C5    C     C_R   0.533169 0.153203 0.146622 0.522105
C6    C     C_R   0.467279 0.157362 0.853666 0.526618
C7    C     C_R   0.033160 0.653200 0.146632 0.518208
C8    C     C_R   0.967253 0.657361 0.853681 0.529828
O17   O     O_R   0.545960 0.049620 0.170320 -0.524796
O18   O     O_R   0.454040 0.049620 0.829680 -0.514426
O19   O     O_R   0.045960 0.549620 0.170320 -0.530658
O20   O     O_R   0.954040 0.549620 0.829680 -0.508420
O21   O     O_R   0.681390 0.958010 0.176690 -0.494659
O22   O     O_R   0.318610 0.958010 0.823310 -0.467356
O23   O     O_R   0.181390 0.458010 0.176690 -0.499211
O24   O     O_R   0.818610 0.458010 0.823310 -0.464385
C9    C     C_R   0.727211 0.020774 0.140234 0.545561
C10   C     C_R   0.259549 0.971483 0.852745 0.563595
C11   C     C_R   0.227212 0.520769 0.140234 0.544229
C12   C     C_R   0.759544 0.471470 0.852742 0.569044
O25   O     O_R   0.787510 0.044390 0.330970 -0.482626
O26   O     O_R   0.212490 0.044390 0.669030 -0.514496
O27   O     O_R   0.287510 0.544390 0.330970 -0.512626
O28   O     O_R   0.712490 0.544390 0.669030 -0.486670
O29   O     O_R   0.765630 0.293570 0.323840 -0.467437
O30   O     O_R   0.234370 0.293570 0.676160 -0.474443
O31   O     O_R   0.265630 0.793570 0.323840 -0.474523
O32   O     O_R   0.734370 0.793570 0.676160 -0.469199
C13   C     C_R   0.727793 0.374829 0.353403 0.551311
C14   C     C_R   0.271327 0.374660 0.646559 0.569943
C15   C     C_R   0.228709 0.875291 0.353307 0.556151
C16   C     C_R   0.772074 0.874549 0.646573 0.564112
O33   O     O_R   0.670190 0.410420 0.329080 -0.516547
O34   O     O_R   0.329810 0.410420 0.670920 -0.506439
O35   O     O_R   0.170190 0.910420 0.329080 -0.516952
O36   O     O_R   0.829810 0.910420 0.670920 -0.507050
O37   O     O_R   0.556610 0.252880 0.323980 -0.454100
O38   O     O_R   0.443390 0.252880 0.676020 -0.470991
O39   O     O_R   0.056610 0.752880 0.323980 -0.472962
O40   O     O_R   0.943390 0.752880 0.676020 -0.452832
C17   C     C_R   0.536776 0.158401 0.356139 0.597489
C18   C     C_R   0.469792 0.156363 0.648504 0.601762
C19   C     C_R   0.030303 0.656681 0.351646 0.594517
C20   C     C_R   0.963351 0.657948 0.644031 0.603634
O41   O     O_R   0.545950 0.051210 0.330860 -0.457459
O42   O     O_R   0.454050 0.051210 0.669140 -0.441186
O43   O     O_R   0.045950 0.551210 0.330860 -0.443103
O44   O     O_R   0.954050 0.551210 0.669140 -0.455170
O45   O     O_R   0.681390 0.959480 0.325510 -0.457869
O46   O     O_R   0.318610 0.959480 0.674490 -0.421301
O47   O     O_R   0.181390 0.459480 0.325510 -0.421979
O48   O     O_R   0.818610 0.459480 0.674490 -0.456128
C21   C     C_R   0.743237 0.970462 0.353133 0.571832
C22   C     C_R   0.257016 0.968917 0.647253 0.578319
C23   C     C_R   0.242901 0.469493 0.352803 0.574250
C24   C     C_R   0.756659 0.469829 0.646949 0.574661
Cr1   Cr    Cr6+3 0.772010 0.169670 0.250090 1.088536
Cr2   Cr    Cr6+3 0.227990 0.169670 0.749910 1.090248
Cr3   Cr    Cr6+3 0.272010 0.669670 0.250090 1.076664
Cr4   Cr    Cr6+3 0.727990 0.669670 0.749910 1.101261
Cr5   Cr    Cr6+3 0.615000 0.323260 0.249260 1.126324
Cr6   Cr    Cr6+3 0.385000 0.323260 0.750740 1.107075
Cr7   Cr    Cr6+3 0.115000 0.823260 0.249260 1.127646
Cr8   Cr    Cr6+3 0.885000 0.823260 0.750740 1.104648
Cr9   Cr    Cr6+3 0.616710 0.010760 0.250840 1.108761
Cr10  Cr    Cr6+3 0.383290 0.010760 0.749160 1.156537
Cr11  Cr    Cr6+3 0.116710 0.510760 0.250840 1.120216
Cr12  Cr    Cr6+3 0.883290 0.510760 0.749160 1.144653
O49   O     O_3   0.667900 0.167900 0.250060 -0.334731
O50   O     O_3   0.332100 0.167900 0.749940 -0.313355
O51   O     O_3   0.167900 0.667900 0.250060 -0.322945
O52   O     O_3   0.832100 0.667900 0.749940 -0.324383
H1    H     H_    0.560527 0.986877 0.048771 0.151496
H2    H     H_    0.546767 0.001419 0.922077 0.154303
H3    H     H_    0.060546 0.486916 0.048774 0.151546
H4    H     H_    0.046757 0.501473 0.922089 0.154808
C25   C     C_R   0.495596 0.174358 0.925809 -0.002173
C26   C     C_R   0.508896 0.155210 0.073457 0.003248
C27   C     C_R   0.995520 0.674355 0.925844 -0.004293
C28   C     C_R   0.008861 0.655192 0.073483 0.004362
C29   C     C_R   0.473063 0.271391 0.971293 0.020483
C30   C     C_R   0.474338 0.254929 0.045921 0.026156
C31   C     C_R   0.972940 0.771346 0.971344 0.020278
C32   C     C_R   0.974253 0.754873 0.045973 0.025494
C33   C     C_R   0.534972 0.065655 0.027944 -0.154346
C34   C     C_R   0.528887 0.075340 0.955256 -0.155018
C35   C     C_R   0.034953 0.565668 0.027960 -0.153713
C36   C     C_R   0.028848 0.575363 0.955276 -0.155324
C37   C     C_R   0.450456 0.384937 0.946302 -0.040056
C38   C     C_R   0.442478 0.339591 0.091594 -0.066546
C39   C     C_R   0.950269 0.884873 0.946376 -0.040438
C40   C     C_R   0.942400 0.839499 0.091675 -0.065688
C41   C     C_R   0.923443 0.970756 0.993192 -0.073188
C42   C     C_R   0.917407 0.946945 0.065087 -0.078776
C43   C     C_R   0.423600 0.470835 0.993087 -0.072619
C44   C     C_R   0.417504 0.447035 0.064978 -0.079849
H5    H     H_    0.459173 0.415213 0.892774 0.179195
H6    H     H_    0.438075 0.324506 0.148295 0.137676
H7    H     H_    0.958934 0.915177 0.892846 0.178348
H8    H     H_    0.938034 0.824402 0.148382 0.144591
H9    H     H_    0.912057 0.059503 0.974979 0.186434
H10   H     H_    0.897492 0.015080 0.100821 0.161684
H11   H     H_    0.412245 0.559581 0.974856 0.186667
H12   H     H_    0.397553 0.515174 0.100691 0.160052
C45   C     C_R   0.741046 0.939709 0.916132 0.025314
C46   C     C_R   0.239547 0.917206 0.073006 -0.014900
C47   C     C_R   0.241059 0.439684 0.916145 0.025566
C48   C     C_R   0.739562 0.417247 0.073016 -0.014701
C49   C     C_R   0.694939 0.879452 0.959794 -0.040227
C50   C     C_R   0.301778 0.888551 0.040652 -0.044730
C51   C     C_R   0.194943 0.379430 0.959803 -0.040283
C52   C     C_R   0.801772 0.388498 0.040647 -0.044630
C53   C     C_R   0.687704 0.911785 0.030316 -0.037321
C54   C     C_R   0.307695 0.897912 0.967465 0.080772
C55   C     C_R   0.187706 0.411762 0.030323 -0.037354
C56   C     C_R   0.807679 0.397826 0.967456 0.080158
C57   C     C_R   0.763279 0.079736 0.015011 -0.171323
C58   C     C_R   0.186232 0.936002 0.954914 -0.151796
C59   C     C_R   0.263301 0.579701 0.015026 -0.171049
C60   C     C_R   0.686234 0.436088 0.954933 -0.151362
C61   C     C_R   0.766670 0.051929 0.940765 0.179670
C62   C     C_R   0.181172 0.949535 0.028714 0.172138
C63   C     C_R   0.266698 0.551893 0.940783 0.179360
C64   C     C_R   0.681196 0.449657 0.028735 0.171901
C65   C     C_3   0.684546 0.749278 0.974993 -0.234671
C66   C     C_3   0.370141 0.949069 0.052892 -0.280574
C67   C     C_3   0.184534 0.249253 0.974999 -0.234370
C68   C     C_3   0.870166 0.448913 0.052872 -0.280956
C69   C     C_3   0.674823 0.786551 0.052425 -0.199726
C70   C     C_3   0.375884 0.959769 0.972869 -0.224484
C71   C     C_3   0.174806 0.286526 0.052431 -0.200283
C72   C     C_3   0.875895 0.459595 0.972847 -0.224487
C73   C     C_R   0.727584 0.002299 0.061899 -0.031253
C74   C     C_R   0.250591 0.922352 0.923440 0.014850
C75   C     C_R   0.227591 0.502274 0.061906 -0.029921
C76   C     C_R   0.750579 0.422342 0.923441 0.013819
H13   H     H_    0.789632 0.157995 0.036129 0.144244
H14   H     H_    0.141712 0.956240 0.921487 0.185364
H15   H     H_    0.289653 0.657966 0.036146 0.144647
H16   H     H_    0.641715 0.456368 0.921514 0.187022
H17   H     H_    0.232194 0.195111 0.966329 0.130326
H18   H     H_    0.909134 0.386876 0.076442 0.167193
H19   H     H_    0.732210 0.695151 0.966317 0.129887
H20   H     H_    0.409138 0.887091 0.076469 0.167604
H21   H     H_    0.636552 0.712920 0.949439 0.186898
H22   H     H_    0.365475 0.037554 0.080796 0.138089
H23   H     H_    0.136538 0.212905 0.949443 0.186790
H24   H     H_    0.865549 0.537406 0.080775 0.137845
H25   H     H_    0.620451 0.778903 0.070593 0.203649
H26   H     H_    0.372834 0.054424 0.954500 0.122337
H27   H     H_    0.120430 0.278889 0.070593 0.203255
H28   H     H_    0.872876 0.554250 0.954477 0.122101
H29   H     H_    0.715646 0.751677 0.089091 0.172359
H30   H     H_    0.418230 0.904348 0.950048 0.191915
H31   H     H_    0.215619 0.251627 0.089102 0.171531
H32   H     H_    0.918217 0.404127 0.950017 0.192122
C77   C     C_R   0.509067 0.163156 0.582407 -0.002406
C78   C     C_R   0.522521 0.170582 0.432714 -0.012393
C79   C     C_R   0.977836 0.669973 0.567709 -0.012508
C80   C     C_R   0.991216 0.663432 0.417976 -0.003556
C81   C     C_R   0.522410 0.059437 0.542521 -0.044018
C82   C     C_R   0.529019 0.064183 0.470612 -0.077133
C83   C     C_R   0.971105 0.563880 0.528653 -0.080049
C84   C     C_R   0.977635 0.559402 0.456685 -0.042529
C85   C     C_R   0.522086 0.282152 0.473422 0.135134
C86   C     C_R   0.522307 0.274907 0.550263 0.154040
C87   C     C_R   0.978037 0.774918 0.451428 0.154023
C88   C     C_R   0.978273 0.781768 0.528367 0.136170
C89   C     C_3   0.498212 0.929810 0.538970 0.381201
C90   C     C_3   0.507460 0.935330 0.457523 0.380298
C91   C     C_3   0.992291 0.435305 0.540509 0.378242
C92   C     C_3   0.001344 0.429536 0.458985 0.382400
C93   C     C_R   0.762088 0.898612 0.571983 0.076590
C94   C     C_R   0.245184 0.907141 0.426339 0.076368
C95   C     C_R   0.254768 0.406513 0.573657 0.075573
C96   C     C_R   0.737204 0.398633 0.428028 0.080726
C97   C     C_R   0.763896 0.017063 0.548456 -0.010473
C98   C     C_R   0.209313 0.000991 0.458622 -0.026113
C99   C     C_R   0.290777 0.500624 0.542396 -0.019496
C100  C     C_R   0.735238 0.516917 0.452782 -0.018981
C101  C     C_R   0.763757 0.036882 0.474780 -0.033010
C102  C     C_R   0.209313 0.011347 0.532036 -0.022693
C103  C     C_R   0.290423 0.512335 0.469050 -0.023669
C104  C     C_R   0.735899 0.536552 0.526583 -0.031478
C105  C     C_R   0.777184 0.827419 0.449996 -0.093637
C106  C     C_R   0.274165 0.828042 0.543868 -0.065341
C107  C     C_R   0.225398 0.328672 0.454908 -0.066651
C108  C     C_R   0.721829 0.326957 0.548820 -0.098754
C109  C     C_R   0.783427 0.808760 0.523411 -0.144395
C110  C     C_R   0.276673 0.819715 0.469707 -0.056192
C111  C     C_R   0.222906 0.319670 0.529064 -0.058044
C112  C     C_R   0.715690 0.308344 0.475241 -0.143040
C113  C     C_3   0.826671 0.094717 0.559673 -0.211188
C114  C     C_3   0.132518 0.017207 0.455112 -0.211837
C115  C     C_3   0.367581 0.517123 0.545901 -0.207545
C116  C     C_3   0.672083 0.593175 0.442880 -0.215947
C117  C     C_3   0.829932 0.107492 0.480499 -0.187048
C118  C     C_3   0.133061 0.025342 0.534196 -0.216702
C119  C     C_3   0.366671 0.527715 0.466977 -0.219588
C120  C     C_3   0.669682 0.606792 0.522161 -0.183382
C121  C     C_R   0.756117 0.940403 0.426956 0.108659
C122  C     C_R   0.244000 0.929039 0.574892 0.061176
C123  C     C_R   0.255797 0.429949 0.425019 0.058291
C124  C     C_R   0.743732 0.439717 0.573015 0.108749
H33   H     H_    0.789269 0.756297 0.412338 0.141592
H34   H     H_    0.296319 0.758170 0.576510 0.160312
H35   H     H_    0.203059 0.258926 0.421357 0.155812
H36   H     H_    0.709224 0.256035 0.585649 0.147721
H37   H     H_    0.804887 0.725452 0.542779 0.107857
H38   H     H_    0.298753 0.741189 0.445769 0.157837
H39   H     H_    0.200411 0.241199 0.551940 0.156108
H40   H     H_    0.694571 0.224664 0.454712 0.108676
H41   H     H_    0.871395 0.046727 0.582502 0.247205
H42   H     H_    0.105955 0.933654 0.437026 0.209640
H43   H     H_    0.394145 0.433207 0.562088 0.207709
H44   H     H_    0.627316 0.543903 0.420209 0.247162
H45   H     H_    0.815934 0.178454 0.589630 0.194242
H46   H     H_    0.116538 0.101598 0.428380 0.223696
H47   H     H_    0.383701 0.600750 0.574476 0.227103
H48   H     H_    0.682282 0.676556 0.413341 0.192052
H49   H     H_    0.826688 0.200465 0.461021 0.224221
H50   H     H_    0.114535 0.112163 0.555693 0.233055
H51   H     H_    0.385116 0.615570 0.447712 0.230704
H52   H     H_    0.673072 0.700241 0.542073 0.222119
H53   H     H_    0.873670 0.057770 0.456381 0.259618
H54   H     H_    0.110805 0.944745 0.558773 0.213951
H55   H     H_    0.389081 0.448584 0.440275 0.215330
H56   H     H_    0.626236 0.557132 0.546527 0.258789
N1    N     N_R   0.516278 0.398347 0.438995 0.050028
O53   O     O_R   0.522866 0.497165 0.475943 -0.310530
O54   O     O_R   0.487266 0.407912 0.376377 -0.331335
N2    N     N_R   0.545365 0.372174 0.596253 0.089494
O55   O     O_R   0.505971 0.464582 0.608693 -0.274269
O56   O     O_R   0.595337 0.351088 0.641515 -0.356327
N3    N     N_R   0.954487 0.871771 0.406639 0.089136
O57   O     O_R   0.993091 0.965566 0.395772 -0.273972
O58   O     O_R   0.904969 0.849443 0.360759 -0.369515
N4    N     N_R   0.984051 0.897824 0.564351 0.053039
O59   O     O_R   0.976118 0.996722 0.528982 -0.311484
O60   O     O_R   0.014495 0.907534 0.626397 -0.326375
N5    N     N_R   0.935276 0.361719 0.567325 0.100042
O61   O     O_R   0.943255 0.294162 0.623139 -0.256741
O62   O     O_R   0.874516 0.369209 0.537663 -0.404188
N6    N     N_R   0.073017 0.413712 0.438286 0.086204
O63   O     O_R   0.088627 0.329581 0.392481 -0.315115
O64   O     O_R   0.118105 0.497030 0.454983 -0.364962
N7    N     N_R   0.426459 0.914416 0.559534 0.083661
O65   O     O_R   0.410697 0.830976 0.604825 -0.312449
O66   O     O_R   0.381631 0.997758 0.543724 -0.368825
N8    N     N_R   0.564332 0.861450 0.430161 0.101296
O67   O     O_R   0.556361 0.793964 0.373504 -0.261731
O68   O     O_R   0.624845 0.867760 0.460621 -0.401523
N9    N     N_R   0.544735 0.846394 0.576324 0.113098
O69   O     O_R   0.590154 0.886057 0.622769 -0.326890
O70   O     O_R   0.535704 0.730848 0.568595 -0.254053
N10   N     N_R   0.442872 0.920694 0.415447 0.113242
O71   O     O_R   0.407055 0.013136 0.394133 -0.337423
O72   O     O_R   0.420176 0.813239 0.399920 -0.312412
N11   N     N_R   0.056896 0.421056 0.582370 0.113764
O73   O     O_R   0.092966 0.513665 0.604509 -0.327313
O74   O     O_R   0.079274 0.313748 0.596997 -0.312398
N12   N     N_R   0.954429 0.346087 0.420908 0.112504
O75   O     O_R   0.909189 0.385677 0.374833 -0.331896
O76   O     O_R   0.962797 0.230536 0.427711 -0.254485
N13   N     N_R   0.794155 0.135883 0.890437 0.078552
O77   O     O_R   0.762659 0.150739 0.829439 -0.314954
O78   O     O_R   0.853102 0.189678 0.901730 -0.382480
N14   N     N_R   0.118471 0.004559 0.055515 0.093715
O79   O     O_R   0.120054 0.076973 0.110414 -0.339278
O80   O     O_R   0.064330 0.010215 0.014221 -0.390076
N15   N     N_R   0.294204 0.635839 0.890464 0.078197
O81   O     O_R   0.262752 0.650654 0.829438 -0.314801
O82   O     O_R   0.353094 0.689786 0.901833 -0.383314
N16   N     N_R   0.618528 0.504786 0.055549 0.093528
O83   O     O_R   0.620139 0.577081 0.110501 -0.338622
O84   O     O_R   0.564408 0.510649 0.014241 -0.389941

loop_
_geom_bond_atom_site_label_1
_geom_bond_atom_site_label_2
_geom_bond_distance
_ccdc_geom_bond_type
O4    C12   1.281440 A    
C57   C61   1.425468 A    
O25   C21   1.259937 A    
C54   C70   1.484812 S    
C66   C70   1.511826 S    
C55   C75   1.388312 A    
C60   C64   1.395224 A    
C42   H10   1.079757 S    
Cr7   O51   2.006103 S    
C92   N12   1.468505 S    
C59   C63   1.425408 A    
C22   C122  1.442466 S    
N14   O79   1.300004 A    
O39   C19   1.296709 A    
C116  H44   1.100587 S    
C85   N1    1.452043 S    
O21   C9    1.324601 A    
C1    O9    1.254286 A    
O44   Cr12  2.091346 S    
N4    O60   1.301055 A    
C3    O11   1.254274 A    
C94   C110  1.407003 A    
C4    O12   1.282377 A    
N10   O71   1.302128 A    
C113  C117  1.494915 S    
C110  H38   1.068225 S    
N15   O82   1.297865 A    
C53   C69   1.475900 S    
C65   C69   1.519753 S    
C29   C37   1.417094 A    
O2    C10   1.281443 A    
N1    O53   1.296948 A    
C68   H24   1.112682 S    
O17   Cr9   2.073595 S    
C102  C122  1.390664 A    
C67   H23   1.111288 S    
C60   C76   1.388897 A    
N2    O56   1.300716 A    
O31   Cr3   1.945984 S    
O16   Cr8   1.956353 S    
N7    O65   1.300657 A    
C44   H12   1.079784 S    
C89   N7    1.451550 S    
O13   C5    1.288644 A    
O28   Cr4   2.066581 S    
O12   Cr8   2.083310 S    
O22   Cr10  1.971139 S    
O15   C7    1.288652 A    
C87   C88   1.444083 A    
C66   H22   1.112683 S    
O46   Cr10  1.945531 S    
O48   C24   1.302718 A    
C51   C67   1.489206 S    
C52   C68   1.493430 S    
C16   C93   1.437617 S    
C71   H27   1.110034 S    
C77   C86   1.408591 A    
C67   C71   1.519762 S    
N9    O70   1.300497 A    
C56   C76   1.398210 A    
C119  H51   1.102946 S    
C102  C118  1.480858 S    
N7    O66   1.302050 A    
H1    C33   1.079247 S    
Cr12  O52   2.006534 S    
H3    C35   1.079263 S    
C79   C83   1.385847 A    
C17   O41   1.289820 A    
C19   O43   1.268498 A    
C30   C38   1.411822 A    
C20   O44   1.292157 A    
C118  H54   1.099112 S    
Cr8   O52   2.001908 S    
C9    C73   1.481406 S    
O46   C22   1.293309 A    
C117  H53   1.107778 S    
C115  H47   1.109480 S    
C27   C31   1.438546 A    
C51   C55   1.375612 A    
H4    C36   1.084228 S    
C82   C90   1.505774 S    
C49   C53   1.375633 A    
C16   O36   1.261507 A    
C50   C54   1.383408 A    
C53   C73   1.388263 A    
O31   C15   1.279703 A    
O32   C16   1.288800 A    
O47   Cr11  1.955181 S    
C43   C44   1.382633 A    
C105  H33   1.081655 S    
C14   C95   1.447949 S    
O29   Cr1   1.945984 S    
C29   C30   1.413135 A    
C23   C123  1.446861 S    
C45   C49   1.390545 A    
C103  C119  1.481779 S    
O24   C12   1.280273 A    
C37   H5    1.076588 S    
C118  H50   1.102842 S    
O45   C21   1.300714 A    
C47   C63   1.410891 A    
O8    Cr4   1.949859 S    
C43   H11   1.068310 S    
N5    O61   1.301545 A    
C45   C61   1.410861 A    
O32   Cr4   1.964674 S    
H2    C34   1.084218 S    
C65   H19   1.112323 S    
O11   Cr7   2.094637 S    
C4    C45   1.468121 S    
C49   C65   1.489141 S    
C54   C74   1.398212 A    
C55   C71   1.475982 S    
C88   N4    1.451944 S    
O3    Cr3   2.067450 S    
Cr5   O49   2.006103 S    
C116  H48   1.101794 S    
C99   C103  1.382814 A    
C120  H56   1.107641 S    
C24   C124  1.441968 S    
C32   C40   1.411848 A    
O22   C10   1.280233 A    
C120  H52   1.100609 S    
C108  C112  1.396927 A    
C103  C123  1.390992 A    
C19   C80   1.463228 S    
C2    O10   1.282368 A    
C12   C76   1.450539 S    
C83   C84   1.357344 A    
C100  C116  1.496283 S    
O5    C1    1.308494 A    
C86   N2    1.441770 S    
C98   C114  1.493949 S    
C47   C51   1.390583 A    
O3    C11   1.310099 A    
O8    C4    1.281822 A    
C95   C111  1.405986 A    
Cr1   O49   2.008977 S    
N8    O68   1.295671 A    
Cr3   O51   2.008977 S    
C3    C46   1.457377 S    
C25   C29   1.438436 A    
O26   Cr2   2.066581 S    
C5    O17   1.260706 A    
C91   N5    1.465181 S    
O27   C23   1.269292 A    
O28   C24   1.259834 A    
O14   C6    1.265907 A    
C8    O20   1.297504 A    
N6    O63   1.300788 A    
N13   O78   1.297845 A    
O40   Cr8   1.964892 S    
C106  C122  1.389915 A    
C15   C94   1.442986 S    
N14   O80   1.295524 A    
O41   Cr9   2.086337 S    
C112  H40   1.079324 S    
C98   C102  1.380432 A    
C28   C32   1.394047 A    
C104  C120  1.500265 S    
O33   Cr5   2.059759 S    
O5    Cr1   1.969390 S    
C95   C99   1.391273 A    
C64   N16   1.449276 S    
C37   C43   1.394059 A    
C93   C97   1.391500 A    
C80   C84   1.395878 A    
N10   O72   1.298998 A    
C62   N14   1.449244 S    
C105  C109  1.398197 A    
N12   O75   1.301639 A    
Cr9   O49   2.002927 S    
C91   N11   1.475480 S    
C18   O42   1.270590 A    
Cr11  O51   2.002927 S    
O26   C22   1.269312 A    
C33   C34   1.372209 A    
O20   Cr12  2.066147 S    
N11   O73   1.302161 A    
C10   C74   1.450457 S    
C41   H9    1.068330 S    
N3    O57   1.297880 A    
C69   H25   1.110019 S    
C85   C86   1.444014 A    
C115  H43   1.107638 S    
C108  C124  1.390496 A    
C21   C121  1.446233 S    
C96   C100  1.389105 A    
C83   C91   1.503470 S    
C26   C30   1.394108 A    
C81   C89   1.512413 S    
N16   O83   1.299977 A    
O30   C14   1.281656 A    
C84   C92   1.514288 S    
C93   C109  1.409411 A    
C109  H37   1.078685 S    
C78   C82   1.389580 A    
C89   N9    1.468521 S    
C48   C52   1.387589 A    
C90   N8    1.465761 S    
O42   Cr10  2.091346 S    
C61   N13   1.437590 S    
O18   Cr10  2.066147 S    
N9    O69   1.301708 A    
C39   C41   1.394098 A    
C11   C75   1.481306 S    
C101  C121  1.396640 A    
O34   Cr6   2.075731 S    
O6    Cr2   1.949859 S    
O24   Cr12  1.971139 S    
C69   H29   1.112568 S    
O30   Cr2   1.964674 S    
O1    C9    1.310108 A    
O48   Cr12  1.945531 S    
C46   C62   1.440306 A    
C2    C47   1.468091 S    
C8    C27   1.463799 S    
C100  C104  1.398881 A    
O37   C17   1.275069 A    
C15   O35   1.275803 A    
Cr10  O50   2.006534 S    
C50   C66   1.493466 S    
O40   C20   1.270137 A    
O43   Cr11  2.086337 S    
O37   Cr5   1.973788 S    
O21   Cr9   1.964691 S    
N4    O59   1.296677 A    
O39   Cr7   1.973788 S    
C13   C96   1.431150 S    
O45   Cr9   1.955181 S    
N15   O81   1.301498 A    
C13   O33   1.262510 A    
C92   N6    1.451173 S    
O13   Cr5   1.943137 S    
C114  H42   1.107182 S    
C63   N15   1.437580 S    
O15   Cr7   1.943137 S    
C111  H39   1.068171 S    
N1    O54   1.300691 A    
C72   H28   1.110409 S    
O23   C11   1.324576 A    
C18   C77   1.462498 S    
C101  C117  1.499074 S    
N2    O55   1.298927 A    
C48   C64   1.440297 A    
C25   C34   1.390310 A    
O6    C2    1.281817 A    
C31   C39   1.417135 A    
C119  H55   1.098737 S    
O1    Cr1   2.067450 S    
C40   H8    1.082362 S    
O19   Cr11  2.073595 S    
C91   C92   1.541444 S    
O29   C13   1.286925 A    
C41   C42   1.382623 A    
C89   C90   1.541547 S    
C58   H14   1.083116 S    
C59   C75   1.418452 A    
O47   C23   1.291494 A    
C114  H46   1.109529 S    
C87   N3    1.441996 S    
C17   C78   1.470131 S    
C90   N10   1.475493 S    
C81   C82   1.357494 A    
C6    O18   1.297507 A    
C28   C35   1.401795 A    
C35   C36   1.372148 A    
C20   C79   1.468667 S    
O36   Cr8   2.075731 S    
C79   C88   1.450010 A    
O38   Cr6   1.964892 S    
C80   C87   1.406943 A    
C115  C119  1.485812 S    
C65   H21   1.111268 S    
C106  H34   1.078918 S    
C68   C72   1.511825 S    
O23   Cr11  1.964691 S    
C38   C44   1.383029 A    
O7    C3    1.308483 A    
C38   H6    1.082311 S    
C57   H13   1.075596 S    
N11   O74   1.298732 A    
C117  H49   1.099845 S    
C60   H16   1.083109 S    
N3    O58   1.300497 A    
C5    C26   1.445312 S    
C58   C74   1.388866 A    
C1    C48   1.457418 S    
C59   H15   1.075649 S    
C7    C28   1.445178 S    
C104  C124  1.397388 A    
C116  C120  1.494216 S    
C26   C33   1.401811 A    
C40   C42   1.382986 A    
C7    O19   1.260644 A    
Cr4   O52   2.009064 S    
O2    Cr2   2.086401 S    
O14   Cr6   1.956353 S    
Cr6   O50   2.001908 S    
C70   H26   1.110433 S    
C108  H36   1.081440 S    
C96   C112  1.408720 A    
C52   C56   1.383435 A    
C78   C85   1.448575 A    
C71   H31   1.112578 S    
C67   H17   1.112336 S    
O35   Cr7   2.059759 S    
O9    Cr5   2.094637 S    
C107  H35   1.078918 S    
C56   C72   1.484818 S    
O16   C8    1.265856 A    
C57   C73   1.418469 A    
N6    O64   1.301940 A    
O7    Cr3   1.969390 S    
N13   O77   1.301484 A    
C114  C118  1.484875 S    
C107  C111  1.396586 A    
N5    O62   1.295323 A    
C46   C50   1.387584 A    
C99   C115  1.493526 S    
C97   C113  1.496898 S    
C31   C32   1.413164 A    
C77   C81   1.392870 A    
C113  H41   1.100099 S    
Cr2   O50   2.009064 S    
C39   H7    1.076551 S    
O27   Cr3   2.087397 S    
C70   H30   1.110926 S    
C6    C25   1.463811 S    
N12   O76   1.300495 A    
C68   H18   1.111743 S    
C27   C36   1.390306 A    
O38   C18   1.292721 A    
O25   Cr1   2.087397 S    
C66   H20   1.111744 S    
C58   C62   1.395171 A    
C14   O34   1.273902 A    
C107  C123  1.392427 A    
C105  C121  1.390657 A    
C97   C101  1.401188 A    
C72   H32   1.110926 S    
N16   O84   1.295498 A    
O10   Cr6   2.083310 S    
C113  H45   1.102617 S    
O4    Cr4   2.086401 S    
N8    O67   1.301556 A    
C94   C98   1.389646 A    
C106  C110  1.394308 A    
