data_mof_unit_23352.cif
_audit_creation_date              2012-12-10T18:06:48-0500
_audit_creation_method            fapswitch 2.2
_symmetry_space_group_name_H-M    P1
_symmetry_Int_Tables_number       1
_space_group_crystal_system       triclinic
_cell_length_a                    12.582297
_cell_length_b                    13.083687
_cell_length_c                    15.395179
_cell_angle_alpha                 83.454656
_cell_angle_beta                  99.718296
_cell_angle_gamma                 98.018345
_cell_volume                      2462.96311054

loop_
_atom_site_label
_atom_site_type_symbol
_atom_type_description
_atom_site_fract_x
_atom_site_fract_y
_atom_site_fract_z
_atom_type_partial_charge
C1    C     C_R   0.443635 0.307925 0.512526 0.836869
C2    C     C_R   0.599441 0.364686 0.932462 0.118858
C3    C     C_R   0.544294 0.451794 0.900770 0.006178
C4    C     C_R   0.434640 0.512786 0.335948 0.856873
C5    C     C_R   0.652561 0.320555 0.876212 -0.152003
C6    C     C_R   0.643651 0.356818 0.786473 -0.075330
C7    C     C_R   0.563221 0.505094 0.819183 -0.055479
C8    C     C_R   0.615712 0.942329 0.357491 -0.203915
C9    C     C_R   0.585228 0.801762 0.469355 -0.029288
C10   C     C_R   0.366051 0.158643 0.609452 0.143263
C11   C     C_R   0.364449 0.052534 0.639472 0.248521
C12   C     C_R   0.419733 0.487886 0.095086 0.068283
C13   C     C_R   0.416622 0.989367 0.597449 -0.230361
C14   C     C_R   0.465156 0.026773 0.521730 0.044134
C15   C     C_R   0.453498 0.128626 0.484505 0.054040
C16   C     C_R   0.556708 0.691698 0.488897 0.891649
C17   C     C_R   0.524029 0.965792 0.481032 0.103779
C18   C     C_R   0.561322 0.004046 0.399825 0.175108
C19   C     C_R   0.539994 0.101466 0.360076 -0.241561
C20   C     C_R   0.485562 0.162395 0.401105 -0.169240
C21   C     C_R   0.544772 0.866481 0.517451 -0.241159
C22   C     C_R   0.625558 0.840218 0.391282 -0.147630
C23   C     C_R   0.338811 0.552787 0.056571 0.130586
C24   C     C_R   0.413520 0.196552 0.532420 -0.171013
C25   C     C_R   0.144076 0.591863 0.654734 -0.209884
C26   C     C_R   0.753664 0.392606 0.385481 0.037458
C27   C     C_R   0.846348 0.360480 0.364936 -0.242363
C28   C     C_R   0.563443 0.481165 0.663765 0.896223
C29   C     C_R   0.946260 0.386909 0.416403 -0.171704
C30   C     C_R   0.953167 0.444879 0.489414 0.024920
C31   C     C_R   0.856255 0.473873 0.509361 0.232220
C32   C     C_R   0.052777 0.484541 0.538428 -0.041582
C33   C     C_R   0.051921 0.529373 0.618055 0.125567
C34   C     C_R   0.477729 0.443288 0.041134 0.101859
C35   C     C_R   0.953307 0.527536 0.649251 -0.123197
C36   C     C_R   0.861276 0.527835 0.584946 -0.151487
C37   C     C_R   0.152128 0.490639 0.507436 -0.077272
C38   C     C_R   0.235589 0.607781 0.613446 0.316317
C39   C     C_R   0.393892 0.520536 0.241192 -0.047661
C40   C     C_R   0.596473 0.450069 0.757580 -0.162693
C41   C     C_R   0.280947 0.596113 0.112545 -0.005899
C42   C     C_R   0.308061 0.577097 0.204565 -0.287496
C43   C     C_R   0.446760 0.474772 0.186853 -0.263807
C44   C     C_3   0.322398 0.231792 0.660872 -0.819712
C45   C     C_R   0.471603 0.481187 0.951295 0.057709
C46   C     C_3   0.312112 0.005225 0.718558 -0.862139
C47   C     C_3   0.324654 0.691728 0.640662 -0.850060
C48   C     C_2   0.566574 0.620460 0.804928 0.345786
C49   C     C_2   0.945911 0.545968 0.741691 0.419600
C50   C     C_2   0.814329 0.625648 0.576483 0.504764
C51   C     C_2   0.678472 0.292467 0.725228 0.408421
C52   C     C_2   0.195922 0.665573 0.080441 0.396267
C53   C     C_R   0.386281 0.538784 0.912473 -0.274673
C54   C     C_R   0.318699 0.571050 0.963891 -0.140473
C55   C     C_R   0.539964 0.360884 0.073559 -0.216458
C56   C     C_R   0.597225 0.320272 0.018865 -0.206031
H1    H     H_    0.252766 0.611854 0.929641 0.222611
H2    H     H_    0.161926 0.450469 0.452485 0.135925
H3    H     H_    0.675701 0.370772 0.346317 0.127629
H4    H     H_    0.016370 0.359909 0.398889 0.140274
H5    H     H_    0.840702 0.315095 0.309407 0.151019
H6    H     H_    0.639626 0.253793 0.044232 0.144642
H7    H     H_    0.266776 0.612238 0.247749 0.157014
H8    H     H_    0.514108 0.433740 0.217523 0.147889
H9    H     H_    0.368953 0.556419 0.841434 0.165171
H10   H     H_    0.539678 0.321613 0.139137 0.133417
H11   H     H_    0.291048 0.194407 0.721130 0.240681
H12   H     H_    0.691429 0.251612 0.900414 0.184115
H13   H     H_    0.388014 0.293494 0.683083 0.230261
H14   H     H_    0.253827 0.266793 0.618470 0.257212
H15   H     H_    0.355060 0.040559 0.779092 0.248149
H16   H     H_    0.225181 0.017761 0.707341 0.252648
H17   H     H_    0.315241 0.920319 0.730720 0.234767
H18   H     H_    0.401876 0.660538 0.664913 0.292670
H19   H     H_    0.333360 0.749051 0.582748 0.240163
H20   H     H_    0.306209 0.733081 0.694412 0.197923
H21   H     H_    0.544056 0.663432 0.853765 0.099661
H22   H     H_    0.871549 0.567504 0.757321 0.070372
H23   H     H_    0.656905 0.789582 0.353382 0.169222
H24   H     H_    0.769834 0.642836 0.626520 0.078622
H25   H     H_    0.645912 0.297271 0.655523 0.103818
H26   H     H_    0.130987 0.665874 0.118719 0.074231
H27   H     H_    0.565090 0.130605 0.296936 0.137341
H28   H     H_    0.644087 0.970795 0.295474 0.144523
H29   H     H_    0.523436 0.833487 0.580428 0.164899
H30   H     H_    0.416529 0.910414 0.625292 0.150391
H31   H     H_    0.468894 0.236802 0.366814 0.143817
H32   H     H_    0.141610 0.636781 0.709058 0.184645
N1    N     N_R   0.239390 0.551900 0.544730 -0.103118
N2    N     N_R   0.759950 0.448600 0.455730 -0.124283
O1    O     O_R   0.374950 0.371210 0.521360 -0.607992
O2    O     O_2   0.020068 0.531232 0.802184 -0.557549
O3    O     O_2   0.833284 0.692255 0.516812 -0.563651
O4    O     O_2   0.743389 0.230572 0.752813 -0.548884
O5    O     O_2   0.200713 0.727622 0.015331 -0.565322
O6    O     O_R   0.542050 0.338030 0.492790 -0.619902
O7    O     O_R   0.368720 0.526070 0.390200 -0.611933
O8    O     O_R   0.535820 0.492890 0.361630 -0.626545
O9    O     O_R   0.457950 0.661970 0.507210 -0.605660
O10   O     O_R   0.625050 0.628790 0.478640 -0.585114
O11   O     O_R   0.464180 0.507110 0.638370 -0.595123
O12   O     O_R   0.631280 0.473930 0.609800 -0.663487
O13   O     O_2   0.601703 0.669947 0.741426 -0.608544
Zn1   Zn    Zn3+2 0.388420 0.522150 0.519080 0.940637
Zn2   Zn    Zn3+2 0.611580 0.477850 0.480920 0.947064

loop_
_geom_bond_atom_site_label_1
_geom_bond_atom_site_label_2
_ccdc_geom_bond_type
C55   C56   A    
C4    O8    A    
C27   C29   A    
C41   C42   A    
C19   C20   A    
O1    Zn1   S    
O6    Zn2   S    
C53   C54   A    
C38   N1    A    
O10   Zn2   S    
O8    Zn2   S    
C52   O5    D    
C9    C16   S    
C47   H20   S    
C12   C43   A    
C3    C7    A    
C31   C36   A    
C30   C31   A    
C9    C22   A    
C28   C40   S    
C20   H31   S    
C49   H22   S    
O12   Zn2   S    
C18   C19   A    
C27   H5    S    
C28   O11   A    
C35   C36   A    
C13   H30   S    
C35   C49   S    
C8    C22   A    
C7    C40   A    
C29   H4    S    
C44   H14   S    
C6    C51   S    
C53   H9    S    
C26   H3    S    
C51   H25   S    
C41   C52   S    
C46   H16   S    
C37   H2    S    
O9    Zn1   S    
C45   C53   A    
C34   C55   A    
C1    O1    A    
C13   C14   A    
C14   C17   A    
C5    H12   S    
C19   H27   S    
C43   H8    S    
C39   C42   A    
C15   C20   A    
C21   H29   S    
C10   C44   S    
N2    Zn2   S    
C16   O10   A    
C39   C43   A    
C10   C24   A    
C48   O13   D    
C3    C45   A    
C25   H32   S    
C8    C18   A    
C48   H21   S    
C29   C30   A    
C25   C38   A    
C12   C23   A    
C4    C39   S    
C31   N2    A    
C17   C18   A    
C46   H15   S    
C44   H13   S    
C16   O9    A    
C34   C45   A    
C32   C37   A    
C52   H26   S    
C38   C47   S    
C15   C24   A    
O11   Zn1   S    
N1    Zn1   S    
C26   C27   A    
C56   H6    S    
C2    C5    A    
C49   O2    D    
C12   C34   A    
C55   H10   S    
C36   C50   S    
C23   C54   A    
C8    H28   S    
C47   H18   S    
C11   C46   S    
C50   H24   S    
C22   H23   S    
C50   O3    D    
C26   N2    A    
C23   C41   A    
C37   N1    A    
C7    C48   S    
C2    C3    A    
C47   H19   S    
C2    C56   A    
C32   C33   A    
C30   C32   A    
C11   C13   A    
C9    C21   A    
C5    C6    A    
C1    O6    A    
C33   C35   A    
C6    C40   A    
C17   C21   A    
O7    Zn1   S    
C10   C11   A    
C51   O4    D    
C28   O12   A    
C1    C24   S    
C14   C15   A    
C44   H11   S    
C4    O7    A    
C42   H7    S    
C46   H17   S    
C25   C33   A    
C54   H1    S    
