data_mof_unit_63630.cif
_audit_creation_date              2012-12-10T19:30:41-0500
_audit_creation_method            fapswitch 2.2
_symmetry_space_group_name_H-M    P1
_symmetry_Int_Tables_number       1
_space_group_crystal_system       triclinic
_cell_length_a                    14.936961
_cell_length_b                    15.757614
_cell_length_c                    16.802692
_cell_angle_alpha                 89.956058
_cell_angle_beta                  84.278495
_cell_angle_gamma                 89.986631
_cell_volume                      3935.16070139

loop_
_atom_site_label
_atom_site_type_symbol
_atom_type_description
_atom_site_fract_x
_atom_site_fract_y
_atom_site_fract_z
_atom_type_partial_charge
Br1   Br    Br    0.614713 0.648105 0.716435 -0.439671
Br2   Br    Br    0.388169 0.347296 0.287622 -0.442744
Br3   Br    Br    0.604759 0.397005 0.940810 -0.390718
Br4   Br    Br    0.393590 0.594094 0.060145 -0.391410
Br5   Br    Br    0.316746 0.403219 0.928602 -0.390417
Br6   Br    Br    0.680578 0.591749 0.068756 -0.393084
Br7   Br    Br    0.705686 0.070240 0.457849 -0.427989
Br8   Br    Br    0.294303 0.929776 0.541993 -0.428007
C1    C     C_R   0.500002 0.662443 0.500080 0.914195
C2    C     C_3   0.584303 0.027951 0.482720 0.303528
C3    C     C_3   0.500079 0.916922 0.500233 0.014136
C4    C     C_3   0.499913 0.083086 0.499609 0.014018
C5    C     C_1   0.500073 0.826230 0.500383 0.046337
C6    C     C_1   0.499926 0.173776 0.499498 0.047086
C7    C     C_3   0.034149 0.570591 0.463983 -0.132289
C8    C     C_3   0.965850 0.429405 0.536027 -0.131982
C9    C     C_3   0.978365 0.502241 0.424393 -0.136836
C10   C     C_3   0.021634 0.497755 0.575617 -0.136542
C11   C     C_3   0.965419 0.568351 0.539589 -0.123906
C12   C     C_R   0.499998 0.337558 0.499924 0.915203
C13   C     C_3   0.034579 0.431645 0.460420 -0.124013
C14   C     C_3   0.910762 0.500003 0.499999 0.072170
C15   C     C_3   0.089237 0.499994 0.500010 0.072153
C16   C     C_R   0.486923 0.503397 0.653203 0.922342
C17   C     C_R   0.513074 0.496390 0.346835 0.922067
C18   C     C_1   0.810318 0.500006 0.499988 0.113966
C19   C     C_1   0.189681 0.499992 0.500017 0.113751
C20   C     C_R   0.476375 0.515227 0.738883 -0.152166
C21   C     C_R   0.523587 0.482420 0.261464 -0.150490
C22   C     C_R   0.529640 0.574453 0.775539 0.270634
C23   C     C_3   0.447603 0.028258 0.444025 -0.252471
C24   C     C_R   0.471574 0.420859 0.226459 0.269818
C25   C     C_R   0.520347 0.581390 0.858166 -0.153238
C26   C     C_R   0.480809 0.411532 0.144034 -0.153545
C27   C     C_R   0.459029 0.529814 0.903868 0.013749
C28   C     C_R   0.540866 0.463025 0.096930 0.013862
C29   C     C_R   0.401683 0.474900 0.867387 0.339479
C30   C     C_R   0.597297 0.520133 0.131916 0.338833
C31   C     C_R   0.410226 0.468346 0.784622 -0.253080
C32   C     C_R   0.588789 0.529111 0.214481 -0.252025
C33   C     C_2   0.468323 0.522452 0.988305 0.211649
C34   C     C_3   0.552389 0.971752 0.555817 -0.253088
C35   C     C_2   0.530215 0.468806 0.012615 0.210561
C36   C     C_1   0.567902 0.939997 0.349307 0.278316
C37   C     C_1   0.432091 0.060015 0.650534 0.278292
C38   C     C_3   0.532307 0.972159 0.428103 -0.081569
C39   C     C_3   0.467686 0.027848 0.571739 -0.081688
C40   C     C_1   0.500015 0.751126 0.500298 -0.113529
C41   C     C_1   0.499988 0.248878 0.499640 -0.111743
C42   C     C_3   0.415689 0.972058 0.517121 0.303450
H1    H     H_    0.062275 0.629004 0.434171 0.167350
H2    H     H_    0.594846 0.947341 0.601388 0.200545
H3    H     H_    0.960598 0.504094 0.361823 0.165876
H4    H     H_    0.039401 0.495902 0.638186 0.165961
H5    H     H_    0.937723 0.370992 0.565839 0.167440
H6    H     H_    0.063075 0.375092 0.427659 0.170652
H7    H     H_    0.936924 0.624904 0.572351 0.170672
H8    H     H_    0.630277 0.575044 0.241724 0.189789
H9    H     H_    0.367893 0.424116 0.756184 0.190375
H10   H     H_    0.437627 0.367531 0.116259 0.211483
H11   H     H_    0.564211 0.623721 0.887138 0.212942
H12   H     H_    0.405148 0.052674 0.398453 0.200922
N1    N     N_1   0.731990 0.500000 0.499970 -0.071982
N2    N     N_1   0.268010 0.500000 0.500030 -0.071973
N3    N     N_1   0.595973 0.914594 0.287192 -0.130112
N4    N     N_1   0.404021 0.085422 0.712648 -0.129483
O1    O     O_R   0.425540 0.623220 0.500000 -0.604162
O2    O     O_R   0.574460 0.376780 0.500000 -0.604463
O3    O     O_R   0.574480 0.623220 0.499990 -0.596273
O4    O     O_R   0.425520 0.376780 0.500010 -0.595390
O5    O     O_R   0.416730 0.500010 0.615810 -0.622829
O6    O     O_R   0.583270 0.499990 0.384190 -0.622360
O7    O     O_R   0.565670 0.500010 0.615790 -0.572155
O8    O     O_R   0.434330 0.499990 0.384210 -0.572184
Zn1   Zn    Zn3+2 0.400550 0.500000 0.500010 1.038998
Zn2   Zn    Zn3+2 0.599450 0.500000 0.499990 1.039010

loop_
_geom_bond_atom_site_label_1
_geom_bond_atom_site_label_2
_ccdc_geom_bond_type
Br7   C2    S    
C30   C32   A    
C8    C13   S    
Br5   C29   S    
C2    C34   S    
O6    Zn2   S    
C11   H7    S    
C7    C11   S    
Br3   C35   S    
O3    Zn2   S    
C27   C29   A    
C1    O3    A    
C17   O8    A    
C21   C24   A    
C16   O7    A    
C6    C41   T    
Br4   C33   S    
C3    C34   S    
Br2   C24   S    
C10   C11   S    
C23   C38   S    
C2    C38   S    
Br6   C30   S    
C7    H1    S    
C7    C15   S    
C9    H3    S    
C26   H10   S    
C33   C35   D    
C23   H12   S    
C12   O4    A    
C36   N3    T    
C4    C39   S    
C36   C38   S    
C39   C42   S    
C37   C39   S    
C17   C21   S    
C32   H8    S    
O8    Zn1   S    
C10   C15   S    
C11   C14   S    
C20   C31   A    
C9    C13   S    
C24   C26   A    
C18   N1    T    
C1    O1    A    
C12   C41   S    
C5    C40   T    
C31   H9    S    
C17   O6    A    
C2    C4    S    
C25   H11   S    
C4    C6    S    
C15   C19   S    
C13   C15   S    
C4    C23   S    
O7    Zn2   S    
O1    Zn1   S    
C23   C42   S    
Br8   C42   S    
O4    Zn1   S    
C7    C9    S    
C8    C14   S    
C22   C25   A    
C12   O2    A    
C16   C20   S    
C28   C35   S    
C13   H6    S    
O2    Zn2   S    
C9    C14   S    
C20   C22   A    
C8    H5    S    
C29   C31   A    
C3    C42   S    
O5    Zn1   S    
C3    C5    S    
C21   C32   A    
C28   C30   A    
Br1   C22   S    
C25   C27   A    
N2    Zn1   S    
C26   C28   A    
C34   C39   S    
C27   C33   S    
C19   N2    T    
C10   H4    S    
C1    C40   S    
C8    C10   S    
C14   C18   S    
C37   N4    T    
N1    Zn2   S    
C3    C38   S    
C16   O5    A    
C34   H2    S    
