data_mof_unit_56944.cif
_audit_creation_date              2012-12-10T19:49:22-0500
_audit_creation_method            fapswitch 2.2
_symmetry_space_group_name_H-M    P1
_symmetry_Int_Tables_number       1
_space_group_crystal_system       triclinic
_cell_length_a                    14.850047
_cell_length_b                    14.215409
_cell_length_c                    14.902279
_cell_angle_alpha                 90.057234
_cell_angle_beta                  90.01681
_cell_angle_gamma                 89.921277
_cell_volume                      3145.85885011

loop_
_atom_site_label
_atom_site_type_symbol
_atom_type_description
_atom_site_fract_x
_atom_site_fract_y
_atom_site_fract_z
_atom_type_partial_charge
C1    C     C_R   0.327271 0.500084 0.502257 0.940396
C2    C     C_R   0.672574 0.499906 0.501620 0.939334
C3    C     C_R   0.336075 0.534692 0.045511 -0.257399
C4    C     C_R   0.663524 0.531938 0.954339 -0.270143
C5    C     C_R   0.088488 0.581083 0.508904 0.464860
C6    C     C_R   0.912713 0.425506 0.495399 0.479659
C7    C     C_R   0.897759 0.563736 0.592764 0.477108
C8    C     C_R   0.100935 0.429588 0.586123 0.486774
C9    C     C_R   0.180565 0.579537 0.493003 -0.270785
C10   C     C_R   0.820336 0.425955 0.482016 -0.299594
C11   C     C_R   0.806327 0.567404 0.572272 -0.303031
C12   C     C_R   0.191370 0.425987 0.563634 -0.262853
C13   C     C_R   0.231203 0.500685 0.517254 -0.191767
C14   C     C_R   0.768340 0.499352 0.516224 -0.186996
C15   C     C_R   0.048453 0.504751 0.553899 -0.077345
C16   C     C_R   0.951389 0.495844 0.550154 -0.080428
C17   C     C_R   0.473199 0.104693 0.423796 0.496775
C18   C     C_R   0.573924 0.894860 0.532883 0.498037
C19   C     C_R   0.526531 0.104642 0.576038 0.498628
C20   C     C_R   0.426032 0.894870 0.466667 0.504504
C21   C     C_R   0.471746 0.203675 0.426047 0.476731
C22   C     C_R   0.571744 0.795880 0.534093 0.503184
C23   C     C_R   0.527982 0.203618 0.573963 0.475932
C24   C     C_R   0.428294 0.795851 0.465627 0.513509
C25   C     C_R   0.499900 0.052958 0.499860 -0.184595
C26   C     C_R   0.499940 0.946552 0.499793 -0.197163
C27   C     C_R   0.498999 0.499977 0.326960 0.989125
C28   C     C_R   0.500948 0.500039 0.673010 0.992874
C29   C     C_R   0.583605 0.510096 0.813996 0.399972
C30   C     C_R   0.415807 0.511567 0.186066 0.407171
C31   C     C_R   0.501291 0.500909 0.768674 -0.300234
C32   C     C_R   0.498178 0.500683 0.231232 -0.301773
C33   C     C_R   0.418686 0.498106 0.813610 0.410979
C34   C     C_R   0.580614 0.496905 0.186039 0.406861
C35   C     C_R   0.417174 0.516751 0.905922 -0.110840
C36   C     C_R   0.582169 0.515752 0.093853 -0.108564
C37   C     C_R   0.499826 0.521257 0.953020 -0.088485
C38   C     C_R   0.499570 0.521365 0.046851 -0.087118
C39   C     C_R   0.582838 0.521355 0.906755 -0.012992
C40   C     C_R   0.416627 0.522820 0.093196 -0.020578
C41   C     C_R   0.335903 0.530835 0.952547 0.619069
C42   C     C_R   0.663646 0.528298 0.047225 0.619359
H1    H     H_    0.272355 0.543224 0.079886 0.208933
H2    H     H_    0.727286 0.539605 0.919948 0.198998
H3    H     H_    0.211748 0.638829 0.459720 0.244250
H4    H     H_    0.789786 0.370543 0.442427 0.184086
H5    H     H_    0.764754 0.621762 0.601843 0.243997
H6    H     H_    0.230773 0.365988 0.584946 0.184340
N1    N     N_R   0.500000 0.252470 0.500000 -0.249959
N2    N     N_R   0.500000 0.747530 0.500000 -0.261628
O1    O     O_R   0.369060 0.579480 0.500010 -0.546787
O2    O     O_R   0.630940 0.420520 0.499990 -0.629846
O3    O     O_R   0.630940 0.579480 0.499990 -0.555772
O4    O     O_R   0.369060 0.420520 0.500010 -0.634190
O5    O     O_R   0.499980 0.579490 0.367850 -0.574916
O6    O     O_R   0.500020 0.420510 0.632150 -0.605101
O7    O     O_R   0.500020 0.579490 0.632150 -0.577133
O8    O     O_R   0.499980 0.420510 0.367850 -0.604833
Zn1   Zn    Zn3+2 0.500000 0.606140 0.500000 1.097106
Zn2   Zn    Zn3+2 0.500000 0.393860 0.500000 1.003443
O9    O     O_3   0.664771 0.508657 0.767707 -0.664525
C43   C     C_3   0.688164 0.414680 0.745387 0.084638
H7    H     H_    0.721644 0.415766 0.678964 0.186007
H8    H     H_    0.629268 0.367017 0.739083 0.213903
C44   C     C_3   0.753477 0.372834 0.814073 -0.440756
H9    H     H_    0.810867 0.421402 0.824656 0.216825
H10   H     H_    0.718207 0.362727 0.879033 0.229053
C45   C     C_3   0.789335 0.277769 0.782535 -0.823879
H11   H     H_    0.732843 0.228047 0.770994 0.308425
H12   H     H_    0.834332 0.247756 0.834687 0.259059
H13   H     H_    0.828148 0.286131 0.719321 0.267628
O10   O     O_3   0.334695 0.513625 0.232576 -0.639755
C46   C     C_3   0.309288 0.421187 0.257875 0.090698
H14   H     H_    0.271003 0.426289 0.321715 0.166670
H15   H     H_    0.367509 0.374179 0.270837 0.214538
C47   C     C_3   0.248888 0.375403 0.186957 -0.435066
H16   H     H_    0.188074 0.419547 0.176317 0.234218
H17   H     H_    0.285910 0.369296 0.122538 0.227669
C48   C     C_3   0.220600 0.276737 0.215596 -0.828832
H18   H     H_    0.280694 0.230670 0.222529 0.312276
H19   H     H_    0.175344 0.245955 0.164067 0.254314
H20   H     H_    0.184449 0.279252 0.280666 0.253853
O11   O     O_3   0.340663 0.479892 0.765118 -0.593796
C49   C     C_3   0.307397 0.388746 0.785856 0.103598
H21   H     H_    0.236550 0.385997 0.762739 0.184625
H22   H     H_    0.305941 0.374146 0.859200 0.146140
C50   C     C_3   0.360271 0.310831 0.737722 -0.401730
H23   H     H_    0.362346 0.325379 0.664713 0.261507
H24   H     H_    0.430202 0.308475 0.764082 0.262396
C51   C     C_3   0.317172 0.214655 0.751745 -0.875519
H25   H     H_    0.311903 0.198539 0.824473 0.267701
H26   H     H_    0.359265 0.159764 0.719162 0.297221
H27   H     H_    0.249098 0.212961 0.720971 0.260820
O12   O     O_3   0.658736 0.477410 0.233892 -0.601187
C52   C     C_3   0.690959 0.386073 0.211820 0.112302
H28   H     H_    0.764571 0.385716 0.223389 0.188150
H29   H     H_    0.681380 0.366837 0.139923 0.135162
C53   C     C_3   0.647831 0.310792 0.271206 -0.402313
H30   H     H_    0.655649 0.330462 0.342857 0.254675
H31   H     H_    0.575110 0.305769 0.254808 0.275725
C54   C     C_3   0.690636 0.214466 0.256164 -0.878267
H32   H     H_    0.683279 0.192804 0.184902 0.272813
H33   H     H_    0.656582 0.161632 0.299212 0.287516
H34   H     H_    0.763175 0.216140 0.274076 0.253060
F1    F     F_    0.256148 0.540708 0.908893 -0.656999
F2    F     F_    0.743580 0.536744 0.090776 -0.657092
O13   O     O_3   0.038033 0.658724 0.483831 -0.561417
C55   C     C_3   0.018245 0.652940 0.391266 0.074496
H35   H     H_    0.979579 0.588023 0.375588 0.117829
H36   H     H_    0.081231 0.653421 0.350689 0.129534
C56   C     C_3   0.961398 0.737718 0.363234 -0.338108
H37   H     H_    0.997575 0.803694 0.380542 0.250077
H38   H     H_    0.951708 0.735917 0.289287 0.188449
C57   C     C_3   0.869107 0.737676 0.408542 -0.652352
H39   H     H_    0.832150 0.671897 0.392366 0.242392
H40   H     H_    0.828990 0.798432 0.384096 0.243320
H41   H     H_    0.876537 0.744039 0.482442 0.303900
O14   O     O_3   0.962535 0.350787 0.461829 -0.596623
C58   C     C_3   0.004666 0.375399 0.379906 0.106932
H42   H     H_    0.053693 0.318782 0.364324 0.185009
H43   H     H_    0.044650 0.440958 0.385349 0.094009
C59   C     C_3   0.937286 0.381809 0.302036 -0.421206
H44   H     H_    0.897243 0.315974 0.299038 0.233502
H45   H     H_    0.891023 0.442171 0.312919 0.225767
C60   C     C_3   0.984867 0.396330 0.212474 -0.905539
H46   H     H_    0.025995 0.461518 0.214437 0.260899
H47   H     H_    0.934051 0.403207 0.158179 0.284359
H48   H     H_    0.028747 0.335190 0.197065 0.267771
O15   O     O_3   0.937200 0.628523 0.650304 -0.597251
C61   C     C_3   0.895132 0.625414 0.735468 0.068457
H49   H     H_    0.869770 0.553806 0.752441 0.125625
H50   H     H_    0.837697 0.675690 0.736740 0.197222
C62   C     C_3   0.963290 0.653830 0.807282 -0.322721
H51   H     H_    0.023589 0.607677 0.802436 0.239971
H52   H     H_    0.984773 0.727718 0.795835 0.253530
C63   C     C_3   0.923331 0.645059 0.901277 -0.871244
H53   H     H_    0.862570 0.690215 0.907812 0.276952
H54   H     H_    0.973839 0.667780 0.951757 0.280431
H55   H     H_    0.904753 0.570802 0.915202 0.258187
O16   O     O_3   0.064299 0.356403 0.635277 -0.605764
C64   C     C_3   0.038759 0.389813 0.721163 0.071722
H56   H     H_    0.968532 0.416653 0.718481 0.147138
H57   H     H_    0.083613 0.447218 0.746210 0.149971
C65   C     C_3   0.042689 0.308719 0.788273 -0.324297
H58   H     H_    0.992771 0.254175 0.769099 0.242486
H59   H     H_    0.110589 0.276042 0.786687 0.223721
C66   C     C_3   0.023484 0.342635 0.883630 -0.947832
H60   H     H_    0.075805 0.393595 0.905406 0.287599
H61   H     H_    0.024275 0.281770 0.930253 0.271419
H62   H     H_    0.956421 0.376935 0.887279 0.263973
F3    F     F_    0.450302 0.060140 0.346502 -0.560294
F4    F     F_    0.649192 0.939468 0.562126 -0.556143
F5    F     F_    0.549257 0.060042 0.653309 -0.560581
F6    F     F_    0.350785 0.939518 0.437223 -0.549348
F7    F     F_    0.441362 0.250138 0.353151 -0.648343
F8    F     F_    0.642318 0.748579 0.569723 -0.606920
F9    F     F_    0.557680 0.250031 0.647183 -0.647161
F10   F     F_    0.357938 0.748445 0.429739 -0.590122

loop_
_geom_bond_atom_site_label_1
_geom_bond_atom_site_label_2
_ccdc_geom_bond_type
C38   C40   A    
C50   H23   S    
C9    H3    S    
C54   H32   S    
O5    Zn1   S    
C46   H14   S    
C36   C42   A    
C52   H28   S    
C18   C26   A    
C47   C48   S    
C12   H6    S    
C21   N1    A    
C57   H39   S    
C28   O6    A    
C52   C53   S    
O4    Zn2   S    
C28   O7    A    
C7    C11   A    
C30   O10   S    
C3    H1    S    
C37   C38   A    
N1    Zn2   S    
C41   F1    S    
N2    Zn1   S    
C66   H61   S    
C47   H17   S    
C64   H57   S    
C11   C14   A    
C24   F10   S    
O7    Zn1   S    
O8    Zn2   S    
C15   C16   S    
C55   H35   S    
C9    C13   A    
O14   C58   S    
C43   H8    S    
O2    Zn2   S    
C66   H60   S    
C11   H5    S    
C20   C24   A    
C45   H11   S    
C44   H10   S    
C10   H4    S    
C62   C63   S    
O13   C55   S    
C49   C50   S    
C34   C36   A    
O9    C43   S    
O3    Zn1   S    
C22   N2    A    
C54   H33   S    
C46   H15   S    
C65   C66   S    
C17   F3    S    
C63   H55   S    
C18   F4    S    
C47   H16   S    
C58   H43   S    
C24   N2    A    
C29   O9    S    
C7    O15   S    
C66   H62   S    
C49   H21   S    
C65   H59   S    
C10   C14   A    
C64   C65   S    
C48   H19   S    
C19   C23   A    
C65   H58   S    
C22   F8    S    
C4    H2    S    
C25   C26   S    
C20   F6    S    
C27   O8    A    
C17   C21   A    
O6    Zn2   S    
C32   C34   A    
C61   H50   S    
C1    O4    A    
C5    C9    A    
C43   H7    S    
C60   H48   S    
C42   F2    S    
C51   H26   S    
O11   C49   S    
C4    C39   A    
C8    C12   A    
C44   C45   S    
C29   C39   A    
C31   C33   A    
C21   F7    S    
C30   C40   A    
C56   H38   S    
O16   C64   S    
C33   O11   S    
C35   C41   A    
C2    O2    A    
C63   H54   S    
C7    C16   A    
C3    C40   A    
C44   H9    S    
C54   H34   S    
C53   H31   S    
C50   H24   S    
C62   H51   S    
C19   F5    S    
C46   C47   S    
C61   C62   S    
C1    C13   S    
C59   H45   S    
C51   H27   S    
C62   H52   S    
O15   C61   S    
C5    O13   S    
C58   C59   S    
C43   C44   S    
C3    C41   A    
C56   H37   S    
C35   C37   A    
C27   C32   S    
C18   C22   A    
C28   C31   S    
C34   O12   S    
C49   H22   S    
O10   C46   S    
C20   C26   A    
C2    O3    A    
C6    C10   A    
C48   H20   S    
C57   H40   S    
C58   H42   S    
C52   H29   S    
C8    C15   A    
C53   C54   S    
C1    O1    A    
C55   C56   S    
C8    O16   S    
C17   C25   A    
C59   C60   S    
C36   C38   A    
C61   H49   S    
C29   C31   A    
C64   H56   S    
C30   C32   A    
C51   H25   S    
C60   H46   S    
C4    C42   A    
C45   H13   S    
C23   F9    S    
C33   C35   A    
C55   H36   S    
C56   C57   S    
C27   O5    A    
O12   C52   S    
C2    C14   S    
C5    C15   A    
C57   H41   S    
C23   N1    A    
C19   C25   A    
C6    C16   A    
C48   H18   S    
O1    Zn1   S    
C12   C13   A    
C37   C39   A    
C53   H30   S    
C50   C51   S    
C60   H47   S    
C45   H12   S    
C63   H53   S    
C59   H44   S    
C6    O14   S    
