data_mof_unit_65764.cif
_audit_creation_date              2012-12-10T17:59:39-0500
_audit_creation_method            fapswitch 2.2
_symmetry_space_group_name_H-M    P1
_symmetry_Int_Tables_number       1
_space_group_crystal_system       triclinic
_cell_length_a                    18.2456
_cell_length_b                    18.245787
_cell_length_c                    34.473564
_cell_angle_alpha                 89.999827
_cell_angle_beta                  89.999824
_cell_angle_gamma                 90.015345
_cell_volume                      11476.4328324

loop_
_atom_site_label
_atom_site_type_symbol
_atom_type_description
_atom_site_fract_x
_atom_site_fract_y
_atom_site_fract_z
_atom_type_partial_charge
C1    C     C_R   0.030228 0.559779 0.418095 0.232582
C2    C     C_R   0.459744 0.946306 0.081620 0.223640
C3    C     C_R   0.443369 0.962395 0.540724 0.027512
C4    C     C_R   0.038400 0.555441 0.458654 0.029567
C5    C     C_R   0.961523 0.443930 0.540718 0.027364
C6    C     C_R   0.443871 0.962584 0.458656 0.029547
C7    C     C_R   0.556616 0.037624 0.540723 0.027509
C8    C     C_R   0.461709 0.944482 0.958654 0.029560
C9    C     C_R   0.538373 0.056136 0.040718 0.027384
C10   C     C_R   0.055879 0.537776 0.958655 0.029547
C11   C     C_R   0.943578 0.462069 0.040721 0.027457
C12   C     C_R   0.538284 0.055523 0.958654 0.029558
C13   C     C_R   0.939892 0.470421 0.918092 0.232543
C14   C     C_R   0.461619 0.943868 0.040718 0.027383
C15   C     C_R   0.944125 0.462220 0.958655 0.029548
C16   C     C_R   0.056425 0.537927 0.040721 0.027457
C17   C     C_R   0.196208 0.696108 0.250019 0.008725
C18   C     C_R   0.803895 0.303793 0.750018 0.008713
C19   C     C_R   0.303837 0.196170 0.249999 0.008208
C20   C     C_R   0.696170 0.803839 0.749999 0.008206
C21   C     C_R   0.803792 0.303893 0.250020 0.008725
C22   C     C_R   0.196105 0.696207 0.750018 0.008713
C23   C     C_R   0.696163 0.803830 0.249999 0.008208
C24   C     C_R   0.053918 0.539954 0.081619 0.223726
C25   C     C_R   0.303830 0.196161 0.749999 0.008205
C26   C     C_R   0.196163 0.303830 0.749998 0.008210
C27   C     C_R   0.803830 0.696161 0.249998 0.008212
C28   C     C_R   0.303791 0.803894 0.750019 0.008713
C29   C     C_R   0.696104 0.196208 0.250018 0.008683
C30   C     C_R   0.803837 0.696170 0.749998 0.008210
C31   C     C_R   0.196170 0.303839 0.249998 0.008212
C32   C     C_R   0.696208 0.196106 0.750019 0.008712
C33   C     C_R   0.303897 0.803792 0.250018 0.008684
C34   C     C_R   0.999999 0.500001 0.479250 -0.083705
C35   C     C_R   0.469886 0.940163 0.918095 0.232572
C36   C     C_R   0.999999 0.500001 0.520273 -0.080400
C37   C     C_R   0.499992 0.000008 0.479248 -0.083766
C38   C     C_R   0.499992 0.000009 0.520273 -0.080372
C39   C     C_R   0.499996 0.000003 0.979249 -0.083713
C40   C     C_R   0.499996 0.000002 0.020272 -0.080390
C41   C     C_R   0.000002 0.499998 0.979248 -0.083743
C42   C     C_R   0.000002 0.499998 0.020273 -0.080375
C43   C     C_R   0.540253 0.053695 0.081619 0.223638
C44   C     C_R   0.060110 0.529578 0.918091 0.232543
C45   C     C_R   0.946083 0.460046 0.081619 0.223729
C46   C     C_R   1.000000 0.500000 0.397943 0.012470
C47   C     C_R   0.000000 0.500000 0.601679 0.025265
C48   C     C_R   0.499997 0.000000 0.397941 0.012761
C49   C     C_R   0.959688 0.446348 0.581621 0.223628
C50   C     C_R   0.499997 0.000001 0.601686 0.025394
C51   C     C_R   0.499999 0.000001 0.897942 0.012514
C52   C     C_R   0.500000 0.000000 0.101680 0.025283
C53   C     C_R   0.000001 0.500000 0.897941 0.012667
C54   C     C_R   0.000000 0.500000 0.101683 0.025352
C55   C     C_R   0.919192 0.392610 0.479129 0.147805
C56   C     C_R   0.074959 0.612385 0.519594 0.142922
C57   C     C_R   0.608835 0.078878 0.479147 0.147802
C58   C     C_R   0.386362 0.927009 0.519621 0.142865
C59   C     C_R   0.080804 0.607394 0.479129 0.147805
C60   C     C_R   0.439701 0.970797 0.418090 0.232522
C61   C     C_R   0.925037 0.387618 0.519595 0.142922
C62   C     C_R   0.391141 0.921148 0.479149 0.147803
C63   C     C_R   0.613616 0.073022 0.519619 0.142862
C64   C     C_R   0.419418 0.892436 0.979132 0.147806
C65   C     C_R   0.574721 0.112536 0.019598 0.142912
C66   C     C_R   0.108331 0.579563 0.979141 0.147804
C67   C     C_R   0.886821 0.426284 0.019612 0.142880
C68   C     C_R   0.580570 0.107572 0.979132 0.147807
C69   C     C_R   0.425265 0.887472 0.019598 0.142911
C70   C     C_R   0.891675 0.420431 0.979142 0.147803
C71   C     C_R   0.554074 0.039740 0.581619 0.223796
C72   C     C_R   0.113185 0.573708 0.019611 0.142880
C73   C     C_R   0.500000 1.000000 0.355741 0.485132
C74   C     C_R   0.499999 0.000000 0.644128 0.493833
C75   C     C_R   1.000000 0.500000 0.355742 0.485220
C76   C     C_R   0.000000 0.500000 0.644126 0.494384
C77   C     C_R   0.000000 0.500000 0.855741 0.485158
C78   C     C_R   0.000000 0.500000 0.144127 0.494038
C79   C     C_R   0.500000 1.000000 0.855742 0.485209
C80   C     C_R   0.500000 0.000000 0.144126 0.494328
C81   C     C_R   0.359967 0.140035 0.249999 0.546009
C82   C     C_R   0.969770 0.440223 0.418096 0.232581
C83   C     C_R   0.640035 0.859968 0.749999 0.546037
C84   C     C_R   0.859965 0.359987 0.250000 0.543591
C85   C     C_R   0.140010 0.640036 0.749998 0.543608
C86   C     C_R   0.640033 0.859965 0.249999 0.546011
C87   C     C_R   0.359965 0.140032 0.749999 0.546037
C88   C     C_R   0.140035 0.640012 0.250000 0.543592
C89   C     C_R   0.859990 0.359963 0.749998 0.543609
C90   C     C_R   0.359964 0.859989 0.749999 0.543592
C91   C     C_R   0.640009 0.140037 0.249998 0.543613
C92   C     C_R   0.859967 0.640035 0.749999 0.546018
C93   C     C_R   0.040312 0.553653 0.581620 0.223627
C94   C     C_R   0.140036 0.359968 0.249999 0.546034
C95   C     C_R   0.640036 0.140011 0.749999 0.543592
C96   C     C_R   0.359991 0.859963 0.249998 0.543613
C97   C     C_R   0.140033 0.359965 0.749999 0.546019
C98   C     C_R   0.859964 0.640032 0.249999 0.546036
C99   C     C_R   0.306089 0.748221 0.221790 0.075318
C100  C     C_R   0.694193 0.251498 0.778351 0.072508
C101  C     C_R   0.240125 0.294408 0.216827 0.075209
C102  C     C_R   0.759897 0.705616 0.783174 0.074229
C103  C     C_R   0.693912 0.251778 0.221789 0.075316
C104  C     C_R   0.560290 0.029208 0.418091 0.232522
C105  C     C_R   0.305807 0.748502 0.778351 0.072508
C106  C     C_R   0.759876 0.705592 0.216827 0.075209
C107  C     C_R   0.240103 0.294384 0.783174 0.074229
C108  C     C_R   0.294385 0.240101 0.783174 0.074251
C109  C     C_R   0.705593 0.759876 0.216827 0.075227
C110  C     C_R   0.251492 0.694193 0.778352 0.072490
C111  C     C_R   0.748219 0.306090 0.221792 0.075328
C112  C     C_R   0.705614 0.759899 0.783174 0.074251
C113  C     C_R   0.294407 0.240124 0.216827 0.075226
C114  C     C_R   0.748508 0.305806 0.778353 0.072490
C115  C     C_R   0.445918 0.960267 0.581619 0.223793
C116  C     C_R   0.251782 0.693909 0.221792 0.075327
C117  C     C_R   0.806107 0.248205 0.721800 0.075307
C118  C     C_R   0.194212 0.751481 0.278362 0.072487
C119  C     C_R   0.740115 0.794399 0.716824 0.075206
C120  C     C_R   0.259887 0.205606 0.283172 0.074207
C121  C     C_R   0.193892 0.751796 0.721800 0.075308
C122  C     C_R   0.805786 0.248520 0.278363 0.072486
C123  C     C_R   0.259885 0.205601 0.716824 0.075206
C124  C     C_R   0.740113 0.794393 0.283172 0.074207
C125  C     C_R   0.794395 0.740110 0.283171 0.074247
C126  C     C_R   0.530110 0.059840 0.918094 0.232572
C127  C     C_R   0.205602 0.259885 0.716824 0.075225
C128  C     C_R   0.751468 0.194214 0.278365 0.072458
C129  C     C_R   0.248198 0.806110 0.721803 0.075307
C130  C     C_R   0.205604 0.259889 0.283172 0.074247
C131  C     C_R   0.794398 0.740115 0.716824 0.075225
C132  C     C_R   0.248530 0.805786 0.278365 0.072457
C133  C     C_R   0.751802 0.193891 0.721802 0.075308
C134  C     C_R   0.961597 0.444562 0.458654 0.029568
C135  C     C_R   0.038475 0.556072 0.540718 0.027365
C136  C     C_R   0.556112 0.037431 0.458655 0.029549
H1    H     H_    0.022205 0.627342 0.373937 0.346122
H2    H     H_    0.441664 0.881865 0.125305 0.348315
H3    H     H_    0.872494 0.478959 0.873878 0.346107
H4    H     H_    0.118226 0.558060 0.125369 0.348349
H5    H     H_    0.477997 0.872630 0.873926 0.346119
H6    H     H_    0.558344 0.118131 0.125305 0.348318
H7    H     H_    0.127506 0.521041 0.873876 0.346106
H8    H     H_    0.881773 0.441944 0.125370 0.348347
H9    H     H_    0.941634 0.381875 0.625294 0.348299
H10   H     H_    0.372402 0.979628 0.373843 0.346103
H11   H     H_    0.618301 0.057833 0.625414 0.348363
H12   H     H_    0.977793 0.372659 0.373938 0.346122
H13   H     H_    0.058371 0.618124 0.625294 0.348301
H14   H     H_    0.627597 0.020365 0.373848 0.346103
H15   H     H_    0.381706 0.942150 0.625418 0.348370
H16   H     H_    0.522001 0.127371 0.873924 0.346119
I1    I     I_    0.832851 0.331622 0.450966 -0.061235
I2    I     I_    0.610746 0.214548 0.045184 -0.057874
I3    I     I_    0.170511 0.665084 0.951010 -0.060010
I4    I     I_    0.784472 0.391366 0.045246 -0.057960
I5    I     I_    0.666752 0.168800 0.950978 -0.060878
I6    I     I_    0.389223 0.785465 0.045183 -0.057863
I7    I     I_    0.829500 0.334907 0.951009 -0.060019
I8    I     I_    0.215536 0.608614 0.045246 -0.057970
I9    I     I_    0.392883 0.746501 0.179983 -0.163578
I10   I     I_    0.607966 0.252612 0.820493 -0.142261
I11   I     I_    0.225942 0.364955 0.167604 -0.180253
I12   I     I_    0.111272 0.714311 0.545166 -0.057809
I13   I     I_    0.774103 0.635098 0.832405 -0.179313
I14   I     I_    0.607120 0.253497 0.179982 -0.163580
I15   I     I_    0.392033 0.747387 0.820493 -0.142261
I16   I     I_    0.774058 0.635046 0.167604 -0.180252
I17   I     I_    0.225896 0.364901 0.832405 -0.179314
I18   I     I_    0.364904 0.225892 0.832405 -0.179388
I19   I     I_    0.635048 0.774060 0.167603 -0.180290
I20   I     I_    0.252581 0.607983 0.820505 -0.141905
I21   I     I_    0.746485 0.392899 0.179996 -0.163332
I22   I     I_    0.635095 0.774107 0.832405 -0.179386
I23   I     I_    0.671651 0.163946 0.451026 -0.059566
I24   I     I_    0.364953 0.225940 0.167603 -0.180289
I25   I     I_    0.747420 0.392014 0.820506 -0.141905
I26   I     I_    0.253517 0.607101 0.179996 -0.163334
I27   I     I_    0.892921 0.246468 0.680005 -0.163607
I28   I     I_    0.108008 0.752578 0.320516 -0.142314
I29   I     I_    0.725921 0.864934 0.667597 -0.180199
I30   I     I_    0.274079 0.135076 0.332398 -0.179242
I31   I     I_    0.107079 0.753533 0.680005 -0.163608
I32   I     I_    0.891988 0.247423 0.320518 -0.142313
I33   I     I_    0.274080 0.135067 0.667597 -0.180194
I34   I     I_    0.283780 0.892881 0.545289 -0.058008
I35   I     I_    0.725920 0.864923 0.332398 -0.179247
I36   I     I_    0.864928 0.725913 0.332398 -0.179394
I37   I     I_    0.135071 0.274082 0.667596 -0.180281
I38   I     I_    0.752516 0.108040 0.320539 -0.141636
I39   I     I_    0.246432 0.892948 0.680025 -0.163152
I40   I     I_    0.135071 0.274085 0.332398 -0.179395
I41   I     I_    0.864930 0.725919 0.667596 -0.180279
I42   I     I_    0.247480 0.891961 0.320538 -0.141641
I43   I     I_    0.753566 0.107055 0.680023 -0.163144
I44   I     I_    0.167143 0.668384 0.450966 -0.061235
I45   I     I_    0.888718 0.285695 0.545167 -0.057806
I46   I     I_    0.328308 0.836088 0.451035 -0.059545
I47   I     I_    0.716186 0.107192 0.545284 -0.057994
I48   I     I_    0.333232 0.831219 0.950977 -0.060892
O1    O     O_3   0.500000 0.000000 0.250000 -0.484384
O2    O     O_R   0.500000 0.939270 0.662450 -0.510663
O3    O     O_R   0.939270 0.500000 0.337550 -0.515868
O4    O     O_R   0.060730 0.500000 0.662450 -0.510297
O5    O     O_R   0.000000 0.439270 0.837550 -0.516029
O6    O     O_R   0.000000 0.560730 0.162450 -0.510518
O7    O     O_R   0.560730 0.000000 0.837550 -0.515892
O8    O     O_R   0.439270 0.000000 0.162450 -0.510328
O9    O     O_R   0.000000 0.560730 0.837550 -0.516029
O10   O     O_R   0.000000 0.439270 0.162450 -0.510517
O11   O     O_R   0.439270 0.000000 0.837550 -0.515895
O12   O     O_3   0.500000 0.000000 0.750000 -0.484374
O13   O     O_R   0.560730 0.000000 0.162450 -0.510335
O14   O     O_R   0.414490 0.146150 0.273020 -0.514719
O15   O     O_R   0.585510 0.853850 0.726980 -0.512540
O16   O     O_R   0.853850 0.414490 0.273020 -0.513712
O17   O     O_R   0.146150 0.585510 0.726980 -0.513283
O18   O     O_R   0.585510 0.853850 0.273020 -0.514718
O19   O     O_R   0.414490 0.146150 0.726980 -0.512541
O20   O     O_R   0.146150 0.585510 0.273020 -0.513712
O21   O     O_R   0.853850 0.414490 0.726980 -0.513281
O22   O     O_R   0.414490 0.853850 0.726980 -0.513351
O23   O     O_3   0.000000 0.500000 0.250000 -0.484406
O24   O     O_R   0.585510 0.146150 0.273020 -0.513757
O25   O     O_R   0.853850 0.585510 0.726980 -0.512517
O26   O     O_R   0.146150 0.414490 0.273020 -0.514638
O27   O     O_R   0.585510 0.146150 0.726980 -0.513348
O28   O     O_R   0.414490 0.853850 0.273020 -0.513760
O29   O     O_R   0.146150 0.414490 0.726980 -0.512516
O30   O     O_R   0.853850 0.585510 0.273020 -0.514638
O31   O     O_R   0.914490 0.646150 0.773020 -0.514681
O32   O     O_R   0.085510 0.353850 0.226980 -0.512529
O33   O     O_R   0.353850 0.914490 0.773020 -0.513706
O34   O     O_3   0.000000 0.500000 0.750000 -0.484416
O35   O     O_R   0.646150 0.085510 0.226980 -0.513282
O36   O     O_R   0.085510 0.353850 0.773020 -0.514681
O37   O     O_R   0.914490 0.646150 0.226980 -0.512529
O38   O     O_R   0.646150 0.085510 0.773020 -0.513706
O39   O     O_R   0.353850 0.914490 0.226980 -0.513280
O40   O     O_R   0.914490 0.353850 0.226980 -0.513318
O41   O     O_R   0.085510 0.646150 0.773020 -0.513734
O42   O     O_R   0.353850 0.085510 0.226980 -0.512511
O43   O     O_R   0.646150 0.914490 0.773020 -0.514635
O44   O     O_R   0.085510 0.646150 0.226980 -0.513319
O45   O     O_R   0.500000 0.939270 0.337550 -0.516127
O46   O     O_R   0.914490 0.353850 0.773020 -0.513735
O47   O     O_R   0.646150 0.914490 0.226980 -0.512511
O48   O     O_R   0.353850 0.085510 0.773020 -0.514635
O49   O     O_3   0.047544 0.624490 0.399260 -0.625662
O50   O     O_3   0.915205 0.398711 0.601834 -0.622922
O51   O     O_3   0.374732 0.954517 0.399243 -0.625922
O52   O     O_3   0.601994 0.084023 0.601779 -0.623048
O53   O     O_3   0.952454 0.375512 0.399261 -0.625662
O54   O     O_3   0.084797 0.601289 0.601833 -0.622924
O55   O     O_3   0.625261 0.045486 0.399246 -0.625921
O56   O     O_R   0.500000 0.060730 0.662450 -0.510645
O57   O     O_3   0.398004 0.915974 0.601777 -0.623051
O58   O     O_3   0.547311 0.124579 0.899257 -0.625707
O59   O     O_3   0.415266 0.898651 0.101826 -0.622918
O60   O     O_3   0.875015 0.453762 0.899250 -0.625839
O61   O     O_3   0.101719 0.584330 0.101797 -0.622982
O62   O     O_3   0.452686 0.875422 0.899258 -0.625706
O63   O     O_3   0.584736 0.101347 0.101824 -0.622919
O64   O     O_3   0.124987 0.546237 0.899248 -0.625838
O65   O     O_3   0.898280 0.415673 0.101798 -0.622982
O66   O     O_R   0.060730 0.500000 0.337550 -0.515867
O67   O     O_R   0.939270 0.500000 0.662450 -0.510292
O68   O     O_R   0.500000 0.060730 0.337550 -0.516118
Zn1   Zn    Zn3+2 0.413190 0.000000 0.217350 1.015253
Zn2   Zn    Zn3+2 0.086810 0.500000 0.282650 1.011130
Zn3   Zn    Zn3+2 0.500000 0.913190 0.717350 1.015044
Zn4   Zn    Zn3+2 0.500000 0.086810 0.282650 1.010950
Zn5   Zn    Zn3+2 0.086810 0.500000 0.717350 1.015258
Zn6   Zn    Zn3+2 0.913190 0.500000 0.282650 1.011131
Zn7   Zn    Zn3+2 0.500000 0.086810 0.717350 1.015052
Zn8   Zn    Zn3+2 0.500000 0.913190 0.282650 1.010947
Zn9   Zn    Zn3+2 0.586810 0.000000 0.782650 1.011128
Zn10  Zn    Zn3+2 1.000000 0.413190 0.217350 1.015130
Zn11  Zn    Zn3+2 0.000000 0.586810 0.782650 1.011022
Zn12  Zn    Zn3+2 0.586810 0.000000 0.217350 1.015251
Zn13  Zn    Zn3+2 0.413190 0.000000 0.782650 1.011127
Zn14  Zn    Zn3+2 1.000000 0.586810 0.217350 1.015130
Zn15  Zn    Zn3+2 1.000000 0.413190 0.782650 1.011023
Zn16  Zn    Zn3+2 0.913190 0.500000 0.717350 1.015259

loop_
_geom_bond_atom_site_label_1
_geom_bond_atom_site_label_2
_ccdc_geom_bond_type
C58   C62   A    
C112  I22   S    
C105  C110  A    
C36   C135  A    
C27   C98   S    
C123  I33   S    
C86   O47   A    
C108  I18   S    
H1    O49   S    
C58   I34   S    
C17   C88   S    
C101  C113  A    
C41   C42   A    
O41   Zn11  S    
C102  C112  A    
H8    O65   S    
C16   C72   A    
C50   C71   A    
O38   Zn9   S    
C117  C133  A    
C18   C114  A    
C94   O32   A    
C87   O48   A    
C47   C49   A    
O23   Zn10  S    
C84   O40   A    
H5    O62   S    
O17   Zn5   S    
C12   C68   A    
O29   Zn5   S    
C127  I37   S    
C104  O55   S    
C125  I36   S    
C120  C130  A    
O35   Zn12  S    
C31   C101  A    
C35   O62   S    
O43   Zn9   S    
C13   O60   S    
C47   C76   S    
C90   O22   A    
C31   C130  A    
C116  I26   S    
C50   C74   S    
O1    Zn12  S    
C7    C71   A    
C66   I3    S    
C1    O49   S    
C43   C52   A    
O25   Zn16  S    
C73   O45   A    
C34   C134  A    
C24   C54   A    
C30   C131  A    
C48   C104  A    
C5    C36   A    
C83   O43   A    
C118  I28   S    
C25   C87   S    
C89   O46   A    
C29   C103  A    
C11   C42   A    
C103  C111  A    
C70   I7    S    
C86   O18   A    
C22   C85   S    
O32   Zn10  S    
O47   Zn12  S    
C85   O17   A    
O48   Zn13  S    
O27   Zn7   S    
C51   C79   S    
C20   C112  A    
C84   O16   A    
C44   C53   A    
C97   O29   A    
O68   Zn4   S    
C3    C38   A    
C130  I40   S    
C22   C110  A    
C23   C86   S    
C24   O61   S    
C25   C108  A    
C60   O51   S    
C119  C131  A    
C107  C108  A    
C57   C136  A    
C57   C63   A    
O11   Zn13  S    
C91   O35   A    
C87   O19   A    
O20   Zn2   S    
C45   C54   A    
C78   O10   A    
C128  I38   S    
C19   C81   S    
C77   O9    A    
C8    C35   A    
O7    Zn9   S    
O23   Zn14  S    
O12   Zn9   S    
C65   C68   A    
C45   O65   S    
C2    O59   S    
O13   Zn12  S    
H16   O58   S    
H12   O53   S    
C16   C24   A    
C26   C107  A    
C98   O30   A    
O5    Zn15  S    
C10   C41   A    
C132  I42   S    
C18   C89   S    
C5    C49   A    
C131  I41   S    
O36   Zn15  S    
C29   C128  A    
C2    C14   A    
C79   O11   A    
O19   Zn7   S    
C46   C75   S    
C21   C111  A    
C11   C67   A    
C48   C60   A    
C13   C53   A    
C10   C66   A    
O3    Zn6   S    
C23   C109  A    
C66   C72   A    
H11   O52   S    
C9    C43   A    
C126  O58   S    
C10   C44   A    
O42   Zn1   S    
C6    C60   A    
H9    O50   S    
C101  I11   S    
C100  C114  A    
C62   I46   S    
O23   Zn2   S    
C30   C92   S    
C115  O57   S    
C129  I39   S    
C61   I45   S    
C99   C116  A    
C98   O37   A    
O39   Zn1   S    
C93   O54   S    
O67   Zn16  S    
C74   O2    A    
O12   Zn3   S    
H13   O54   S    
O9    Zn11  S    
C97   O36   A    
C119  I29   S    
C9    C40   A    
C88   O20   A    
C90   O33   A    
C67   I4    S    
C33   C99   A    
C95   O38   A    
C106  I16   S    
C81   O42   A    
C82   C134  A    
C53   C77   S    
O2    Zn3   S    
C78   O6    A    
C88   O44   A    
C37   C38   A    
C73   O68   A    
C77   O5    A    
O24   Zn4   S    
O12   Zn13  S    
C50   C115  A    
C123  C127  A    
C81   O14   A    
C21   C84   S    
O16   Zn6   S    
C28   C105  A    
C133  I43   S    
C114  I25   S    
C7    C63   A    
H3    O60   S    
C30   C102  A    
C85   O41   A    
C69   I6    S    
C47   C93   A    
C6    C37   A    
O14   Zn4   S    
O46   Zn15  S    
C82   O53   S    
C118  C132  A    
O1    Zn1   S    
C64   C69   A    
C105  I15   S    
O37   Zn14  S    
C25   C123  A    
C18   C117  A    
C15   C41   A    
C80   O13   A    
C6    C62   A    
C2    C52   A    
C17   C118  A    
O10   Zn10  S    
C113  I24   S    
O22   Zn3   S    
O30   Zn6   S    
C33   C132  A    
C8    C39   A    
O1    Zn8   S    
C8    C64   A    
C19   C120  A    
O8    Zn1   S    
C102  I13   S    
O34   Zn16  S    
H4    O61   S    
O45   Zn8   S    
C13   C15   A    
O66   Zn2   S    
C14   C69   A    
O40   Zn10  S    
C20   C83   S    
C95   O27   A    
H6    O63   S    
C49   O50   S    
C109  I19   S    
C68   I5    S    
C31   C94   S    
C33   C96   S    
C57   I23   S    
C71   O52   S    
C29   C91   S    
C56   C135  A    
C26   C127  A    
H15   O57   S    
C22   C121  A    
C21   C122  A    
O12   Zn7   S    
C28   C129  A    
C15   C70   A    
C99   I9    S    
H2    O59   S    
C75   O3    A    
O34   Zn11  S    
C104  C136  A    
C80   O8    A    
C111  I21   S    
C51   C126  A    
O44   Zn14  S    
C48   C73   S    
O21   Zn16  S    
C75   O66   A    
C121  C129  A    
C93   C135  A    
C72   I8    S    
C46   C82   A    
C44   O64   S    
C124  I35   S    
C83   O15   A    
C96   O28   A    
C76   O4    A    
O56   Zn7   S    
C23   C124  A    
C59   I44   S    
C55   C134  A    
O34   Zn5   S    
C56   I12   S    
C37   C136  A    
C92   O31   A    
C56   C59   A    
O31   Zn11  S    
H10   O51   S    
C1    C4    A    
O15   Zn3   S    
C67   C70   A    
C12   C39   A    
C64   I48   S    
C91   O24   A    
C3    C115  A    
O26   Zn2   S    
C89   O21   A    
C5    C61   A    
C27   C125  A    
C107  I17   S    
H14   O55   S    
C32   C133  A    
O23   Zn6   S    
C43   O63   S    
O28   Zn8   S    
C79   O7    A    
C55   C61   A    
C4    C59   A    
C122  I32   S    
O4    Zn5   S    
C96   O39   A    
C7    C38   A    
C63   I47   S    
C27   C106  A    
C34   C36   A    
C16   C42   A    
C4    C34   A    
C122  C128  A    
C1    C46   A    
C9    C65   A    
C11   C45   A    
C92   O25   A    
C94   O26   A    
C26   C97   S    
C14   C40   A    
C55   I1    S    
C39   C40   A    
C3    C58   A    
C32   C100  A    
C32   C95   S    
C12   C126  A    
C35   C51   A    
C103  I14   S    
O34   Zn15  S    
C76   O67   A    
C19   C113  A    
C121  I31   S    
O6    Zn14  S    
C28   C90   S    
H7    O64   S    
C65   I2    S    
C100  I10   S    
O33   Zn13  S    
C52   C80   S    
C120  I30   S    
O1    Zn4   S    
C20   C119  A    
C74   O56   A    
C117  I27   S    
C17   C116  A    
O18   Zn8   S    
C124  C125  A    
C54   C78   S    
C106  C109  A    
C110  I20   S    
