data_mof_unit_61320.cif
_audit_creation_date              2012-12-10T16:54:36-0500
_audit_creation_method            fapswitch 2.2
_symmetry_space_group_name_H-M    P1
_symmetry_Int_Tables_number       1
_space_group_crystal_system       triclinic
_cell_length_a                    18.767501
_cell_length_b                    18.810144
_cell_length_c                    18.891541
_cell_angle_alpha                 109.547654
_cell_angle_beta                  109.519207
_cell_angle_gamma                 109.370021
_cell_volume                      5132.37809371

loop_
_atom_site_label
_atom_site_type_symbol
_atom_type_description
_atom_site_fract_x
_atom_site_fract_y
_atom_site_fract_z
_atom_type_partial_charge
C1    C     C_R   0.383348 0.381126 0.502667 0.922609
C2    C     C_2   0.180777 0.479379 0.155044 -0.212203
C3    C     C_2   0.242472 0.432930 0.252359 -0.332423
C4    C     C_R   0.617710 0.498210 0.620105 0.890225
C5    C     C_2   0.316225 0.507595 0.317529 0.307757
C6    C     C_2   0.740347 0.819712 0.493357 -0.140686
C7    C     C_2   0.817461 0.824321 0.511183 -0.338247
C8    C     C_2   0.678907 0.758374 0.504346 -0.122927
C9    C     C_2   0.675839 0.682326 0.488512 -0.340539
C10   C     C_R   0.993633 0.380613 0.874707 0.949223
C11   C     C_R   0.873433 0.500829 0.875194 0.878636
C12   C     C_3   0.803871 0.500112 0.808937 -0.171469
C13   C     C_R   0.995686 0.619491 0.114367 0.938945
C14   C     C_R   0.114312 0.494475 0.108131 0.932894
C15   C     C_R   0.001283 0.121149 0.617946 0.930104
C16   C     C_R   0.616766 0.618890 0.497452 0.942168
C17   C     C_R   0.118823 0.116573 0.497543 0.928363
C18   C     C_R   0.998838 0.879039 0.381961 0.928638
C19   C     C_R   0.881190 0.883429 0.502464 0.932258
C20   C     C_2   0.991488 0.252246 0.671983 -0.146710
C21   C     C_2   0.009893 0.193580 0.685590 -0.333418
C22   C     C_2   0.001977 0.324693 0.743672 -0.121003
C23   C     C_3   0.846702 0.567122 0.781351 -0.143203
C24   C     C_2   0.986353 0.312516 0.803903 -0.286500
C25   C     C_2   0.009225 0.748265 0.324605 -0.147202
C26   C     C_2   0.990282 0.807512 0.313390 -0.324735
C27   C     C_2   0.995409 0.675654 0.250142 -0.108670
C28   C     C_R   0.381225 0.502119 0.380048 0.831791
C29   C     C_2   0.005892 0.687556 0.187551 -0.310168
C30   C     C_3   0.665566 0.404714 0.661879 -0.445317
C31   C     C_3   0.745722 0.407722 0.722907 0.311815
C32   C     C_3   0.774009 0.554180 0.700388 -0.461985
C33   C     C_3   0.684534 0.539505 0.774656 -0.420252
C34   C     C_3   0.747602 0.531164 0.844255 0.274527
C35   C     C_3   0.684242 0.498995 0.687959 0.002442
C36   C     C_3   0.901541 0.665180 0.854097 -0.359621
C37   C     C_3   0.970360 0.719266 0.838851 -0.349491
C38   C     C_3   0.021220 0.815295 0.908304 -0.863748
C39   C     C_2   0.259845 0.180439 0.507008 -0.135188
C40   C     C_2   0.182615 0.175667 0.488856 -0.338164
C41   C     C_2   0.321366 0.241764 0.496074 -0.145393
C42   C     C_2   0.324344 0.317741 0.511719 -0.338604
C43   C     C_2   0.167821 0.431512 0.192542 -0.116191
H1    H     H_    0.651327 0.368102 0.594233 0.189475
H2    H     H_    0.233836 0.371063 0.247469 0.146637
H3    H     H_    0.607133 0.368978 0.664855 0.231545
H4    H     H_    0.723767 0.862873 0.473983 0.179227
H5    H     H_    0.837948 0.788482 0.540222 0.155181
H6    H     H_    0.634433 0.774086 0.522079 0.188421
H7    H     H_    0.712913 0.662387 0.460901 0.160342
H8    H     H_    0.971843 0.248908 0.609429 0.171017
H9    H     H_    0.039090 0.202579 0.750455 0.156862
H10   H     H_    0.018662 0.386362 0.744898 0.161425
H11   H     H_    0.959480 0.248160 0.796947 0.148284
H12   H     H_    0.793198 0.597166 0.902368 0.072277
H13   H     H_    0.030745 0.750749 0.386813 0.172761
H14   H     H_    0.959145 0.799109 0.248998 0.163809
H15   H     H_    0.980023 0.613871 0.248393 0.171625
H16   H     H_    0.031810 0.751913 0.194435 0.150451
H17   H     H_    0.785036 0.404876 0.690082 0.090417
H18   H     H_    0.777783 0.520157 0.642014 0.171807
H19   H     H_    0.891139 0.550085 0.761510 0.173685
H20   H     H_    0.704992 0.609571 0.798374 0.169621
H21   H     H_    0.616839 0.507677 0.762790 0.197339
H22   H     H_    0.976443 0.842008 0.907056 0.260929
H23   H     H_    0.781867 0.617458 0.705824 0.183568
H24   H     H_    0.055358 0.823527 0.973596 0.263511
H25   H     H_    0.070603 0.852544 0.895768 0.254529
H26   H     H_    0.016945 0.694792 0.840411 0.226375
H27   H     H_    0.938435 0.713140 0.774208 0.222064
H28   H     H_    0.858268 0.693202 0.857055 0.198790
H29   H     H_    0.935440 0.673393 0.919254 0.215777
H30   H     H_    0.411838 0.743591 0.458973 0.382854
H31   H     H_    0.776481 0.226982 0.729095 0.381677
H32   H     H_    0.548937 0.387956 0.786432 0.354169
H33   H     H_    0.276467 0.137410 0.526599 0.181024
H34   H     H_    0.162142 0.211407 0.459661 0.159399
H35   H     H_    0.365911 0.226075 0.478469 0.177417
H36   H     H_    0.287200 0.337659 0.539236 0.162870
H37   H     H_    0.103581 0.394030 0.182441 0.172491
H38   H     H_    0.243817 0.510130 0.160161 0.196958
O1    O     O_R   0.410160 0.358490 0.449530 -0.616078
O2    O     O_R   0.947260 0.090430 0.537750 -0.616139
O3    O     O_R   0.142120 0.090460 0.551650 -0.608874
O4    O     O_R   0.408940 0.460590 0.550490 -0.622822
O5    O     O_R   0.038780 0.090460 0.448320 -0.625966
O6    O     O_R   0.052740 0.909570 0.462250 -0.615326
O7    O     O_R   0.949410 0.909570 0.358910 -0.618096
O8    O     O_R   0.961220 0.909540 0.551680 -0.627021
O9    O     O_R   0.857880 0.909540 0.448350 -0.608525
O10   O     O_R   0.592130 0.448950 0.541040 -0.632297
O11   O     O_R   0.590910 0.551050 0.642000 -0.634480
O12   O     O_R   0.046300 0.460610 0.904690 -0.635057
O13   O     O_R   0.591060 0.539410 0.449510 -0.620001
O14   O     O_R   0.589840 0.641510 0.550470 -0.604061
O15   O     O_R   0.409090 0.448950 0.358000 -0.639300
O16   O     O_R   0.407870 0.551050 0.458960 -0.547300
O17   O     O_R   0.944170 0.358540 0.904780 -0.602773
O18   O     O_2   0.360147 0.644805 0.291432 -0.319200
O19   O     O_2   0.246171 0.613502 0.331313 -0.292222
O20   O     O_3   0.406745 0.686902 0.450670 -0.533543
O21   O     O_2   0.698731 0.307721 0.796947 -0.165630
O22   O     O_2   0.635984 0.233837 0.639788 -0.298335
O23   O     O_R   0.851630 0.449030 0.902680 -0.494146
O24   O     O_3   0.798076 0.285364 0.734602 -0.586619
O25   O     O_2   0.741359 0.457944 0.948824 -0.208918
O26   O     O_2   0.655756 0.528411 0.926456 -0.322512
O27   O     O_3   0.598656 0.377052 0.800122 -0.489165
O28   O     O_R   0.953760 0.551100 0.902590 -0.660514
O29   O     O_R   0.942140 0.539520 0.083620 -0.589249
O30   O     O_R   0.044270 0.641590 0.083530 -0.628545
O31   O     O_R   0.034680 0.449030 0.085720 -0.640847
O32   O     O_R   0.136800 0.551100 0.085630 -0.602280
O33   O     O_R   0.050590 0.090430 0.641090 -0.620065
S1    S     S_3+6 0.330411 0.614528 0.345885 0.026599
S2    S     S_3+6 0.716160 0.306429 0.724755 0.058003
S3    S     S_3+6 0.686824 0.472800 0.882803 0.059396
Zn1   Zn    Zn3+2 0.500810 0.431830 0.432590 0.973572
Zn2   Zn    Zn3+2 0.499190 0.568170 0.567410 1.017088
Zn3   Zn    Zn3+2 0.926030 0.431910 0.994210 1.089889
Zn4   Zn    Zn3+2 0.062410 0.568220 0.994100 0.976325
Zn5   Zn    Zn3+2 0.069000 0.000000 0.569000 0.979757
Zn6   Zn    Zn3+2 0.931000 0.000000 0.431000 0.980327

loop_
_geom_bond_atom_site_label_1
_geom_bond_atom_site_label_2
_ccdc_geom_bond_type
C28   O16   A    
C37   H26   S    
C27   C29   D    
C41   C42   D    
O24   S2    S    
C18   C26   S    
C25   H13   S    
O23   Zn3   S    
C39   C41   S    
C14   O31   A    
C12   C23   S    
C3    C43   S    
C37   C38   S    
C30   C35   S    
C13   C29   S    
C36   C37   S    
O11   Zn2   S    
O12   Zn4   S    
C32   H18   S    
C20   H8    S    
O18   S1    D    
C30   C31   S    
O30   Zn4   S    
O8    Zn5   S    
C24   H11   S    
C10   O17   A    
O9    Zn6   S    
O4    Zn2   S    
C23   H19   S    
C29   H16   S    
C8    C9    D    
C11   O23   A    
C36   H28   S    
C4    O10   A    
C34   S3    S    
H30   O20   S    
C4    C35   S    
C42   H36   S    
C37   H27   S    
C5    S1    S    
C30   H1    S    
O19   S1    D    
O7    Zn6   S    
C25   C26   D    
C30   H3    S    
C22   H10   S    
C1    O4    A    
C15   O33   A    
C6    H4    S    
C17   O5    A    
C32   C35   S    
O29   Zn3   S    
C41   H35   S    
O31   Zn3   S    
C6    C8    S    
C10   O12   A    
C10   C24   S    
C43   H37   S    
C3    H2    S    
C18   O7    A    
C11   O28   A    
C17   C40   S    
C31   H17   S    
O16   Zn2   S    
C13   O29   A    
C19   O8    A    
C5    C28   S    
C38   H22   S    
C15   C21   S    
C2    C43   D    
C33   H20   S    
C33   C34   S    
O10   Zn1   S    
C34   H12   S    
C39   H33   S    
C20   C21   D    
C38   H25   S    
C7    C19   S    
O25   S3    D    
O20   S1    S    
C22   C24   D    
O1    Zn1   S    
C12   C34   S    
C31   S2    S    
C39   C40   D    
C32   H23   S    
O15   Zn1   S    
C16   O14   A    
O27   S3    S    
C9    C16   S    
C9    H7    S    
C20   C22   S    
C3    C5    D    
C27   H15   S    
O6    Zn5   S    
C15   O2    A    
C11   C12   S    
O17   Zn3   S    
C6    C7    D    
C25   C27   S    
C14   O32   A    
C16   O13   A    
C18   O6    A    
C28   O15   A    
C17   O3    A    
O14   Zn2   S    
C7    H5    S    
O22   S2    D    
C1    O1    A    
C12   C31   S    
C19   O9    A    
C23   C32   S    
H31   O24   S    
O13   Zn1   S    
O28   Zn4   S    
C33   H21   S    
C33   C35   S    
C2    C14   S    
C26   H14   S    
O21   S2    D    
O33   Zn5   S    
C1    C42   S    
H32   O27   S    
O32   Zn4   S    
C38   H24   S    
C13   O30   A    
C23   C36   S    
O5    Zn6   S    
C40   H34   S    
C2    H38   S    
O2    Zn6   S    
O3    Zn5   S    
C8    H6    S    
O26   S3    D    
C21   H9    S    
C36   H29   S    
C4    O11   A    
