data_mof_unit_16165.cif
_audit_creation_date              2012-12-10T18:24:00-0500
_audit_creation_method            fapswitch 2.2
_symmetry_space_group_name_H-M    P1
_symmetry_Int_Tables_number       1
_space_group_crystal_system       triclinic
_cell_length_a                    15.759294
_cell_length_b                    14.994065
_cell_length_c                    14.101418
_cell_angle_alpha                 90.796241
_cell_angle_beta                  88.746944
_cell_angle_gamma                 89.127175
_cell_volume                      3330.58610366

loop_
_atom_site_label
_atom_site_type_symbol
_atom_type_description
_atom_site_fract_x
_atom_site_fract_y
_atom_site_fract_z
_atom_type_partial_charge
C1    C     C_R   0.500903 0.326779 0.499430 0.892632
C2    C     C_R   0.498974 0.046392 0.500582 0.044922
C3    C     C_R   0.456748 0.906737 0.427216 0.074211
C4    C     C_R   0.536506 0.093392 0.576747 0.064804
C5    C     C_R   0.563009 0.954160 0.659165 -0.094117
C6    C     C_R   0.427781 0.046099 0.346175 -0.092018
C7    C     C_R   0.570162 0.047473 0.654995 -0.049084
C8    C     C_R   0.420690 0.952806 0.350505 -0.085777
C9    C     C_R   0.442837 0.552909 0.800446 0.048100
C10   C     C_R   0.551069 0.440681 0.199373 0.067557
C11   C     C_R   0.558559 0.450209 0.795351 -0.031107
C12   C     C_R   0.498918 0.673236 0.500689 0.893406
C13   C     C_R   0.451440 0.560602 0.204619 -0.034101
C14   C     C_R   0.561072 0.448947 0.895861 -0.051023
C15   C     C_R   0.449646 0.562895 0.104052 -0.055266
C16   C     C_R   0.338075 0.500006 0.500904 0.895921
C17   C     C_R   0.661912 0.499823 0.499097 0.897851
C18   C     C_R   0.504481 0.505402 0.949407 0.088009
C19   C     C_R   0.504839 0.504969 0.050460 0.083575
C20   C     C_R   0.447956 0.562684 0.901514 -0.077762
C21   C     C_R   0.560662 0.446884 0.098293 -0.071565
C22   C     C_R   0.622260 0.396940 0.943147 -0.130505
C23   C     C_R   0.495131 0.768993 0.502746 -0.079228
C24   C     C_R   0.398014 0.625371 0.056642 -0.117560
C25   C     C_R   0.624158 0.398221 0.043807 -0.046639
C26   C     C_R   0.399636 0.627756 0.955915 -0.036799
C27   C     C_3   0.971696 0.419910 0.530027 -0.136471
C28   C     C_3   0.028221 0.577391 0.469816 -0.134321
C29   C     C_3   0.031090 0.433177 0.443019 -0.131061
C30   C     C_3   0.968877 0.564121 0.556841 -0.128963
C31   C     C_1   0.249501 0.499418 0.502822 -0.055386
C32   C     C_1   0.750474 0.499412 0.497180 -0.071264
C33   C     C_3   0.024924 0.485219 0.588955 -0.129301
C34   C     C_R   0.502712 0.231026 0.498307 -0.079226
C35   C     C_3   0.975000 0.512064 0.410903 -0.130381
C36   C     C_3   0.083795 0.498507 0.501940 0.086962
C37   C     C_3   0.916162 0.498803 0.497939 0.088624
C38   C     C_1   0.174465 0.498870 0.503154 0.171457
C39   C     C_1   0.825509 0.499072 0.496814 0.170037
C40   C     C_R   0.460225 0.813877 0.427313 -0.183305
C41   C     C_R   0.536061 0.186188 0.574697 -0.186162
C42   C     C_2   0.063513 0.359101 0.378842 0.468129
C43   C     C_2   0.936563 0.638208 0.621082 0.472706
C44   C     C_2   0.685889 0.342890 0.886615 0.497479
C45   C     C_R   0.526237 0.814710 0.580401 -0.210052
C46   C     C_2   0.343240 0.689431 0.112981 0.481107
C47   C     C_2   0.697377 0.354488 0.090028 1.006645
C48   C     C_2   0.356063 0.703448 0.909386 0.996855
C49   C     C_2   0.942430 0.330922 0.563956 0.477971
C50   C     C_2   0.057354 0.666423 0.435857 0.468184
C51   C     C_2   0.948605 0.527090 0.310706 0.914700
C52   C     C_2   0.051043 0.469831 0.689161 0.912756
C53   C     C_2   0.593966 0.904993 0.743304 0.394748
C54   C     C_2   0.394318 0.095294 0.263316 0.383547
C55   C     C_2   0.611336 0.095981 0.734032 0.473786
C56   C     C_R   0.469341 0.185336 0.422005 -0.177652
C57   C     C_2   0.376585 0.904492 0.273501 0.520666
C58   C     C_2   0.370995 0.591142 0.748894 0.488149
C59   C     C_2   0.587938 0.364936 0.250543 0.468464
C60   C     C_R   0.526669 0.907581 0.582445 0.047553
C61   C     C_R   0.466344 0.092557 0.421530 0.049168
C62   C     C_R   0.493832 0.953788 0.503600 0.050854
H1    H     H_    0.437403 0.775098 0.368180 0.182207
H2    H     H_    0.304022 0.666004 0.171419 0.103551
H3    H     H_    0.764676 0.241310 0.111153 0.366185
H4    H     H_    0.246125 0.769231 0.885925 0.364446
H5    H     H_    0.988914 0.281056 0.584237 0.082146
H6    H     H_    0.010791 0.716196 0.415547 0.083276
H7    H     H_    0.853090 0.540700 0.218994 0.384485
H8    H     H_    0.146300 0.454468 0.780862 0.383630
H9    H     H_    0.555663 0.853134 0.774725 0.108959
H10   H     H_    0.432394 0.145847 0.229214 0.119452
H11   H     H_    0.592375 0.083199 0.806976 0.087774
H12   H     H_    0.560218 0.225106 0.632982 0.184096
H13   H     H_    0.390933 0.919409 0.199855 0.120519
H14   H     H_    0.381506 0.637976 0.692419 0.099641
H15   H     H_    0.630590 0.375871 0.308381 0.117972
H16   H     H_    0.553869 0.776486 0.636738 0.161750
H17   H     H_    0.442262 0.223678 0.365445 0.175323
H18   H     H_    0.602656 0.411141 0.751603 0.138066
H19   H     H_    0.413875 0.606509 0.248403 0.132099
H20   H     H_    0.018805 0.317947 0.341433 0.086668
H21   H     H_    0.981344 0.679355 0.658389 0.086962
H22   H     H_    0.665206 0.298573 0.830579 0.091058
N1    N     N_R   0.500040 0.500070 0.750030 -0.138303
N2    N     N_R   0.499960 0.499930 0.249970 -0.137733
O1    O     O_R   0.500020 0.367860 0.580280 -0.625665
O2    O     O_2   0.860543 0.652614 0.631810 -0.529288
O3    O     O_2   0.761771 0.349415 0.900453 -0.474237
O4    O     O_2   0.342893 0.769015 0.095902 -0.526552
O5    O     O_2   0.744019 0.398709 0.139747 -0.621574
O6    O     O_R   0.713071 0.263157 0.076049 -0.738160
O7    O     O_2   0.397284 0.755263 0.861296 -0.662135
O8    O     O_R   0.268272 0.715462 0.921084 -0.718553
O9    O     O_2   0.866986 0.314111 0.569023 -0.521895
O10   O     O_2   0.132766 0.683382 0.430806 -0.526833
O11   O     O_2   0.002821 0.536670 0.248554 -0.562860
O12   O     O_R   0.499980 0.632140 0.419720 -0.624022
O13   O     O_R   0.862598 0.530058 0.288825 -0.783016
O14   O     O_2   0.996650 0.461162 0.751305 -0.548182
O15   O     O_R   0.136988 0.465224 0.711013 -0.760835
O16   O     O_2   0.663090 0.920605 0.776749 -0.503775
O17   O     O_2   0.323405 0.081082 0.233930 -0.504933
O18   O     O_2   0.669642 0.146766 0.718233 -0.532641
O19   O     O_2   0.320946 0.851267 0.292061 -0.511358
O20   O     O_2   0.298490 0.569875 0.769449 -0.534200
O21   O     O_2   0.570227 0.288607 0.228135 -0.589855
O22   O     O_R   0.500020 0.367840 0.419730 -0.634047
O23   O     O_R   0.499980 0.632160 0.580270 -0.652020
O24   O     O_R   0.376770 0.500000 0.580260 -0.616991
O25   O     O_R   0.623230 0.500000 0.419740 -0.636835
O26   O     O_R   0.376780 0.499980 0.419710 -0.605155
O27   O     O_R   0.623220 0.500020 0.580290 -0.601389
O28   O     O_2   0.139551 0.344708 0.368291 -0.531445
Zn1   Zn    Zn3+2 0.499990 0.500020 0.607200 0.979655
Zn2   Zn    Zn3+2 0.500010 0.499980 0.392800 0.979134

loop_
_geom_bond_atom_site_label_1
_geom_bond_atom_site_label_2
_ccdc_geom_bond_type
C51   O11   D    
H3    O6    S    
C57   O19   D    
C45   C60   A    
C34   C56   A    
C23   C45   A    
C29   C42   S    
C27   C29   S    
C43   H21   S    
C47   O6    S    
C14   C18   A    
C42   H20   S    
C7    C55   S    
O22   Zn2   S    
C50   O10   D    
C59   H15   S    
H8    O15   S    
C17   O27   A    
C11   N1    A    
C27   C33   S    
C16   C31   S    
C15   C19   A    
C12   C23   S    
C56   H17   S    
C48   O8    S    
C43   O2    D    
C6    C61   A    
C60   C62   A    
C35   C37   S    
C24   C26   A    
C18   C19   A    
C11   C14   A    
C4    C41   A    
C23   C40   A    
C13   H19   S    
C33   C36   S    
N2    Zn2   S    
C9    C58   S    
C32   C39   T    
C1    O1    A    
C9    N1    A    
C41   H12   S    
C28   C50   S    
C42   O28   D    
C22   C44   S    
C28   C35   S    
C22   C25   A    
C13   N2    A    
O25   Zn2   S    
C25   C47   S    
O1    Zn1   S    
C30   C33   S    
C2    C61   A    
C26   C48   S    
H4    O8    S    
C34   C41   A    
C6    C54   S    
C4    C7    A    
C17   O25   A    
C12   O23   A    
C1    C34   S    
C10   C21   A    
C51   O13   S    
C52   O15   S    
C48   O7    D    
C16   O24   A    
C54   O17   D    
N1    Zn1   S    
C3    C8    A    
C5    C7    A    
C6    C8    A    
C55   O18   D    
C52   O14   D    
C59   O21   D    
C30   C37   S    
C46   H2    S    
C58   O20   D    
C2    C4    A    
C8    C57   S    
C9    C20   A    
O12   Zn2   S    
C29   C36   S    
C53   O16   D    
C49   O9    D    
C40   H1    S    
C45   H16   S    
H7    O13   S    
C15   C24   A    
C3    C40   A    
C13   C15   A    
C35   C51   S    
C30   C43   S    
C53   H9    S    
O26   Zn2   S    
C16   O26   A    
C3    C62   A    
C5    C53   S    
C21   C25   A    
C10   N2    A    
C49   H5    S    
C5    C60   A    
C19   C21   A    
C58   H14   S    
C47   O5    D    
C44   H22   S    
C33   C52   S    
C46   O4    D    
C29   C35   S    
C31   C38   T    
C24   C46   S    
C57   H13   S    
C28   C30   S    
C10   C59   S    
C37   C39   S    
C14   C22   A    
C20   C26   A    
C27   C37   S    
C36   C38   S    
C18   C20   A    
C11   H18   S    
O23   Zn1   S    
C1    O22   A    
C55   H11   S    
C27   C49   S    
C54   H10   S    
C28   C36   S    
C12   O12   A    
C17   C32   S    
C56   C61   A    
C50   H6    S    
O24   Zn1   S    
C44   O3    D    
C2    C62   A    
O27   Zn1   S    
