data_mof_unit_22440.cif
_audit_creation_date              2013-03-05T16:30:42-0500
_audit_creation_method            fapswitch 2.2
_symmetry_space_group_name_H-M    P1
_symmetry_Int_Tables_number       1
_space_group_crystal_system       triclinic
_cell_length_a                    10.907941
_cell_length_b                    10.923805
_cell_length_c                    9.636233
_cell_angle_alpha                 90.146286
_cell_angle_beta                  89.579589
_cell_angle_gamma                 92.528481
_cell_volume                      1147.06548105

loop_
_atom_site_label
_atom_site_type_symbol
_atom_site_description
_atom_site_fract_x
_atom_site_fract_y
_atom_site_fract_z
_atom_type_partial_charge
O1    O     O_R   0.500000 0.319640 0.618810 -0.559662
O2    O     O_R   0.500010 0.319680 0.381230 -0.592027
C1    C     C_R   0.497937 0.262888 0.499718 0.826222
O3    O     O_R   0.321940 0.499980 0.618760 -0.590885
O4    O     O_R   0.321950 0.500020 0.381180 -0.588492
C2    C     C_R   0.265388 0.496688 0.500470 0.860164
Cu1   Cu    Cu3+1 0.499990 0.499980 0.640670 1.014581
Cu2   Cu    Cu3+1 0.500010 0.500020 0.359330 1.046263
O5    O     O_R   0.499990 0.680320 0.618770 -0.608833
O6    O     O_R   0.500000 0.680360 0.381190 -0.536456
O7    O     O_R   0.678050 0.499980 0.618820 -0.582547
O8    O     O_R   0.678060 0.500020 0.381240 -0.556390
C3    C     C_R   0.499018 0.737498 0.500396 0.813139
C4    C     C_R   0.734390 0.499440 0.499615 0.863154
C5    C     C_2   0.931910 0.466910 0.390618 -0.053877
C6    C     C_2   0.866826 0.503269 0.500169 -0.267357
H1    H     H_    0.885884 0.431795 0.298293 0.207184
H2    H     H_    0.910327 0.539554 0.592487 0.163568
C7    C     C_2   0.066240 0.477918 0.387640 -0.100303
C8    C     C_2   0.132738 0.485392 0.503966 -0.281222
H3    H     H_    0.110642 0.478332 0.286473 0.191058
H4    H     H_    0.090573 0.478006 0.605864 0.172409
C9    C     C_R   0.535816 0.066556 0.614694 0.017952
C10   C     C_R   0.499988 0.130228 0.498080 -0.081959
C11   C     C_R   0.470133 0.062880 0.377741 -0.106163
H5    H     H_    0.442572 0.108402 0.284004 0.202935
C12   C     C_R   0.467258 0.934765 0.380458 -0.070500
H6    H     H_    0.432766 0.885783 0.290935 0.233152
C13   C     C_R   0.500780 0.871335 0.500387 -0.084259
C14   C     C_R   0.540921 0.940619 0.615375 -0.024786
C15   C     C_3   0.512675 0.934168 0.768292 -0.384569
C16   C     C_3   0.502192 0.073477 0.765748 0.519947
H7    H     H_    0.592434 0.908652 0.829889 0.204848
C17   C     C_R   0.597941 0.547736 0.071681 0.155033
N1    N     N_R   0.500780 0.500930 0.147930 -0.209980
C18   C     C_R   0.412000 0.435656 0.075724 0.054499
C19   C     C_R   0.407719 0.441648 0.927562 0.048312
N2    N     N_R   0.500780 0.500890 0.852020 -0.207388
C20   C     C_R   0.602361 0.539735 0.925239 0.169495
C21   C     C_3   0.667481 0.661670 0.911396 -0.441839
C22   C     C_3   0.652121 0.676607 0.069046 0.475993
H8    H     H_    0.613611 0.721035 0.846512 0.171816
N3    N     N_R   0.597236 0.140068 0.847392 0.134793
O9    O     O_R   0.712958 0.123749 0.822959 -0.322019
O10   O     O_R   0.567647 0.214595 0.946381 -0.331119
C23   C     C_1   0.325483 0.354940 0.149067 0.343251
N4    N     N_1   0.256376 0.288889 0.206228 -0.248388
C24   C     C_1   0.301557 0.386034 0.860277 0.385123
N5    N     N_1   0.214255 0.341682 0.810110 -0.185047
C25   C     C_1   0.794630 0.654259 0.861238 0.427487
N6    N     N_1   0.895267 0.649818 0.823530 -0.235824
N7    N     N_R   0.765506 0.690546 0.150900 0.130452
O11   O     O_R   0.775182 0.772256 0.249201 -0.284618
O12   O     O_R   0.851289 0.612163 0.137900 -0.391012
N8    N     N_R   0.564215 0.771058 0.100257 0.095737
O13   O     O_R   0.446756 0.745346 0.092192 -0.397987
O14   O     O_R   0.602316 0.885654 0.098748 -0.319261
C26   C     C_1   0.398154 0.862280 0.800765 0.470782
N9    N     N_1   0.308403 0.805921 0.825781 -0.180785
N10   N     N_R   0.377050 0.112512 0.795102 0.104143
O15   O     O_R   0.336971 0.110846 0.922698 -0.315474
O16   O     O_R   0.297430 0.118412 0.695566 -0.362465

loop_
_geom_bond_atom_site_label_1
_geom_bond_atom_site_label_2
_geom_bond_distance
_ccdc_geom_bond_type
O4    Cu2   1.952111 S    
C5    C7    1.464966 S    
N8    O13   1.302352 A    
C15   H7    1.103049 S    
C18   C23   1.444824 S    
C19   N2    1.383014 A    
C22   N8    1.468292 S    
C11   C12   1.398775 A    
C2    C8    1.446916 S    
C22   N7    1.473799 S    
N1    C18   1.369960 A    
O8    C4    1.299776 A    
C14   C15   1.504388 S    
Cu2   O8    1.955140 S    
C9    C16   1.501009 S    
C7    C8    1.339985 D    
C21   H8    1.094461 S    
C25   N6    1.156795 T    
C11   H5    1.083070 S    
Cu1   Cu2   2.711057 S    
C6    H2    1.077711 S    
O6    C3    1.306118 A    
C10   C11   1.404300 A    
C19   C24   1.441317 S    
Cu1   O7    1.952109 S    
N3    O10   1.300601 A    
C1    C10   1.450357 S    
C13   C14   1.402108 A    
C17   C22   1.502755 S    
O3    Cu1   1.955141 S    
C21   C25   1.470927 S    
O4    C2    1.300451 A    
C15   C26   1.477855 S    
Cu2   O6    1.980699 S    
C24   N5    1.157644 T    
C7    H3    1.085295 S    
C16   N3    1.471540 S    
N7    O12   1.301089 A    
O2    C1    1.300401 A    
N8    O14   1.301576 A    
N3    O9    1.302256 A    
N2    C20   1.368972 A    
O7    C4    1.298896 A    
C4    C6    1.443406 S    
O3    C2    1.299717 A    
C12   C13   1.407846 A    
C16   N10   1.473171 S    
C9    C10   1.390568 A    
C5    C6    1.337128 D    
C9    C14   1.379325 A    
Cu1   O5    1.981805 S    
C12   H6    1.075497 S    
N7    O11   1.301527 A    
N10   O16   1.302259 A    
C17   N1    1.366455 A    
C3    C13   1.461280 S    
C20   C21   1.487481 S    
C5    H1    1.085601 S    
O5    C3    1.302229 A    
C23   N4    1.157667 T    
C18   C19   1.430587 A    
C21   C22   1.536205 S    
C26   N9    1.157453 T    
O1    Cu1   1.980700 S    
Cu1   N2    2.036696 S    
C15   C16   1.531366 S    
O2    Cu2   1.981805 S    
C17   C20   1.414226 A    
C8    H4    1.082914 S    
N10   O15   1.301832 A    
O1    C1    1.302817 A    
Cu2   N1    2.037104 S    
