data_mof_unit_10928.cif
_audit_creation_date              2012-12-10T20:37:25-0500
_audit_creation_method            fapswitch 2.2
_symmetry_space_group_name_H-M    P1
_symmetry_Int_Tables_number       1
_space_group_crystal_system       triclinic
_cell_length_a                    15.720197
_cell_length_b                    10.671253
_cell_length_c                    9.856438
_cell_angle_alpha                 90.018061
_cell_angle_beta                  90.12853
_cell_angle_gamma                 89.955593
_cell_volume                      1653.45412741

loop_
_atom_site_label
_atom_site_type_symbol
_atom_type_description
_atom_site_fract_x
_atom_site_fract_y
_atom_site_fract_z
_atom_type_partial_charge
C1    C     C_R   0.499234 0.259934 0.500160 0.969867
C2    C     C_3   0.083309 0.499663 0.500199 -0.190293
C3    C     C_3   0.972011 0.619044 0.524508 -0.272510
C4    C     C_3   0.916990 0.501834 0.500298 -0.074276
C5    C     C_3   0.027762 0.576909 0.404060 0.385709
C6    C     C_3   0.971008 0.461531 0.377662 -0.235598
C7    C     C_1   0.174069 0.498471 0.499804 0.173990
C8    C     C_1   0.826227 0.502308 0.500364 0.115962
C9    C     C_R   0.507215 0.061966 0.619110 0.004238
C10   C     C_R   0.488136 0.128441 0.501946 -0.116783
C11   C     C_R   0.448140 0.067982 0.392937 -0.263696
C12   C     C_R   0.337975 0.499429 0.499863 0.897078
C13   C     C_R   0.441039 0.937866 0.392713 0.452729
C14   C     C_R   0.477870 0.871031 0.502588 -0.220630
C15   C     C_R   0.500415 0.935207 0.620297 -0.005986
C16   C     C_3   0.573741 0.919006 0.715610 -0.426379
C17   C     C_3   0.582584 0.060999 0.713089 0.236704
C18   C     C_R   0.442875 0.428409 0.071068 0.155646
C19   C     C_R   0.560967 0.561759 0.072332 -0.158091
C20   C     C_R   0.560813 0.562289 0.928367 0.654942
C21   C     C_R   0.442906 0.428333 0.928420 0.066350
C22   C     C_3   0.348400 0.439833 0.922579 -0.389962
C23   C     C_R   0.493430 0.739573 0.499901 0.919689
C24   C     C_3   0.348417 0.439886 0.076491 -0.390725
C25   C     C_R   0.662082 0.501120 0.500112 0.944221
C26   C     C_3   0.971161 0.422844 0.598607 -0.220077
C27   C     C_3   0.026932 0.385107 0.476506 0.635636
C28   C     C_1   0.249252 0.498657 0.499663 -0.073127
C29   C     C_1   0.750959 0.502029 0.500305 -0.078773
C30   C     C_3   0.027908 0.539095 0.620102 0.306734
H1    H     H_    0.627342 0.866245 0.669168 0.228720
H2    H     H_    0.569053 0.105802 0.812582 0.123769
H3    H     H_    0.608819 0.614322 0.127052 0.194851
H4    H     H_    0.326960 0.530363 0.878237 0.241659
H5    H     H_    0.318051 0.355197 0.878040 0.229402
H6    H     H_    0.327040 0.530454 0.120732 0.256968
H7    H     H_    0.318145 0.355242 0.120880 0.222980
H8    H     H_    0.946411 0.359536 0.678665 0.222355
H9    H     H_    0.946203 0.429771 0.277877 0.216466
H10   H     H_    0.948072 0.715229 0.544228 0.211114
H11   H     H_    0.424733 0.121511 0.307219 0.201099
H12   H     H_    0.552908 0.882700 0.815887 0.228599
N1    N     N_R   0.499430 0.499140 0.142800 -0.133593
N2    N     N_R   0.499430 0.499180 0.857150 -0.162893
O1    O     O_R   0.500010 0.316790 0.614690 -0.617660
O2    O     O_R   0.500000 0.316760 0.385350 -0.619857
O3    O     O_R   0.376780 0.500010 0.614650 -0.632486
O4    O     O_R   0.376770 0.499970 0.385310 -0.597087
O5    O     O_R   0.500000 0.683240 0.614650 -0.596418
O6    O     O_R   0.499990 0.683210 0.385310 -0.559709
O7    O     O_R   0.623230 0.500030 0.614690 -0.532799
O8    O     O_R   0.623220 0.499990 0.385350 -0.628493
Zn1   Zn    Zn3+2 0.500010 0.500020 0.653130 1.039992
Zn2   Zn    Zn3+2 0.499990 0.499980 0.346870 1.024647
F1    F     F_    0.057138 0.265539 0.451992 -0.583684
S1    S     S_3+6 0.680677 0.110946 0.637418 0.053037
O9    O     O_2   0.691222 0.249099 0.660125 -0.265878
O10   O     O_2   0.753889 0.043620 0.703400 -0.241267
O11   O     O_3   0.681213 0.081592 0.469686 -0.517606
H13   H     H_    0.677447 0.989232 0.461863 0.353030
F2    F     F_    0.620556 0.629222 0.861161 -0.642210
S2    S     S_3+6 0.067067 0.678148 0.274978 0.118008
O12   O     O_2   0.120332 0.779246 0.338709 -0.208976
O13   O     O_2   0.120336 0.603730 0.177404 -0.219870
O14   O     O_3   0.984521 0.743006 0.192070 -0.493142
H14   H     H_    0.010667 0.795400 0.120485 0.414705
S3    S     S_3+6 0.067057 0.589745 0.780852 0.095843
O15   O     O_2   0.122807 0.489303 0.840330 -0.231550
O16   O     O_2   0.118088 0.707680 0.763802 -0.244032
O17   O     O_3   0.985032 0.616803 0.885971 -0.465166
H15   H     H_    0.950528 0.681912 0.839957 0.360926
S4    S     S_3+6 0.386676 0.865878 0.255428 0.065310
O18   O     O_2   0.333893 0.758505 0.306462 -0.269631
O19   O     O_2   0.329393 0.959326 0.186691 -0.253801
O20   O     O_3   0.458068 0.812900 0.142329 -0.558342
H16   H     H_    0.423895 0.769047 0.072366 0.370083

loop_
_geom_bond_atom_site_label_1
_geom_bond_atom_site_label_2
_ccdc_geom_bond_type
C18   C21   A    
C2    C7    S    
C12   O4    A    
C16   H1    S    
O4    Zn2   S    
C22   H5    S    
C26   C27   S    
O6    Zn2   S    
C12   C28   S    
C18   C24   S    
C8    C29   T    
S4    O20   S    
C5    C6    S    
C27   F1    S    
C1    O2    A    
C23   O5    A    
C15   C16   S    
S1    O9    D    
C20   F2    S    
S2    O13   D    
N2    Zn1   S    
C19   C20   A    
C19   N1    A    
C16   C17   S    
C2    C27   S    
C9    C10   A    
C30   S3    S    
C4    C8    S    
O3    Zn1   S    
O1    Zn1   S    
O11   H13   S    
C13   C14   A    
C12   O3    A    
C20   N2    A    
O8    Zn2   S    
C25   C29   S    
C22   H4    S    
S3    O15   D    
C4    C6    S    
C19   H3    S    
C26   H8    S    
C23   O6    A    
C7    C28   T    
S3    O16   D    
C14   C23   S    
C3    C30   S    
O20   H16   S    
C25   O7    A    
S2    O12   D    
C21   N2    A    
N1    Zn2   S    
C6    C27   S    
O2    Zn2   S    
C24   H7    S    
C24   H6    S    
C17   S1    S    
O17   H15   S    
S4    O19   D    
C3    H10   S    
C26   C30   S    
C22   C24   S    
C2    C5    S    
C3    C4    S    
C16   H12   S    
C9    C17   S    
S2    O14   S    
C14   C15   A    
C1    C10   S    
S4    O18   D    
C3    C5    S    
C4    C26   S    
C13   S4    S    
S1    O11   S    
C2    C30   S    
S3    O17   S    
C9    C15   A    
C25   O8    A    
C18   N1    A    
C11   C13   A    
C1    O1    A    
O5    Zn1   S    
S1    O10   D    
C5    S2    S    
C11   H11   S    
C10   C11   A    
O14   H14   S    
C17   H2    S    
C6    H9    S    
O7    Zn1   S    
C21   C22   S    
