data_mof_unit_43729.cif
_audit_creation_date              2012-12-11T17:02:12-0500
_audit_creation_method            fapswitch 2.2
_symmetry_space_group_name_H-M    P1
_symmetry_Int_Tables_number       1
_space_group_crystal_system       triclinic
_cell_length_a                    21.641426
_cell_length_b                    7.069788
_cell_length_c                    14.818683
_cell_angle_alpha                 90.00049
_cell_angle_beta                  106.023256
_cell_angle_gamma                 90.000073
_cell_volume                      2179.17909567

loop_
_atom_site_label
_atom_site_type_symbol
_atom_type_description
_atom_site_fract_x
_atom_site_fract_y
_atom_site_fract_z
_atom_type_partial_charge
O1    O     O_R   0.585850 0.505770 0.002130 -0.539948
O2    O     O_R   0.414150 0.005770 0.997870 -0.539943
O3    O     O_R   0.467530 0.173560 0.861970 -0.541324
O4    O     O_R   0.532470 0.673560 0.138030 -0.541331
C1    C     C_R   0.456246 0.344438 0.825062 0.752854
C2    C     C_R   0.543754 0.844440 0.174938 0.752839
O5    O     O_R   0.588690 0.175900 0.993250 -0.543638
O6    O     O_R   0.411310 0.675900 0.006750 -0.543645
O7    O     O_R   0.536170 0.007950 0.130090 -0.535720
O8    O     O_R   0.463830 0.507950 0.869910 -0.535726
C3    C     C_R   0.615105 0.344602 0.997925 0.743974
C4    C     C_R   0.384894 0.844602 0.002075 0.743961
O9    O     O_3   0.482630 0.339970 0.044740 -0.377022
O10   O     O_3   0.517370 0.839970 0.955260 -0.377023
V1    V     V_3+5 0.503220 0.064200 0.991700 1.451672
V2    V     V_3+5 0.496780 0.564200 0.008300 1.451653
C5    C     C_R   0.292509 0.009302 0.042152 0.164793
C6    C     C_R   0.707491 0.509301 0.957849 0.164777
C7    C     C_R   0.317042 0.852607 0.005465 -0.095991
C8    C     C_R   0.682958 0.352608 0.994536 -0.095982
C9    C     C_R   0.274858 0.699710 0.973852 -0.192129
C10   C     C_R   0.725141 0.199711 0.026149 -0.192123
H1    H     H_    0.291512 0.575311 0.945301 0.132162
H2    H     H_    0.708487 0.075314 0.054699 0.132160
C11   C     C_R   0.209501 0.711501 0.972201 -0.181798
C12   C     C_R   0.790499 0.211502 0.027800 -0.181799
H3    H     H_    0.177981 0.594653 0.943413 0.134058
H4    H     H_    0.822019 0.094655 0.056587 0.134057
C13   C     C_R   0.184226 0.877110 0.001546 -0.110659
C14   C     C_R   0.815774 0.377109 0.998454 -0.110658
C15   C     C_R   0.227888 0.021243 0.040290 0.099050
C16   C     C_R   0.772112 0.521242 0.959711 0.099054
C17   C     C_3   0.225227 0.227181 0.018314 -0.432229
C18   C     C_3   0.774774 0.727180 0.981688 -0.432224
C19   C     C_3   0.295768 0.214197 0.020630 -0.407312
C20   C     C_3   0.704233 0.714197 0.979372 -0.407320
H5    H     H_    0.216758 0.314176 0.076262 0.175628
H6    H     H_    0.783243 0.814174 0.923740 0.175629
H7    H     H_    0.193112 0.258473 0.947286 0.171789
H8    H     H_    0.806889 0.758474 0.052716 0.171788
H9    H     H_    0.328002 0.293428 0.080017 0.189425
H10   H     H_    0.671999 0.793426 0.919986 0.189424
H11   H     H_    0.304523 0.238451 0.951033 0.157302
H12   H     H_    0.695478 0.738452 0.048969 0.157304
C21   C     C_R   0.926526 0.886231 0.723381 -0.031533
C22   C     C_R   0.073474 0.386237 0.276619 -0.031534
C23   C     C_R   0.569631 0.851435 0.277440 -0.102182
C24   C     C_R   0.430369 0.351430 0.722559 -0.102185
C25   C     C_R   0.936648 0.920260 0.566176 -0.165089
C26   C     C_R   0.063353 0.420275 0.433824 -0.165088
C27   C     C_R   0.964741 0.914479 0.662659 -0.177541
C28   C     C_R   0.035260 0.414492 0.337342 -0.177541
C29   C     C_R   0.859981 0.864541 0.687747 -0.209992
C30   C     C_R   0.140020 0.364546 0.312252 -0.209992
C31   C     C_R   0.829826 0.873865 0.589938 0.085593
C32   C     C_R   0.170174 0.373876 0.410061 0.085593
C33   C     C_R   0.869787 0.901608 0.529471 0.140757
C34   C     C_R   0.130214 0.401621 0.470529 0.140757
C35   C     C_R   0.761658 0.859444 0.550413 0.055599
C36   C     C_R   0.238342 0.359455 0.449586 0.055598
C37   C     C_R   0.734749 0.873123 0.450808 0.065390
C38   C     C_R   0.265252 0.373133 0.549191 0.065388
C39   C     C_R   0.776977 0.899446 0.394097 -0.188439
C40   C     C_R   0.223024 0.399456 0.605903 -0.188438
C41   C     C_R   0.842915 0.912943 0.432827 -0.206009
C42   C     C_R   0.157085 0.412956 0.567174 -0.206010
C43   C     C_R   0.719489 0.832770 0.607122 -0.195529
C44   C     C_R   0.280512 0.332785 0.392876 -0.195527
C45   C     C_R   0.653570 0.819789 0.568369 -0.160166
C46   C     C_R   0.346431 0.319799 0.431630 -0.160158
C47   C     C_R   0.626650 0.832225 0.471691 0.119696
C48   C     C_R   0.373350 0.332230 0.528307 0.119693
C49   C     C_R   0.666507 0.859625 0.411352 0.092065
C50   C     C_R   0.333494 0.359632 0.588647 0.092066
C51   C     C_R   0.559778 0.816005 0.435311 -0.183686
C52   C     C_R   0.440222 0.316001 0.564688 -0.183693
C53   C     C_R   0.530373 0.824683 0.338504 -0.028470
C54   C     C_R   0.469627 0.324670 0.661495 -0.028483
C55   C     C_R   0.636314 0.870172 0.313790 -0.235913
C56   C     C_R   0.363687 0.370178 0.686209 -0.235914
H13   H     H_    0.873249 0.933924 0.386377 0.121563
H14   H     H_    0.126752 0.433938 0.613623 0.121563
H15   H     H_    0.663186 0.888385 0.263127 0.093397
H16   H     H_    0.336815 0.388398 0.736872 0.093397
H17   H     H_    0.623272 0.798928 0.614891 0.143565
H18   H     H_    0.376729 0.298939 0.385107 0.143574
H19   H     H_    0.967175 0.942199 0.520119 0.118196
H20   H     H_    0.032826 0.442217 0.479881 0.118196
H21   H     H_    0.016228 0.933095 0.690064 0.104842
H22   H     H_    0.983773 0.433110 0.309936 0.104842
H23   H     H_    0.833425 0.845293 0.738740 0.093604
H24   H     H_    0.166575 0.345291 0.261260 0.093604
H25   H     H_    0.760886 0.911033 0.318856 0.119042
H26   H     H_    0.239115 0.411041 0.681144 0.119042
H27   H     H_    0.735638 0.820738 0.682356 0.125018
H28   H     H_    0.264363 0.320759 0.317642 0.125018
H29   H     H_    0.530390 0.796416 0.483206 0.162785
H30   H     H_    0.469609 0.296409 0.516792 0.162795
O11   O     O_R   0.036080 0.231270 0.130120 -0.538389
O12   O     O_R   0.963920 0.731270 0.869880 -0.538389
O13   O     O_R   0.911300 0.558970 0.006750 -0.541045
O14   O     O_R   0.088700 0.058970 0.993250 -0.541046
C57   C     C_R   0.884848 0.389932 0.001851 0.692271
C58   C     C_R   0.115152 0.889932 0.998149 0.692271
O15   O     O_R   0.032450 0.561140 0.138040 -0.538593
O16   O     O_R   0.967550 0.061140 0.861960 -0.538593
O17   O     O_R   0.085870 0.728910 0.002130 -0.540217
O18   O     O_R   0.914130 0.228910 0.997870 -0.540217
C59   C     C_R   0.044908 0.392677 0.175099 0.692341
C60   C     C_R   0.955092 0.892675 0.824901 0.692342
O19   O     O_3   0.017320 0.394650 0.955270 -0.373948
O20   O     O_3   0.982680 0.894650 0.044730 -0.373948
V3    V     V_3+5 0.996780 0.670490 0.008300 1.410611
V4    V     V_3+5 0.003220 0.170490 0.991700 1.410611
C61   C     C_2   0.459067 0.805786 0.304561 0.719159
O21   O     O_2   0.429693 0.858633 0.225884 -0.582998
O22   O     O_R   0.425073 0.729910 0.363878 -0.668226
H31   H     H_    0.377006 0.724752 0.333333 0.297562
C62   C     C_2   0.540933 0.305756 0.695437 0.719164
O23   O     O_2   0.570307 0.358541 0.774126 -0.582998
O24   O     O_R   0.574927 0.229931 0.636106 -0.668232
H32   H     H_    0.622994 0.224751 0.666646 0.297566

loop_
_geom_bond_atom_site_label_1
_geom_bond_atom_site_label_2
_ccdc_geom_bond_type
C14   C16   A    
C39   C41   A    
O12   C60   A    
C31   C35   A    
O13   V3    S    
C25   H19   S    
C28   H22   S    
O1    C3    A    
C23   C55   A    
C56   H16   S    
O2    C4    A    
O11   V4    S    
O20   V4    S    
O3    V1    S    
O5    C3    A    
C44   H28   S    
O16   V4    S    
C18   H8    S    
O15   V3    S    
C7    C9    A    
C52   C54   A    
C17   C19   S    
C21   C27   A    
C24   C54   A    
C61   O21   D    
O11   C59   A    
C22   C28   A    
C51   H29   S    
C25   C33   A    
C36   C38   A    
O18   V4    S    
C45   C47   A    
O17   V3    S    
C38   C40   A    
C35   C43   A    
C20   H10   S    
C34   C42   A    
C25   C27   A    
C14   C57   S    
C29   H23   S    
C26   C28   A    
C15   C17   S    
C57   O18   A    
C19   H11   S    
C18   C20   S    
C48   C52   A    
C29   C31   A    
C21   C29   A    
O6    V2    S    
C50   C56   A    
C43   H27   S    
C2    O7    A    
O20   V3    S    
C22   C59   S    
C62   O24   S    
C11   C13   A    
C1    C24   S    
C30   C32   A    
C3    C8    S    
C35   C37   A    
C2    C23   S    
C26   C34   A    
C48   C50   A    
C47   C49   A    
C21   C60   S    
C61   O22   S    
C17   H5    S    
C32   C36   A    
C13   C58   S    
C43   C45   A    
C40   C42   A    
O4    V2    S    
C30   H24   S    
O14   V4    S    
C42   H14   S    
C41   H13   S    
O6    C4    A    
C22   C30   A    
C37   C39   A    
C49   C55   A    
O19   V3    S    
O1    V2    S    
C17   H7    S    
O14   C58   A    
O2    V1    S    
C51   C53   A    
O24   H32   S    
O4    C2    A    
C8    C10   A    
C12   C14   A    
C31   C33   A    
C5    C15   A    
C10   H2    S    
C20   H12   S    
C6    C16   A    
C23   C53   A    
C46   H18   S    
C45   H17   S    
O16   C60   A    
C9    C11   A    
C18   H6    S    
O12   V3    S    
C33   C41   A    
O3    C1    A    
C62   O23   D    
C26   H20   S    
C11   H3    S    
C39   H25   S    
C12   H4    S    
C37   C49   A    
C24   C56   A    
C9    H1    S    
C54   C62   S    
O7    V1    S    
C40   H26   S    
C1    O8    A    
C13   C15   A    
O8    V2    S    
O22   H31   S    
C27   H21   S    
C47   C51   A    
C6    C20   S    
O15   C59   A    
C4    C7    S    
O5    V1    S    
C5    C7    A    
C32   C34   A    
O19   V4    S    
C6    C8    A    
C19   H9    S    
C55   H15   S    
C36   C44   A    
O13   C57   A    
C10   C12   A    
O9    V2    S    
C44   C46   A    
O10   V1    S    
C38   C50   A    
C46   C48   A    
C5    C19   S    
C53   C61   S    
C52   H30   S    
C58   O17   A    
C16   C18   S    
