data_mof_unit_53263.cif
_audit_creation_date              2013-03-05T16:33:12-0500
_audit_creation_method            fapswitch 2.2
_symmetry_space_group_name_H-M    P1
_symmetry_Int_Tables_number       1
_space_group_crystal_system       triclinic
_cell_length_a                    27.803917
_cell_length_b                    10.817039
_cell_length_c                    9.537086
_cell_angle_alpha                 89.666823
_cell_angle_beta                  90.033072
_cell_angle_gamma                 90.30144
_cell_volume                      2868.24773677

loop_
_atom_site_label
_atom_site_type_symbol
_atom_site_description
_atom_site_fract_x
_atom_site_fract_y
_atom_site_fract_z
_atom_type_partial_charge
O1    O     O_R   0.500000 0.319640 0.618810 -0.527694
O2    O     O_R   0.500010 0.319680 0.381230 -0.593567
C1    C     C_R   0.500831 0.262216 0.500216 0.810198
O3    O     O_R   0.430260 0.500000 0.618780 -0.550697
O4    O     O_R   0.430270 0.500040 0.381190 -0.586650
C2    C     C_R   0.407449 0.499719 0.499906 0.803100
Cu1   Cu    Cu3+1 0.500000 0.499980 0.640670 0.985215
Cu2   Cu    Cu3+1 0.500000 0.500020 0.359330 0.943852
O5    O     O_R   0.499990 0.680320 0.618770 -0.580693
O6    O     O_R   0.500000 0.680360 0.381190 -0.582847
O7    O     O_R   0.569730 0.499960 0.618810 -0.588276
O8    O     O_R   0.569740 0.500000 0.381220 -0.582665
C3    C     C_R   0.501142 0.737651 0.499631 0.800284
C4    C     C_R   0.592612 0.498720 0.499942 0.820207
C5    C     C_R   0.177974 0.388286 0.465716 0.563849
O9    O     O_2   0.202988 0.284668 0.437949 -0.538197
N1    N     N_R   0.201945 0.495363 0.497114 -0.468200
C6    C     C_R   0.177680 0.601908 0.525760 0.531767
C7    C     C_R   0.278576 0.510216 0.624489 -0.108018
C8    C     C_R   0.328739 0.511360 0.625317 -0.224588
C9    C     C_R   0.329119 0.485129 0.372816 -0.218899
C10   C     C_R   0.278980 0.483824 0.372314 -0.103590
C11   C     C_R   0.253538 0.496363 0.498046 0.356633
C12   C     C_R   0.101744 0.493486 0.493644 -0.053455
C13   C     C_R   0.127438 0.385423 0.463453 -0.089165
C14   C     C_R   0.102489 0.278109 0.426516 -0.236184
C15   C     C_R   0.127203 0.603185 0.523841 0.005029
C16   C     C_R   0.354478 0.498790 0.499425 -0.037634
H1    H     H_    0.347961 0.475050 0.274204 0.153387
H2    H     H_    0.259824 0.473424 0.274160 0.139676
H3    H     H_    0.122497 0.198678 0.391255 0.196416
C17   C     C_R   0.645704 0.496053 0.498993 -0.091750
C18   C     C_R   0.974535 0.378450 0.486621 -0.029320
C19   C     C_R   0.974636 0.605688 0.500105 0.065082
C20   C     C_R   0.949289 0.491828 0.493394 0.064103
C21   C     C_R   0.948015 0.267792 0.504115 -0.211379
C22   C     C_R   0.898024 0.267213 0.508945 0.642809
C23   C     C_R   0.872469 0.378560 0.500772 -0.165676
C24   C     C_R   0.898193 0.491302 0.495419 -0.123281
C25   C     C_R   0.872813 0.603721 0.493085 -0.000788
C26   C     C_R   0.822389 0.601641 0.492870 0.564888
N2    N     N_R   0.798145 0.491528 0.496644 -0.462310
C27   C     C_R   0.821828 0.381152 0.501212 0.636849
C28   C     C_R   0.721830 0.498805 0.623456 -0.184368
C29   C     C_R   0.671770 0.501080 0.624907 -0.206476
C30   C     C_R   0.670798 0.487188 0.371507 -0.312148
C31   C     C_R   0.721425 0.488496 0.368810 0.551182
C32   C     C_R   0.746630 0.492048 0.496260 0.272693
O10   O     O_2   0.796310 0.274781 0.505692 -0.433084
C33   C     C_R   0.025451 0.379625 0.469409 -0.023487
C34   C     C_R   0.050740 0.492442 0.492090 0.010144
C35   C     C_R   0.025467 0.604816 0.512159 0.075788
C36   C     C_R   0.051926 0.273129 0.428142 0.476673
H4    H     H_    0.653647 0.505865 0.724722 0.156031
H5    H     H_    0.741503 0.502383 0.721406 0.157125
H6    H     H_    0.965284 0.180156 0.521419 0.205174
O11   O     O_2   0.202351 0.706547 0.554455 -0.537092
C37   C     C_R   0.101884 0.711634 0.550961 -0.149355
H7    H     H_    0.347298 0.522668 0.724253 0.156910
H8    H     H_    0.259105 0.519860 0.722082 0.140569
H9    H     H_    0.120550 0.796764 0.576482 0.183893
C38   C     C_R   0.948120 0.716783 0.494936 -0.199621
C39   C     C_R   0.898184 0.715569 0.490710 -0.110563
O12   O     O_2   0.797687 0.708699 0.489043 -0.520662
C40   C     C_R   0.051996 0.712731 0.544900 -0.214701
H10   H     H_    0.965071 0.806535 0.490179 0.140455
H11   H     H_    0.651140 0.477233 0.274586 0.157037
H12   H     H_    0.879511 0.803185 0.486633 0.213555
H13   H     H_    0.035047 0.799032 0.570732 0.132610
C41   C     C_R   0.507635 0.062556 0.625552 0.122779
C42   C     C_R   0.505777 0.129085 0.499855 -0.101334
C43   C     C_R   0.511282 0.065220 0.372753 -0.206272
H14   H     H_    0.512941 0.114007 0.273352 0.166634
C44   C     C_R   0.511557 0.936355 0.372332 -0.210890
H15   H     H_    0.513316 0.888916 0.272767 0.160705
C45   C     C_R   0.506352 0.870643 0.499027 -0.090159
C46   C     C_R   0.508025 0.935353 0.625064 0.123477
C47   C     C_3   0.476105 0.926143 0.750540 -0.499411
C48   C     C_3   0.475372 0.066375 0.750666 -0.401436
H16   H     H_    0.440542 0.883725 0.726466 0.206880
H17   H     H_    0.495010 0.886009 0.842787 0.199308
H18   H     H_    0.439368 0.105075 0.725849 0.222776
H19   H     H_    0.493586 0.106921 0.843583 0.217032
C49   C     C_R   0.520337 0.595750 0.072996 0.241428
N3    N     N_R   0.500300 0.500930 0.147930 -0.203572
C50   C     C_R   0.474122 0.415160 0.075605 -0.195989
H20   H     H_    0.455094 0.344380 0.134004 0.155659
C51   C     C_R   0.472533 0.417156 0.925220 0.572637
N4    N     N_R   0.500310 0.500890 0.852020 -0.223151
C52   C     C_R   0.520589 0.595312 0.925912 0.162477
C53   C     C_3   0.571513 0.638074 0.919919 -0.480446
C54   C     C_3   0.571247 0.639089 0.079135 -0.484809
H21   H     H_    0.595835 0.567043 0.876761 0.206868
H22   H     H_    0.575062 0.731732 0.872350 0.200344
H23   H     H_    0.595704 0.569314 0.125473 0.207675
H24   H     H_    0.574480 0.733439 0.123839 0.192587
O13   O     O_3   0.747335 0.476796 0.245192 -0.564722
C55   C     C_3   0.732143 0.564604 0.144571 -0.275400
H25   H     H_    0.726328 0.657684 0.191018 0.173095
H26   H     H_    0.699233 0.532012 0.089668 0.149719
H27   H     H_    0.760780 0.574781 0.064321 0.201256
O14   O     O_3   0.445941 0.331308 0.850177 -0.559548
C56   C     C_3   0.398933 0.318425 0.904474 -0.384695
H28   H     H_    0.375444 0.280598 0.820828 0.202903
H29   H     H_    0.383230 0.408367 0.937183 0.149784
H30   H     H_    0.398461 0.251074 0.992781 0.166035
F1    F     F_    0.875113 0.156705 0.523705 -0.610001
O15   O     O_3   0.028250 0.174208 0.365456 -0.567120
C57   C     C_3   0.044319 0.059664 0.419694 -0.341012
H31   H     H_    0.051638 0.062800 0.534561 0.149175
H32   H     H_    0.076470 0.027508 0.361666 0.187079
H33   H     H_    0.015558 0.989865 0.403081 0.195548

loop_
_geom_bond_atom_site_label_1
_geom_bond_atom_site_label_2
_geom_bond_distance
_ccdc_geom_bond_type
C17   C29   1.403419 A    
C1    C42   1.447373 S    
C7    C8    1.394728 A    
C36   O15   1.391157 S    
C12   C15   1.409611 A    
C54   H24   1.111533 S    
C48   H18   1.111898 S    
O13   C55   1.412317 S    
Cu1   Cu2   2.683160 S    
N3    C50   1.366049 A    
Cu1   O7    1.950065 S    
N1    C11   1.434472 S    
C25   C39   1.397359 A    
C44   C45   1.405457 A    
Cu2   N3    2.016130 S    
C21   C22   1.390710 A    
C22   F1    1.358174 S    
C57   H32   1.110145 S    
C23   C24   1.411234 A    
O7    C4    1.300474 A    
C47   H16   1.112271 S    
C5    C13   1.405419 A    
C5    O9    1.349817 S    
Cu1   N4    2.015759 S    
C19   C38   1.413747 A    
C18   C21   1.411700 A    
O15   C57   1.414385 S    
Cu1   O5    1.960687 S    
C19   C20   1.417549 A    
C26   N2    1.365822 A    
O5    C3    1.291628 A    
C6    O11   1.349736 S    
C39   H12   1.083515 S    
C2    C16   1.472776 S    
C41   C42   1.395682 A    
C47   H17   1.111834 S    
C37   H9    1.083514 S    
C14   H3    1.081392 S    
O1    Cu1   1.963059 S    
C9    C10   1.394066 A    
C41   C46   1.376099 A    
C49   C52   1.402807 A    
O3    Cu1   1.950135 S    
C33   C34   1.422767 A    
C45   C46   1.395127 A    
C33   C36   1.427683 A    
C44   H15   1.083214 S    
C38   H10   1.077686 S    
C34   C35   1.421195 A    
C12   C13   1.404493 A    
O3    C2    1.298746 A    
C57   H33   1.108842 S    
C24   C25   1.409236 A    
C47   C48   1.517154 S    
C27   O10   1.349091 S    
C8    C16   1.405745 A    
C18   C33   1.425231 A    
C46   C47   1.492833 S    
C9    H1    1.083137 S    
O6    C3    1.291862 A    
C54   H23   1.108387 S    
C30   H11   1.079208 S    
O1    C1    1.293821 A    
C20   C24   1.420770 A    
C22   C23   1.403377 A    
C21   H6    1.076707 S    
C53   H21   1.107501 S    
C37   C40   1.388371 A    
C31   C32   1.403320 A    
C3    C45   1.445070 S    
Cu2   O8    1.950130 S    
C38   C39   1.388993 A    
N1    C6    1.367522 A    
C56   H29   1.114731 S    
N2    C32   1.432362 S    
C49   N3    1.363461 A    
C8    H7    1.082434 S    
C43   C44   1.394029 A    
C25   C26   1.402039 A    
C9    C16   1.406053 A    
O8    C4    1.298344 A    
C29   H4    1.078982 S    
C55   H26   1.110818 S    
N2    C27   1.366976 A    
C14   C36   1.406697 A    
C53   C54   1.518580 S    
C28   C29   1.392284 A    
C7    C11   1.400474 A    
C5    N1    1.367895 A    
C30   C31   1.407896 A    
C10   H2    1.082891 S    
C41   C48   1.494123 S    
C50   H20   1.080465 S    
C17   C30   1.406162 A    
O2    Cu2   1.960689 S    
C6    C15   1.403698 A    
C4    C17   1.476636 S    
C43   H14   1.083192 S    
C15   C37   1.396806 A    
O4    Cu2   1.950068 S    
C51   O14   1.386041 S    
C7    H8    1.082849 S    
C55   H27   1.109344 S    
C19   C35   1.417974 A    
C31   O13   1.388741 S    
O2    C1    1.290947 A    
C13   C14   1.395992 A    
C23   C27   1.408437 A    
C57   H31   1.114797 S    
C53   H22   1.111576 S    
C48   H19   1.111658 S    
C28   H5    1.083037 S    
C52   C53   1.488219 S    
O4    C2    1.298183 A    
C12   C34   1.418163 A    
C40   H13   1.077807 S    
C18   C20   1.418109 A    
C56   H30   1.110411 S    
C50   C51   1.434931 A    
O14   C56   1.412044 S    
C42   C43   1.407524 A    
C51   N4    1.374813 A    
Cu2   O6    1.963057 S    
C55   H25   1.114933 S    
C56   H28   1.109381 S    
C10   C11   1.400204 A    
C49   C54   1.489984 S    
C26   O12   1.349801 S    
N4    C52   1.363672 A    
C35   C40   1.413893 A    
C28   C32   1.398171 A    
