data_mof_unit_62075.cif
_audit_creation_date              2012-10-26T19:37:42-0400
_audit_creation_method            fapswitch 2.2
_symmetry_space_group_name_H-M    P1
_symmetry_Int_Tables_number       1
_space_group_crystal_system       triclinic
_cell_length_a                    11.71051
_cell_length_b                    15.898242
_cell_length_c                    17.183532
_cell_angle_alpha                 94.995493
_cell_angle_beta                  92.120724
_cell_angle_gamma                 91.654396
_cell_volume                      3183.18011505

loop_
_atom_site_label
_atom_site_type_symbol
_atom_type_description
_atom_site_fract_x
_atom_site_fract_y
_atom_site_fract_z
_atom_type_partial_charge
C1    C     C_R   0.500890 0.490474 0.348746 0.591183
C2    C     C_R   0.475541 0.108700 0.481972 0.096890
C3    C     C_R   0.606467 0.845536 0.558839 0.198877
C4    C     C_R   0.393533 0.154464 0.441161 0.198877
C5    C     C_R   0.598161 0.756362 0.553971 0.546959
C6    C     C_R   0.401840 0.243638 0.446029 0.546962
C7    C     C_R   0.284001 0.500544 0.499839 0.555520
C8    C     C_R   0.715999 0.499456 0.500161 0.555519
C9    C     C_1   0.162373 0.501355 0.499922 0.052837
C10   C     C_1   0.837627 0.498645 0.500078 0.052837
C11   C     C_1   0.059903 0.500687 0.499973 0.022875
C12   C     C_R   0.499110 0.509526 0.651254 0.591185
C13   C     C_1   0.940097 0.499313 0.500027 0.022875
C14   C     C_R   0.505429 0.486364 0.262736 0.057311
C15   C     C_R   0.494570 0.513636 0.737264 0.057309
C16   C     C_R   0.470456 0.555204 0.221531 0.159911
C17   C     C_R   0.529551 0.444799 0.778470 0.159911
C18   C     C_R   0.470288 0.548975 0.140405 -0.033305
C19   C     C_R   0.529719 0.451030 0.859596 -0.033300
C20   C     C_R   0.508566 0.475953 0.098458 0.154778
C21   C     C_R   0.491435 0.524050 0.901542 0.154777
C22   C     C_R   0.544632 0.408560 0.138716 -0.101556
C23   C     C_R   0.543741 0.412646 0.220589 0.200255
C24   C     C_R   0.455362 0.591440 0.861282 -0.101555
C25   C     C_R   0.456252 0.587352 0.779409 0.200255
C26   C     C_R   0.432039 0.755930 0.470950 0.319331
C27   C     C_R   0.567961 0.244069 0.529050 0.319328
C28   C     C_R   0.435350 0.844309 0.475675 0.411034
C29   C     C_R   0.564649 0.155691 0.524325 0.411035
C30   C     C_R   0.524459 0.891300 0.518028 0.096890
Cu1   Cu    Cu3+1 0.494550 0.415220 0.496180 1.100907
Cu2   Cu    Cu3+1 0.505450 0.584780 0.503820 1.100910
F1    F     F_    0.649533 0.117093 0.562257 -0.544654
F2    F     F_    0.350467 0.882906 0.437743 -0.544654
F3    F     F_    0.675372 0.714260 0.595195 -0.532135
F4    F     F_    0.324628 0.285740 0.404805 -0.532134
H1    H     H_    0.558778 0.397774 0.889339 0.187424
H2    H     H_    0.366811 0.661478 0.405212 0.380714
H3    H     H_    0.692248 0.946723 0.603464 0.389336
H4    H     H_    0.307752 0.053277 0.396535 0.389335
H5    H     H_    0.441235 0.602233 0.110663 0.187423
H6    H     H_    0.574318 0.352672 0.105839 0.139668
H7    H     H_    0.425670 0.647327 0.894159 0.139668
H8    H     H_    0.498753 0.342513 0.714574 0.344946
H9    H     H_    0.501266 0.657491 0.285424 0.344943
H10   H     H_    0.605742 0.300168 0.222027 0.339995
H11   H     H_    0.394242 0.699827 0.777969 0.339996
H12   H     H_    0.633189 0.338522 0.594787 0.380711
N1    N     N_2   0.513046 0.467643 0.015872 -0.225912
N2    N     N_2   0.486954 0.532361 0.984128 -0.225911
N3    N     N_R   0.513630 0.712130 0.509560 -0.320459
N4    N     N_R   0.486370 0.287870 0.490440 -0.320460
N5    N     N_2   0.533565 0.982329 0.522242 -0.124273
N6    N     N_2   0.466435 0.017671 0.477758 -0.124274
O1    O     O_R   0.494910 0.420530 0.382500 -0.396155
O2    O     O_3   0.432605 0.628466 0.258801 -0.658787
O3    O     O_3   0.582212 0.346217 0.260204 -0.641998
O4    O     O_3   0.417774 0.653778 0.739793 -0.642002
O5    O     O_3   0.658110 0.283684 0.572411 -0.580718
O6    O     O_3   0.341890 0.716316 0.427589 -0.580716
O7    O     O_3   0.695874 0.884715 0.604220 -0.585899
O8    O     O_3   0.304126 0.115285 0.395779 -0.585899
O9    O     O_R   0.505090 0.579470 0.617500 -0.396155
O10   O     O_R   0.504100 0.563720 0.388950 -0.558894
O11   O     O_R   0.495900 0.436280 0.611050 -0.558903
O12   O     O_R   0.332600 0.428410 0.496780 -0.447477
O13   O     O_R   0.667400 0.571590 0.503220 -0.447477
O14   O     O_R   0.341800 0.571600 0.503230 -0.498522
O15   O     O_R   0.658200 0.428400 0.496770 -0.498525
O16   O     O_3   0.567409 0.371538 0.741202 -0.658787

loop_
_geom_bond_atom_site_label_1
_geom_bond_atom_site_label_2
_ccdc_geom_bond_type
C14   C23   A    
Cu1   O12   S    
C2    C4    A    
C16   O2    S    
Cu2   N3    S    
H8    O16   S    
C20   N1    S    
C29   F1    S    
C3    C30   A    
C11   C13   S    
C12   O11   A    
C26   C28   A    
Cu1   Cu2   S    
C12   C15   S    
Cu1   N4    S    
Cu2   O14   S    
C6    N4    A    
C7    C9    S    
C3    C5    A    
C28   C30   A    
C1    O1    A    
C28   F2    S    
C17   O16   S    
C27   O5    S    
C26   N3    A    
C24   C25   A    
C7    O12   A    
C9    C11   T    
C8    O15   A    
C22   H6    S    
C24   H7    S    
H12   O5    S    
Cu2   O13   S    
H2    O6    S    
C5    F3    S    
C8    C10   S    
C21   N2    S    
C19   C21   A    
C20   C22   A    
C18   C20   A    
C2    C29   A    
H10   O3    S    
H3    O7    S    
C30   N5    S    
C14   C16   A    
C15   C25   A    
C4    C6    A    
C27   C29   A    
C25   O4    S    
C3    O7    S    
N5    N6    D    
C1    O10   A    
C4    O8    S    
Cu1   O15   S    
H4    O8    S    
C27   N4    A    
Cu2   O10   S    
C8    O13   A    
C16   C18   A    
N1    N2    D    
C2    N6    S    
C21   C24   A    
C23   O3    S    
C12   O9    A    
Cu1   O11   S    
C22   C23   A    
C17   C19   A    
C1    C14   S    
C19   H1    S    
Cu1   O1    S    
C7    O14   A    
C15   C17   A    
C26   O6    S    
Cu2   O9    S    
C5    N3    A    
C18   H5    S    
H9    O2    S    
C6    F4    S    
H11   O4    S    
C10   C13   T    
