data_mof_unit_40272.cif
_audit_creation_date              2012-12-10T20:26:27-0500
_audit_creation_method            fapswitch 2.2
_symmetry_space_group_name_H-M    P1
_symmetry_Int_Tables_number       1
_space_group_crystal_system       triclinic
_cell_length_a                    10.731343
_cell_length_b                    10.669261
_cell_length_c                    9.899126
_cell_angle_alpha                 89.872472
_cell_angle_beta                  90.790806
_cell_angle_gamma                 90.936219
_cell_volume                      1133.14386019

loop_
_atom_site_label
_atom_site_type_symbol
_atom_type_description
_atom_site_fract_x
_atom_site_fract_y
_atom_site_fract_z
_atom_type_partial_charge
C1    C     C_R   0.498790 0.260482 0.499835 0.882366
C2    C     C_R   0.503071 0.128916 0.496577 -0.101218
C3    C     C_R   0.422216 0.062899 0.409618 -0.193546
C4    C     C_R   0.424865 0.933370 0.409510 -0.183618
C5    C     C_R   0.508869 0.872036 0.495753 -0.097100
C6    C     C_R   0.603769 0.939828 0.562409 -0.050155
C7    C     C_3   0.655061 0.934838 0.704997 0.309925
C8    C     C_3   0.645500 0.077570 0.707102 0.367814
C9    C     C_R   0.489218 0.390208 0.070595 0.160029
C10   C     C_R   0.518671 0.607773 0.071911 -0.099497
C11   C     C_R   0.517762 0.607856 0.928432 -0.123502
C12   C     C_R   0.262781 0.498503 0.499118 0.940497
C13   C     C_R   0.491060 0.390124 0.928477 0.183237
C14   C     C_3   0.387384 0.296089 0.918219 -0.507816
C15   C     C_3   0.384339 0.295497 0.071493 0.068447
C16   C     C_R   0.504069 0.739748 0.499729 0.860148
C17   C     C_R   0.737401 0.502748 0.500710 0.902833
C18   C     C_2   0.932539 0.524414 0.388261 -0.131641
C19   C     C_2   0.869224 0.516578 0.503135 -0.390287
C20   C     C_2   0.066735 0.532902 0.391140 -0.106153
C21   C     C_2   0.131076 0.489953 0.497213 -0.318936
C22   C     C_R   0.598921 0.067879 0.563524 -0.105940
H1    H     H_    0.886027 0.525531 0.290079 0.189671
H2    H     H_    0.532107 0.695284 0.125368 0.150666
H3    H     H_    0.529153 0.695481 0.875274 0.137108
H4    H     H_    0.303139 0.335039 0.867906 0.243294
H5    H     H_    0.416890 0.205404 0.876301 0.168164
H6    H     H_    0.412860 0.204644 0.116436 0.131488
H7    H     H_    0.913000 0.525673 0.602020 0.155730
H8    H     H_    0.112932 0.572579 0.303488 0.195983
H9    H     H_    0.088547 0.445215 0.583906 0.144256
H10   H     H_    0.353112 0.110777 0.348566 0.169399
H11   H     H_    0.357192 0.881343 0.348589 0.155190
H12   H     H_    0.593011 0.887817 0.779374 0.026264
H13   H     H_    0.572744 0.109187 0.776738 0.041801
N1    N     N_R   0.499170 0.499140 0.142800 -0.091735
N2    N     N_R   0.499170 0.499180 0.857150 -0.096327
O1    O     O_R   0.500020 0.316790 0.614690 -0.619594
O2    O     O_R   0.500000 0.316760 0.385350 -0.611358
O3    O     O_R   0.319080 0.500020 0.614640 -0.617772
O4    O     O_R   0.319070 0.499980 0.385300 -0.568177
O5    O     O_R   0.500000 0.683240 0.614650 -0.640957
O6    O     O_R   0.499980 0.683210 0.385310 -0.626505
O7    O     O_R   0.680930 0.500020 0.614700 -0.623272
O8    O     O_R   0.680920 0.499980 0.385360 -0.611826
Zn1   Zn    Zn3+2 0.500010 0.500020 0.653130 0.951418
Zn2   Zn    Zn3+2 0.499990 0.499980 0.346870 0.979610
O9    O     O_3   0.762052 0.140023 0.734385 -0.553063
C23   C     C_3   0.826294 0.179340 0.617697 -0.124248
H14   H     H_    0.771191 0.248074 0.558746 0.127644
H15   H     H_    0.850655 0.097990 0.553835 0.180783
H16   H     H_    0.914593 0.226812 0.649535 0.166293
Br1   Br    Br    0.226773 0.356682 0.136275 -0.517130
O10   O     O_3   0.781334 0.899053 0.712296 -0.558223
C24   C     C_3   0.789928 0.768749 0.697179 -0.217167
H17   H     H_    0.762146 0.741432 0.592982 0.154059
H18   H     H_    0.733737 0.717150 0.773317 0.160496
H19   H     H_    0.888598 0.742266 0.712685 0.182148

loop_
_geom_bond_atom_site_label_1
_geom_bond_atom_site_label_2
_ccdc_geom_bond_type
C2    C22   A    
C9    N1    A    
C8    C22   S    
C24   H17   S    
C8    O9    S    
C12   O3    A    
C6    C7    S    
C14   H5    S    
C13   N2    A    
C14   C15   S    
C23   H16   S    
C23   H15   S    
C24   H18   S    
C2    C3    A    
O4    Zn2   S    
C17   O7    A    
C7    C8    S    
C20   H8    S    
C13   C14   S    
C14   H4    S    
O3    Zn1   S    
C21   H9    S    
C16   O6    A    
C15   H6    S    
C12   O4    A    
C1    O1    A    
C5    C6    A    
C15   Br1   S    
O9    C23   S    
C17   C19   S    
O7    Zn1   S    
C1    C2    S    
C18   C20   S    
O8    Zn2   S    
C9    C15   S    
C3    H10   S    
C7    H12   S    
O1    Zn1   S    
C10   C11   A    
C1    O2    A    
C3    C4    A    
C6    C22   A    
C16   O5    A    
C20   C21   D    
N1    Zn2   S    
O2    Zn2   S    
C23   H14   S    
O5    Zn1   S    
C24   H19   S    
C11   N2    A    
C11   H3    S    
C4    H11   S    
C18   C19   D    
C5    C16   S    
C9    C13   A    
C7    O10   S    
C10   H2    S    
N2    Zn1   S    
O10   C24   S    
O6    Zn2   S    
C12   C21   S    
C18   H1    S    
C17   O8    A    
C4    C5    A    
C10   N1    A    
C8    H13   S    
C19   H7    S    
