data_mof_unit_56407.cif
_audit_creation_date              2012-12-10T17:01:39-0500
_audit_creation_method            fapswitch 2.2
_symmetry_space_group_name_H-M    P1
_symmetry_Int_Tables_number       1
_space_group_crystal_system       triclinic
_cell_length_a                    9.882984
_cell_length_b                    11.091334
_cell_length_c                    12.996996
_cell_angle_alpha                 89.272198
_cell_angle_beta                  75.448311
_cell_angle_gamma                 110.951439
_cell_volume                      1279.48469781

loop_
_atom_site_label
_atom_site_type_symbol
_atom_type_description
_atom_site_fract_x
_atom_site_fract_y
_atom_site_fract_z
_atom_type_partial_charge
C1    C     C_R   0.441033 0.253372 0.500708 0.727710
C2    C     C_R   0.560883 0.745157 0.487286 0.762615
C3    C     C_2   0.085537 0.520991 0.496995 0.450464
C4    C     C_2   0.918594 0.499260 0.517766 0.460813
C5    C     C_R   0.472907 0.495069 0.702648 0.912577
C6    C     C_R   0.527229 0.505725 0.297290 0.847523
C7    C     C_R   0.543358 0.511047 0.182690 -0.425193
C8    C     C_R   0.456640 0.488869 0.817180 -0.440153
C9    C     C_R   0.299972 0.415161 0.998767 0.664072
C10   C     C_R   0.700197 0.582633 0.000970 0.663094
C11   C     C_R   0.314424 0.425157 0.889887 0.436283
C12   C     C_R   0.686059 0.571466 0.109728 0.407155
C13   C     C_R   0.584563 0.544162 0.854149 0.627420
C14   C     C_R   0.415114 0.456893 0.145843 0.586761
C15   C     C_R   0.571840 0.532169 0.963380 -0.361450
C16   C     C_R   0.428012 0.467576 0.036520 -0.344993
C17   C     C_2   0.416129 0.112360 0.493305 0.133447
C18   C     C_2   0.596951 0.879826 0.448530 0.234511
C19   C     C_2   0.539054 0.078334 0.467592 0.354334
C20   C     C_2   0.525771 0.947971 0.509868 0.331087
Cu1   Cu    Cu3+1 0.647370 0.522180 0.481340 1.012122
Cu2   Cu    Cu3+1 0.352630 0.477820 0.518660 1.012694
H1    H     H_    0.936702 0.594215 0.378039 0.177115
H2    H     H_    0.054233 0.355440 0.582993 0.164588
N1    N     N_2   0.131210 0.444490 0.546730 -0.287617
N2    N     N_2   0.868790 0.555510 0.453270 -0.315810
O1    O     O_R   0.578710 0.332530 0.490040 -0.564861
O2    O     O_R   0.421290 0.667470 0.509960 -0.557543
O3    O     O_R   0.329810 0.295070 0.521560 -0.597066
O4    O     O_R   0.670190 0.704930 0.478440 -0.582325
O5    O     O_R   0.604230 0.515670 0.637800 -0.479397
O6    O     O_R   0.395770 0.484330 0.362200 -0.542386
O7    O     O_R   0.355330 0.478200 0.669330 -0.531311
O8    O     O_R   0.644670 0.521800 0.330670 -0.556164
F1    F     F_    0.278376 0.391767 0.216378 -0.609374
F2    F     F_    0.720815 0.611379 0.783805 -0.566319
F3    F     F_    0.812559 0.622108 0.143212 -0.632820
F4    F     F_    0.189028 0.369691 0.855912 -0.607840
F5    F     F_    0.160397 0.352986 0.066432 -0.577677
F6    F     F_    0.840044 0.642887 0.933162 -0.576547
O9    O     O_3   0.480806 0.914136 0.620290 -0.636226
C21   C     C_3   0.322590 0.859187 0.660475 0.060232
H3    H     H_    0.265913 0.803477 0.602411 0.227942
H4    H     H_    0.279603 0.937284 0.684334 0.184970
C22   C     C_3   0.281031 0.766929 0.760798 -0.666262
H5    H     H_    0.329286 0.820604 0.822809 0.238445
H6    H     H_    0.156568 0.722201 0.792802 0.268870
H7    H     H_    0.325714 0.688971 0.741911 0.253354
O10   O     O_3   0.682333 0.169099 0.417390 -0.596796
C23   C     C_3   0.710658 0.174048 0.304235 0.093570
H8    H     H_    0.623466 0.096619 0.276249 0.142396
H9    H     H_    0.820951 0.164338 0.271391 0.247475
C24   C     C_3   0.725098 0.303076 0.254428 -0.668554
H10   H     H_    0.801304 0.383614 0.286878 0.285556
H11   H     H_    0.610889 0.305395 0.270622 0.208823
H12   H     H_    0.772324 0.312165 0.166332 0.231901
O11   O     O_3   0.703575 0.937105 0.351259 -0.626724
C25   C     C_3   0.706031 0.849520 0.273245 0.041131
H13   H     H_    0.590405 0.786012 0.272210 0.101032
H14   H     H_    0.770107 0.789823 0.287741 0.229749
C26   C     C_3   0.786468 0.925476 0.162852 -0.706608
H15   H     H_    0.901501 0.993101 0.161279 0.273845
H16   H     H_    0.795796 0.857598 0.101894 0.248211
H17   H     H_    0.722241 0.981633 0.141835 0.216870
O12   O     O_3   0.276594 0.011600 0.503459 -0.636581
C27   C     C_3   0.148713 0.041651 0.548468 0.023423
H18   H     H_    0.134839 0.107165 0.489882 0.206270
H19   H     H_    0.155184 0.084405 0.624972 0.168458
C28   C     C_3   0.009070 0.917047 0.573226 -0.652469
H20   H     H_    0.016535 0.847976 0.632175 0.265440
H21   H     H_    0.906998 0.939533 0.607209 0.215530
H22   H     H_    0.998253 0.870581 0.498984 0.256273
O13   O     O_3   0.828516 0.450630 0.621230 -0.509323
C29   C     C_3   0.767069 0.313104 0.636063 0.085326
H23   H     H_    0.820351 0.265967 0.571398 0.131306
H24   H     H_    0.645717 0.278954 0.641028 0.188986
C30   C     C_3   0.775492 0.265672 0.744052 -0.749274
H25   H     H_    0.893178 0.302656 0.749765 0.274934
H26   H     H_    0.706775 0.300305 0.809391 0.259581
H27   H     H_    0.730619 0.157776 0.755124 0.215248
O14   O     O_3   0.188877 0.643114 0.449665 -0.574547
C31   C     C_3   0.223573 0.653808 0.336597 0.074776
H28   H     H_    0.148050 0.572663 0.303541 0.159533
H29   H     H_    0.338648 0.655979 0.303754 0.179379
C32   C     C_3   0.227354 0.784332 0.294635 -0.781752
H30   H     H_    0.317014 0.864611 0.317079 0.258042
H31   H     H_    0.252211 0.792370 0.206065 0.224549
H32   H     H_    0.118206 0.795282 0.328478 0.254150

loop_
_geom_bond_atom_site_label_1
_geom_bond_atom_site_label_2
_ccdc_geom_bond_type
C27   H19   S    
Cu1   N2    S    
C8    C13   A    
Cu2   O3    S    
C2    C18   S    
O9    C21   S    
C24   H11   S    
C6    O6    A    
C19   C20   S    
O14   C31   S    
C24   H10   S    
Cu1   O5    S    
C29   H24   S    
C9    C16   A    
C10   C15   A    
C24   H12   S    
C27   C28   S    
C25   H14   S    
C15   C16   A    
C9    F5    S    
C10   F6    S    
O13   C29   S    
H1    N2    S    
C12   F3    S    
C28   H21   S    
C7    C14   A    
Cu2   N1    S    
C5    O7    A    
C3    O14   S    
C23   H9    S    
C30   H25   S    
C25   C26   S    
C30   H26   S    
C27   H18   S    
Cu1   O1    S    
Cu2   O2    S    
Cu1   Cu2   S    
C28   H20   S    
C21   H4    S    
C10   C12   A    
C20   O9    S    
C22   H6    S    
C7    C12   A    
C23   C24   S    
C29   H23   S    
C32   H31   S    
C3    N1    D    
H2    N1    S    
C13   F2    S    
C14   F1    S    
Cu1   O8    S    
C22   H7    S    
C25   H13   S    
C32   H30   S    
C29   C30   S    
C6    O8    A    
C21   C22   S    
C26   H17   S    
C19   O10   S    
C18   O11   S    
C1    O3    A    
C23   H8    S    
C9    C11   A    
C4    O13   S    
Cu2   O6    S    
O12   C27   S    
C31   H29   S    
C13   C15   A    
C14   C16   A    
C21   H3    S    
C3    C4    S    
C28   H22   S    
C32   H32   S    
C30   H27   S    
Cu2   O7    S    
C17   O12   S    
C26   H16   S    
C5    C8    S    
C4    N2    D    
C6    C7    S    
C31   C32   S    
Cu1   O4    S    
C1    C17   S    
C2    O4    A    
O11   C25   S    
C8    C11   A    
C17   C19   D    
C18   C20   D    
C26   H15   S    
C22   H5    S    
O10   C23   S    
C1    O1    A    
C11   F4    S    
C2    O2    A    
C31   H28   S    
C5    O5    A    
