data_mof_unit_20952.cif
_audit_creation_date              2012-12-10T16:53:32-0500
_audit_creation_method            fapswitch 2.2
_symmetry_space_group_name_H-M    P1
_symmetry_Int_Tables_number       1
_space_group_crystal_system       triclinic
_cell_length_a                    7.775793
_cell_length_b                    8.649993
_cell_length_c                    13.637259
_cell_angle_alpha                 92.207136
_cell_angle_beta                  78.800929
_cell_angle_gamma                 93.812934
_cell_volume                      897.484877811

loop_
_atom_site_label
_atom_site_type_symbol
_atom_type_description
_atom_site_fract_x
_atom_site_fract_y
_atom_site_fract_z
_atom_type_partial_charge
C1    C     C_R   0.546438 0.793876 0.490635 0.900404
C2    C     C_1   0.566892 0.501977 0.120859 -0.030071
C3    C     C_2   0.571327 0.954445 0.469432 -0.060596
C4    C     C_2   0.429042 0.043441 0.485544 -0.034038
C5    C     C_3   0.104979 0.467334 0.031218 -0.721007
C6    C     C_3   0.790122 0.711553 0.962903 -0.789330
C7    C     C_3   0.788929 0.038696 0.326798 -0.747987
C8    C     C_3   0.138057 0.988761 0.593009 -0.703562
C9    C     C_R   0.454944 0.205914 0.496112 0.932429
C10   C     C_R   0.470356 0.500988 0.687025 0.911373
C11   C     C_R   0.529539 0.498298 0.312973 0.888093
C12   C     C_1   0.551166 0.500677 0.208939 -0.221454
C13   C     C_1   0.447028 0.487126 0.790591 -0.218304
C14   C     C_2   0.572952 0.501701 0.016662 0.167231
C15   C     C_2   0.424901 0.460004 0.981795 0.163634
C16   C     C_1   0.430507 0.473262 0.878049 -0.021110
H1    H     H_    0.025221 0.379902 0.425977 0.198164
H2    H     H_    0.693945 0.785214 0.939793 0.241132
H3    H     H_    0.843803 0.961692 0.458685 0.240264
H4    H     H_    0.923051 0.095061 0.306243 0.229896
H5    H     H_    0.694851 0.114968 0.304028 0.239692
H6    H     H_    0.784570 0.925268 0.285883 0.224636
H7    H     H_    0.214990 0.907872 0.441134 0.243667
H8    H     H_    0.097362 0.869128 0.617985 0.225932
H9    H     H_    0.019231 0.050780 0.589217 0.232870
H10   H     H_    0.206230 0.049222 0.649411 0.227752
H11   H     H_    0.974167 0.619126 0.574408 0.183892
H12   H     H_    0.268039 0.380816 0.118057 0.226622
H13   H     H_    0.111104 0.594001 0.048255 0.239416
H14   H     H_    0.991091 0.411999 0.082687 0.242328
H15   H     H_    0.083900 0.445582 0.953516 0.259938
H16   H     H_    0.754787 0.508430 0.880034 0.231780
H17   H     H_    0.920604 0.735275 0.914219 0.237888
H18   H     H_    0.802082 0.741700 0.041328 0.251917
N1    N     N_2   0.954190 0.457600 0.473930 -0.163760
N2    N     N_2   0.045810 0.542400 0.526070 -0.176438
N3    N     N_2   0.265218 0.401990 0.044586 -0.318382
N4    N     N_2   0.735300 0.549546 0.953062 -0.311338
N5    N     N_2   0.747100 0.015985 0.433541 -0.284217
N6    N     N_2   0.250221 0.984185 0.494858 -0.302814
O1    O     O_R   0.388300 0.738660 0.506400 -0.612912
O2    O     O_R   0.611700 0.261340 0.493600 -0.593223
O3    O     O_R   0.679920 0.711490 0.489690 -0.634077
O4    O     O_R   0.320080 0.288510 0.510310 -0.609566
O5    O     O_R   0.333200 0.515510 0.649910 -0.607925
O6    O     O_R   0.666800 0.484490 0.350090 -0.611015
O7    O     O_R   0.624820 0.488340 0.633200 -0.619855
O8    O     O_R   0.375180 0.511660 0.366800 -0.626714
Zn1   Zn    Zn3+2 0.305280 0.518140 0.511160 0.935002
Zn2   Zn    Zn3+2 0.694720 0.481860 0.488840 0.943741

loop_
_geom_bond_atom_site_label_1
_geom_bond_atom_site_label_2
_ccdc_geom_bond_type
O4    Zn1   S    
C11   C12   S    
C6    N4    S    
O3    Zn2   S    
C5    N3    S    
H11   N2    S    
C14   N4    S    
C7    H6    S    
C8    H10   S    
O6    Zn2   S    
N1    N2    D    
C6    H17   S    
O5    Zn1   S    
C2    C12   T    
C10   O5    A    
N1    Zn2   S    
C9    O2    A    
C3    N5    S    
C3    C4    D    
C8    H9    S    
C11   O8    A    
H3    N5    S    
H12   N3    S    
O2    Zn2   S    
C2    C14   S    
O1    Zn1   S    
O8    Zn1   S    
C8    H8    S    
C7    H4    S    
O7    Zn2   S    
C5    H13   S    
H16   N4    S    
C6    H2    S    
C15   C16   S    
C4    N6    S    
C8    N6    S    
C5    H14   S    
C13   C16   T    
C1    O1    A    
C10   O7    A    
H7    N6    S    
C7    N5    S    
C14   C15   D    
C15   N3    S    
C9    O4    A    
C5    H15   S    
H1    N1    S    
C1    C3    S    
C4    C9    S    
C7    H5    S    
C1    O3    A    
N2    Zn1   S    
C6    H18   S    
C11   O6    A    
C10   C13   S    
