data_mof_unit_54719.cif
_audit_creation_date              2012-10-26T20:09:45-0400
_audit_creation_method            fapswitch 2.2
_symmetry_space_group_name_H-M    P1
_symmetry_Int_Tables_number       1
_space_group_crystal_system       triclinic
_cell_length_a                    10.729586
_cell_length_b                    9.415736
_cell_length_c                    15.884544
_cell_angle_alpha                 89.966385
_cell_angle_beta                  90.128759
_cell_angle_gamma                 90.009805
_cell_volume                      1604.76266767

loop_
_atom_site_label
_atom_site_type_symbol
_atom_type_description
_atom_site_fract_x
_atom_site_fract_y
_atom_site_fract_z
_atom_type_partial_charge
C1    C     C_R   0.259644 0.500196 0.499952 0.552941
C2    C     C_3   0.928207 0.423270 0.579189 -0.232094
C3    C     C_3   0.071521 0.424448 0.420331 -0.230257
C4    C     C_3   0.121689 0.500914 0.499925 0.045927
C5    C     C_3   0.878057 0.500932 0.499952 0.047317
C6    C     C_R   0.499852 0.500029 0.340295 0.561676
C7    C     C_3   0.927632 0.424693 0.420264 -0.232772
C8    C     C_3   0.595407 0.083819 0.560413 -0.107153
C9    C     C_3   0.595352 0.916133 0.560449 -0.106630
C10   C     C_3   0.377998 0.083646 0.528213 -0.107682
C11   C     C_3   0.377970 0.916282 0.528134 -0.107606
C12   C     C_3   0.609275 0.588144 0.951413 -0.219634
C13   C     C_3   0.527734 0.083672 0.417199 -0.089141
C14   C     C_3   0.527807 0.916498 0.417212 -0.093055
C15   C     C_R   0.740110 0.500209 0.499974 0.547526
C16   C     C_R   0.499929 0.499950 0.659854 0.552441
C17   C     C_3   0.374410 0.563973 0.048256 0.131082
C18   C     C_3   0.507976 0.342946 0.048446 0.117165
C19   C     C_3   0.511556 0.345004 0.950504 -0.196263
C20   C     C_3   0.375459 0.562516 0.950258 -0.192812
C21   C     C_1   0.499785 0.499747 0.749488 -0.035934
C22   C     C_3   0.499417 0.499147 0.083118 0.007127
C23   C     C_3   0.610596 0.587054 0.048856 -0.197483
C24   C     C_3   0.498913 0.498766 0.917178 -0.029270
C25   C     C_1   0.499504 0.499352 0.825019 -0.072930
C26   C     C_1   0.499688 0.499474 0.175289 0.035903
C27   C     C_1   0.499753 0.499991 0.250795 0.041459
C28   C     C_3   0.071226 0.655652 0.500168 -0.233504
C29   C     C_3   0.072074 0.423482 0.579247 -0.233349
C30   C     C_3   0.928563 0.655662 0.500418 -0.232301
Cu1   Cu    Cu3+1 0.499860 0.642410 0.500040 0.888462
Cu2   Cu    Cu3+1 0.499860 0.357590 0.500040 0.882315
H1    H     H_    0.295275 0.498481 0.926931 0.104022
H2    H     H_    0.578159 0.877358 0.625501 0.125422
H3    H     H_    0.689769 0.122067 0.542668 0.112382
H4    H     H_    0.689701 0.877911 0.542765 0.111407
H5    H     H_    0.353434 0.123423 0.591993 0.118035
H6    H     H_    0.353184 0.876182 0.591830 0.117904
H7    H     H_    0.456898 0.121086 0.371022 0.153694
H8    H     H_    0.457076 0.879033 0.370990 0.159831
H9    H     H_    0.619544 0.123435 0.394798 0.137618
H10   H     H_    0.619698 0.876930 0.394904 0.128053
H11   H     H_    0.303339 0.120812 0.484838 0.117206
H12   H     H_    0.434261 0.278282 0.925432 0.110633
H13   H     H_    0.303464 0.879416 0.484592 0.118486
H14   H     H_    0.296549 0.494546 0.069485 0.116287
H15   H     H_    0.421545 0.286206 0.067710 0.125162
H16   H     H_    0.599770 0.298348 0.926305 0.187740
H17   H     H_    0.363431 0.671245 0.923973 0.190446
H18   H     H_    0.607410 0.697506 0.073007 0.200714
H19   H     H_    0.700360 0.543657 0.072037 0.173872
H20   H     H_    0.601551 0.699576 0.928547 0.160266
H21   H     H_    0.699021 0.544803 0.927582 0.146992
H22   H     H_    0.104913 0.713847 0.443558 0.131161
H23   H     H_    0.894026 0.714422 0.444143 0.127462
H24   H     H_    0.106509 0.311982 0.580767 0.117520
H25   H     H_    0.105772 0.713540 0.556722 0.115747
H26   H     H_    0.107005 0.477155 0.637092 0.113843
H27   H     H_    0.894903 0.712988 0.557299 0.116219
H28   H     H_    0.893456 0.476537 0.637105 0.113699
H29   H     H_    0.701425 0.284606 0.215314 0.344468
H30   H     H_    0.173881 0.875261 0.075114 0.376671
H31   H     H_    0.894009 0.311667 0.580486 0.117878
H32   H     H_    0.106306 0.478577 0.362660 0.133188
H33   H     H_    0.105687 0.312868 0.418539 0.123613
H34   H     H_    0.892724 0.479237 0.362662 0.120691
H35   H     H_    0.893128 0.313239 0.418216 0.124948
H36   H     H_    0.578314 0.122557 0.625458 0.125491
N1    N     N_3   0.500250 0.143650 0.501830 -0.235925
N2    N     N_3   0.500250 0.856350 0.501830 -0.234958
O1    O     O_R   0.317570 0.620260 0.500050 -0.513850
O2    O     O_2   0.758624 0.293879 0.061723 -0.319761
O3    O     O_3   0.629940 0.227147 0.195268 -0.522844
O4    O     O_2   0.340365 0.745787 0.180724 -0.290365
O5    O     O_2   0.422813 0.849038 0.050326 -0.263623
O6    O     O_3   0.189767 0.777641 0.054545 -0.521619
O7    O     O_R   0.317570 0.379740 0.500050 -0.516691
O8    O     O_R   0.499890 0.620310 0.379470 -0.494588
O9    O     O_R   0.499890 0.379690 0.379470 -0.500235
O10   O     O_R   0.682190 0.620260 0.500020 -0.516797
O11   O     O_R   0.682190 0.379740 0.500020 -0.516062
O12   O     O_R   0.499870 0.620210 0.620600 -0.503294
O13   O     O_R   0.499870 0.379790 0.620600 -0.503191
O14   O     O_2   0.621457 0.087950 0.055483 -0.206295
S1    S     S_3+6 0.634688 0.236084 0.089484 -0.003063
S2    S     S_3+6 0.335656 0.739811 0.086238 -0.017081

loop_
_geom_bond_atom_site_label_1
_geom_bond_atom_site_label_2
_ccdc_geom_bond_type
C16   C21   S    
C1    O7    A    
C18   H15   S    
C13   H9    S    
O2    S1    D    
C11   N2    S    
Cu1   O10   S    
C15   O11   A    
C28   H25   S    
C2    H31   S    
Cu2   O11   S    
C12   C23   S    
C8    N1    S    
C1    O1    A    
Cu1   O12   S    
C10   H5    S    
C3    C7    S    
C2    H28   S    
C6    O8    A    
C17   C20   S    
C18   C19   S    
C12   H20   S    
Cu2   O7    S    
Cu1   N2    S    
C15   O10   A    
C8    C9    S    
C9    H4    S    
C12   H21   S    
C14   H10   S    
Cu1   O1    S    
C13   C14   S    
C14   N2    S    
H30   O6    S    
C3    H33   S    
C4    C28   S    
C18   S1    S    
C5    C15   S    
C17   S2    S    
C20   C24   S    
C24   C25   S    
C5    C7    S    
C28   H22   S    
C19   H16   S    
C23   H18   S    
H29   O3    S    
C3    H32   S    
C14   H8    S    
C16   O13   A    
O4    S2    D    
C8    H3    S    
C11   H6    S    
C20   H17   S    
O5    S2    D    
C23   H19   S    
C6    C27   S    
C30   H27   S    
C16   O12   A    
C26   C27   T    
O14   S1    D    
O3    S1    S    
C20   H1    S    
C8    H36   S    
C2    C29   S    
C9    H2    S    
C11   H13   S    
C2    C5    S    
C3    C4    S    
O6    S2    S    
C19   H12   S    
Cu1   O8    S    
C5    C30   S    
Cu2   O13   S    
C21   C25   T    
C10   H11   S    
C18   C22   S    
Cu1   Cu2   S    
C4    C29   S    
C17   H14   S    
Cu2   N1    S    
C29   H24   S    
C30   H23   S    
C12   C24   S    
C17   C22   S    
C1    C4    S    
C28   C30   S    
C19   C24   S    
C7    H34   S    
C6    O9    A    
C13   N1    S    
C13   H7    S    
C10   C11   S    
C7    H35   S    
C9    N2    S    
C10   N1    S    
C29   H26   S    
C22   C26   S    
C22   C23   S    
Cu2   O9    S    
