data_mof_unit_9258.cif
_audit_creation_date              2012-12-11T14:13:56-0500
_audit_creation_method            fapswitch 2.2
_symmetry_space_group_name_H-M    P1
_symmetry_Int_Tables_number       1
_space_group_crystal_system       triclinic
_cell_length_a                    16.964839
_cell_length_b                    7.249215
_cell_length_c                    17.048895
_cell_angle_alpha                 89.999811
_cell_angle_beta                  99.452822
_cell_angle_gamma                 89.999907
_cell_volume                      2068.23242644

loop_
_atom_site_label
_atom_site_type_symbol
_atom_type_description
_atom_site_fract_x
_atom_site_fract_y
_atom_site_fract_z
_atom_type_partial_charge
O1    O     O_R   0.414560 0.494370 0.416770 -0.496157
O2    O     O_R   0.585440 0.994370 0.583230 -0.496158
O3    O     O_R   0.578370 0.819590 0.429320 -0.529483
O4    O     O_R   0.421630 0.319590 0.570680 -0.529486
C1    C     C_R   0.604006 0.656025 0.413069 0.819810
C2    C     C_R   0.395994 0.156025 0.586931 0.819811
O5    O     O_R   0.414740 0.823790 0.407360 -0.571132
O6    O     O_R   0.585260 0.323790 0.592640 -0.571134
O7    O     O_R   0.420650 0.998510 0.561120 -0.537154
O8    O     O_R   0.579350 0.498510 0.438880 -0.537150
C3    C     C_R   0.386755 0.655255 0.386756 0.600082
C4    C     C_R   0.613245 0.155255 0.613245 0.600084
O9    O     O_3   0.502130 0.662240 0.550470 -0.384234
O10   O     O_3   0.497870 0.162240 0.449530 -0.384226
V1    V     V_3+5 0.499600 0.935390 0.490640 1.546801
V2    V     V_3+5 0.500400 0.435390 0.509360 1.546798
C5    C     C_2   0.785030 0.265174 0.787114 -0.181370
C6    C     C_2   0.214968 0.765174 0.212887 -0.181365
C7    C     C_2   0.813837 0.109762 0.825307 0.524977
C8    C     C_2   0.186161 0.609761 0.174695 0.524975
H1    H     H_    0.814872 0.395587 0.803117 0.131765
H2    H     H_    0.185125 0.895586 0.196884 0.131767
C9    C     C_2   0.710443 0.274064 0.727046 -0.232693
C10   C     C_2   0.289555 0.774065 0.272955 -0.232698
C11   C     C_2   0.686473 0.140422 0.673369 0.583410
C12   C     C_2   0.313526 0.640423 0.326632 0.583402
H3    H     H_    0.676140 0.400863 0.724893 0.094633
H4    H     H_    0.323857 0.900865 0.275109 0.094635
C13   C     C_R   0.334715 0.153443 0.640454 -0.319990
C14   C     C_R   0.665284 0.653446 0.359545 -0.319990
C15   C     C_R   0.169690 0.109597 0.866226 -0.088346
C16   C     C_R   0.830309 0.609597 0.133773 -0.088346
C17   C     C_R   0.289360 0.954721 0.835906 0.047345
C18   C     C_R   0.710639 0.454723 0.164093 0.047340
C19   C     C_R   0.231262 0.980883 0.884651 -0.181719
C20   C     C_R   0.768738 0.480882 0.115349 -0.181720
C21   C     C_R   0.166302 0.215549 0.797428 -0.116323
C22   C     C_R   0.833696 0.715554 0.202570 -0.116334
C23   C     C_R   0.222807 0.190489 0.745924 -0.111291
C24   C     C_R   0.777190 0.690496 0.254073 -0.111289
C25   C     C_R   0.286598 0.060447 0.764391 0.002155
C26   C     C_R   0.713400 0.560450 0.235608 0.002157
C27   C     C_R   0.344290 0.046389 0.711174 -0.138564
C28   C     C_R   0.655710 0.546387 0.288826 -0.138556
C29   C     C_R   0.269979 0.275333 0.623788 0.549757
C30   C     C_R   0.730018 0.775342 0.376208 0.549753
C31   C     C_R   0.215387 0.294729 0.675790 0.553532
C32   C     C_R   0.784609 0.794739 0.324205 0.553537
H5    H     H_    0.233214 0.896221 0.937460 0.116246
H6    H     H_    0.766787 0.396219 0.062540 0.116247
H7    H     H_    0.117471 0.312425 0.782534 0.182289
H8    H     H_    0.882526 0.812432 0.217463 0.182290
O11   O     O_R   0.920750 0.773600 0.061260 -0.536723
O12   O     O_R   0.079250 0.273600 0.938740 -0.536721
O13   O     O_R   0.085340 0.439850 0.092570 -0.501226
O14   O     O_R   0.914660 0.939850 0.907430 -0.501226
C33   C     C_R   0.113459 0.607842 0.113192 0.601730
C34   C     C_R   0.886541 0.107842 0.886808 0.601729
O15   O     O_R   0.921720 0.444130 0.070790 -0.536660
O16   O     O_R   0.078280 0.944130 0.929210 -0.536659
O17   O     O_R   0.914480 0.269530 0.916840 -0.566172
O18   O     O_R   0.085520 0.769530 0.083160 -0.566172
C35   C     C_R   0.895649 0.611431 0.085626 0.695711
C36   C     C_R   0.104351 0.111430 0.914374 0.695710
O19   O     O_3   0.997840 0.601520 0.949550 -0.373521
O20   O     O_3   0.002160 0.101520 0.050450 -0.373522
V3    V     V_3+5 0.000400 0.328340 0.009360 1.500371
V4    V     V_3+5 0.999600 0.828340 0.990640 1.500369
F1    F     F_    0.772520 0.948662 0.813101 -0.647405
F2    F     F_    0.227479 0.448660 0.186901 -0.647402
F3    F     F_    0.732602 0.988422 0.669127 -0.575653
F4    F     F_    0.267398 0.488421 0.330875 -0.575647
C37   C     C_R   0.420316 0.943556 0.731861 0.137992
C38   C     C_R   0.488736 0.035602 0.770389 -0.227452
C39   C     C_R   0.561333 0.941560 0.788573 -0.117955
C40   C     C_R   0.566515 0.756497 0.767033 -0.040377
C41   C     C_R   0.499084 0.665224 0.727052 -0.104040
C42   C     C_R   0.426304 0.758974 0.708451 -0.041651
H9    H     H_    0.485550 0.179301 0.786942 0.101967
H10   H     H_    0.613486 0.012160 0.819548 0.157586
H11   H     H_    0.622739 0.683939 0.781508 0.145271
H12   H     H_    0.503199 0.521834 0.710494 0.097117
H13   H     H_    0.374534 0.687583 0.676903 0.126921
C43   C     C_R   0.579690 0.443538 0.268145 0.138007
C44   C     C_R   0.511262 0.535575 0.229628 -0.227462
C45   C     C_R   0.438669 0.441517 0.211449 -0.117945
C46   C     C_R   0.433498 0.256447 0.232983 -0.040374
C47   C     C_R   0.500937 0.165183 0.272953 -0.104029
C48   C     C_R   0.573712 0.258949 0.291550 -0.041655
H14   H     H_    0.514439 0.679278 0.213080 0.101959
H15   H     H_    0.386510 0.512110 0.180481 0.157600
H16   H     H_    0.377278 0.183877 0.218510 0.145239
H17   H     H_    0.496831 0.021788 0.289506 0.097109
H18   H     H_    0.625490 0.187564 0.323089 0.126928
F5    F     F_    0.260155 0.379452 0.556613 -0.602307
F6    F     F_    0.739841 0.879465 0.443381 -0.602311
C49   C     C_R   0.347363 0.805999 0.861196 0.092388
C50   C     C_R   0.420266 0.845459 0.910117 -0.116935
C51   C     C_R   0.476059 0.704871 0.931763 -0.103086
C52   C     C_R   0.458064 0.523763 0.907183 -0.114727
C53   C     C_R   0.383654 0.482074 0.862539 -0.142985
C54   C     C_R   0.328155 0.622514 0.839608 -0.130007
H19   H     H_    0.434969 0.985909 0.928489 0.100492
H20   H     H_    0.533865 0.736728 0.966160 0.109971
H21   H     H_    0.501994 0.415937 0.922049 0.103818
H22   H     H_    0.369739 0.341441 0.844801 0.118456
H23   H     H_    0.271122 0.589356 0.803818 0.140837
C55   C     C_R   0.652635 0.306006 0.138801 0.092380
C56   C     C_R   0.579725 0.345478 0.089894 -0.116929
C57   C     C_R   0.523930 0.204895 0.068248 -0.103089
C58   C     C_R   0.541931 0.023779 0.092811 -0.114733
C59   C     C_R   0.616348 0.982077 0.137437 -0.142983
C60   C     C_R   0.671849 0.122513 0.160369 -0.130014
H24   H     H_    0.565018 0.485935 0.071535 0.100487
H25   H     H_    0.466119 0.236762 0.033863 0.109981
H26   H     H_    0.497999 0.915956 0.077947 0.103811
H27   H     H_    0.630268 0.841437 0.155160 0.118460
H28   H     H_    0.728888 0.089344 0.196145 0.140837
F7    F     F_    0.154743 0.417772 0.657337 -0.616085
F8    F     F_    0.845252 0.917788 0.342656 -0.616088

loop_
_geom_bond_atom_site_label_1
_geom_bond_atom_site_label_2
_ccdc_geom_bond_type
C27   C37   S    
C46   C47   A    
C53   C54   A    
C12   F4    S    
C37   C38   A    
C58   C59   A    
O1    C3    A    
O2    C4    A    
C2    O7    A    
C49   C50   A    
C20   H6    S    
C33   O18   A    
C23   C25   A    
C41   C42   A    
O5    C3    A    
C52   H21   S    
C5    C9    S    
C6    C10   S    
C16   C20   A    
C10   C12   D    
C45   H15   S    
C44   C45   A    
C59   H27   S    
C21   H7    S    
C22   H8    S    
C50   H19   S    
C55   C56   A    
C48   H18   S    
O11   V4    S    
C57   C58   A    
O15   V3    S    
C42   H13   S    
C18   C26   A    
C19   H5    S    
C37   C42   A    
C58   H26   S    
C11   F3    S    
C16   C22   A    
C39   H10   S    
C6    C8    D    
C49   C54   A    
C34   O17   A    
O5    V1    S    
O20   V3    S    
O6    V2    S    
C46   H16   S    
C13   C27   A    
C25   C27   A    
C14   C28   A    
C26   C28   A    
C8    F2    S    
C59   C60   A    
C29   C31   A    
C7    C34   S    
C30   C32   A    
C38   C39   A    
C40   C41   A    
O4    C2    A    
C45   C46   A    
O12   V3    S    
C3    C12   S    
O3    C1    A    
O14   V4    S    
C5    H1    S    
C15   C21   A    
C13   C29   A    
C55   C60   A    
O4    V2    S    
C39   C40   A    
O17   V3    S    
C51   C52   A    
O6    C4    A    
O19   V4    S    
C54   H23   S    
O1    V2    S    
C43   C44   A    
O2    V1    S    
C56   H24   S    
C9    H3    S    
C38   H9    S    
O13   C33   A    
C15   C19   A    
C7    F1    S    
C43   C48   A    
C29   F5    S    
O3    V1    S    
C32   F8    S    
C23   C31   A    
C1    C14   S    
C53   H22   S    
C24   C32   A    
C47   H17   S    
C6    H2    S    
C15   C36   S    
C14   C30   A    
C10   H4    S    
C16   C35   S    
C24   C26   A    
C28   C43   S    
C40   H11   S    
O13   V3    S    
C44   H14   S    
O15   C35   A    
O18   V4    S    
C4    C11   S    
O16   C36   A    
C18   C55   S    
O7    V1    S    
C17   C25   A    
C1    O8    A    
C21   C23   A    
O8    V2    S    
C56   C57   A    
C22   C24   A    
O11   C35   A    
C17   C19   A    
O12   C36   A    
C41   H12   S    
C31   F7    S    
C52   C53   A    
C5    C7    D    
C18   C20   A    
O14   C34   A    
C51   H20   S    
C17   C49   S    
C9    C11   D    
C60   H28   S    
C2    C13   S    
C30   F6    S    
C47   C48   A    
O16   V4    S    
C50   C51   A    
O9    V2    S    
O10   V1    S    
C8    C33   S    
C57   H25   S    
