data_mof_unit_18723.cif
_audit_creation_date              2012-12-11T15:48:49-0500
_audit_creation_method            fapswitch 2.2
_symmetry_space_group_name_H-M    P1
_symmetry_Int_Tables_number       1
_space_group_crystal_system       triclinic
_cell_length_a                    10.979194
_cell_length_b                    11.036021
_cell_length_c                    18.70113
_cell_angle_alpha                 90.357446
_cell_angle_beta                  90.022179
_cell_angle_gamma                 60.10017
_cell_volume                      1964.3024035

loop_
_atom_site_label
_atom_site_type_symbol
_atom_type_description
_atom_site_fract_x
_atom_site_fract_y
_atom_site_fract_z
_atom_type_partial_charge
C1    C     C_R   0.236749 0.646635 0.609571 0.537124
C2    C     C_R   0.587992 0.108997 0.701184 -0.184094
C3    C     C_R   0.600320 0.093052 0.774476 -0.186045
C4    C     C_R   0.653343 0.622236 0.600759 0.537829
C5    C     C_3   0.931834 0.111614 0.773225 -0.269563
C6    C     C_3   0.923645 0.125015 0.692052 -0.280683
C7    C     C_R   0.687060 0.126605 0.662397 0.016855
C8    C     C_R   0.182362 0.666414 0.835278 0.015985
C9    C     C_R   0.159946 0.573392 0.794083 0.015614
C10   C     C_R   0.161905 0.573797 0.720504 0.003479
C11   C     C_R   0.196098 0.771767 0.724174 -0.171406
C12   C     C_3   0.720300 0.545367 0.800356 -0.208179
C13   C     C_R   0.203013 0.764880 0.798582 -0.172631
C14   C     C_3   0.214002 0.419783 0.797254 -0.286555
C15   C     C_3   0.213275 0.420845 0.715430 -0.281477
C16   C     C_R   0.632724 0.219497 0.599729 0.542918
C17   C     C_R   0.186975 0.668424 0.683395 0.021082
C18   C     C_R   0.675349 0.681305 0.174287 0.005373
C19   C     C_R   0.795368 0.612500 0.217042 0.036933
C20   C     C_R   0.788838 0.611076 0.290014 0.011272
C21   C     C_R   0.537106 0.759000 0.282904 -0.148725
C22   C     C_R   0.545837 0.763726 0.208219 -0.162932
C23   C     C_3   0.712898 0.686775 0.808962 0.042091
C24   C     C_3   0.917944 0.467475 0.213081 -0.249983
C25   C     C_3   0.916947 0.468877 0.294133 -0.272123
C26   C     C_R   0.658462 0.672027 0.323705 0.007891
C27   C     C_R   0.626878 0.198233 0.166501 0.019337
C28   C     C_R   0.220233 0.649303 0.402492 0.553109
C29   C     C_R   0.511330 0.210977 0.204459 0.016502
C30   C     C_R   0.494378 0.246307 0.275642 0.006916
C31   C     C_R   0.686431 0.291467 0.269791 -0.166785
C32   C     C_R   0.705995 0.252754 0.197262 -0.171253
C33   C     C_3   0.463607 0.106854 0.214699 -0.255475
C34   C     C_3   0.671142 0.652638 0.675333 0.063991
C35   C     C_3   0.445493 0.145349 0.293158 -0.263832
C36   C     C_R   0.588793 0.275224 0.311133 0.016329
C37   C     C_R   0.115688 0.692661 0.188585 0.065392
C38   C     C_R   0.053415 0.811038 0.233173 0.044893
C39   C     C_R   0.069873 0.799838 0.305756 -0.044213
C40   C     C_R   0.642719 0.624549 0.393232 0.545910
C41   C     C_R   0.190415 0.548735 0.292533 -0.164097
C42   C     C_R   0.176728 0.560536 0.218793 -0.174180
C43   C     C_3   0.060529 0.942855 0.231723 0.250249
C44   C     C_3   0.076255 0.931965 0.312155 -0.218506
C45   C     C_3   0.807708 0.658602 0.682349 -0.251237
C46   C     C_R   0.149590 0.668288 0.335671 0.025422
C47   C     C_R   0.727725 0.043068 0.888580 0.546183
C48   C     C_R   0.745839 0.704551 0.883048 0.536821
C49   C     C_R   0.120238 0.704796 0.906511 0.535304
C50   C     C_R   0.672109 0.111740 0.102387 0.546473
C51   C     C_R   0.698091 0.691457 0.098713 0.554081
C52   C     C_R   0.578715 0.295691 0.388371 0.569012
C53   C     C_R   0.088454 0.712831 0.113739 0.556656
C54   C     C_3   0.563338 0.801184 0.784755 -0.229167
C55   C     C_3   0.549791 0.795243 0.703241 -0.238888
C56   C     C_3   0.680882 0.530855 0.723166 -0.097802
C57   C     C_3   0.825981 0.688005 0.760657 -0.251219
C58   C     C_3   0.546707 0.518865 0.719388 -0.276069
C59   C     C_3   0.542944 0.417175 0.772600 -0.446395
C60   C     C_R   0.722290 0.069908 0.810912 -0.004805
C61   C     C_R   0.836163 0.051297 0.768289 0.018026
C62   C     C_R   0.819363 0.077160 0.694637 0.020344
Cr1   Cr    Cr6+3 0.392960 0.397920 0.502240 0.992278
Cr2   Cr    Cr6+3 0.398340 0.708480 0.501250 0.992263
Cr3   Cr    Cr6+3 0.708670 0.393570 0.496460 0.992852
Cr4   Cr    Cr6+3 0.937650 0.938540 0.007610 1.038630
Cr5   Cr    Cr6+3 0.625330 0.937370 0.994520 1.010209
Cr6   Cr    Cr6+3 0.937940 0.625230 0.001190 1.004108
F1    F     F_    0.180693 0.925219 0.198067 -0.651394
H1    H     H_    0.539854 0.905555 0.801247 0.134564
H2    H     H_    0.021007 0.047378 0.664312 0.136900
H3    H     H_    0.216032 0.848210 0.699254 0.125328
H4    H     H_    0.482409 0.784154 0.811283 0.121816
H5    H     H_    0.221132 0.839470 0.827701 0.125921
H6    H     H_    0.135691 0.395092 0.820348 0.141365
H7    H     H_    0.320065 0.361289 0.821383 0.139947
H8    H     H_    0.317727 0.361685 0.690075 0.165492
H9    H     H_    0.133536 0.398146 0.692394 0.122165
H10   H     H_    0.434124 0.813346 0.307521 0.166008
H11   H     H_    0.452178 0.827504 0.177253 0.199974
H12   H     H_    0.767976 0.432823 0.702793 0.139911
H13   H     H_    0.011820 0.462440 0.188789 0.157412
H14   H     H_    0.889487 0.392313 0.189756 0.137079
H15   H     H_    0.902393 0.385673 0.317556 0.151761
H16   H     H_    0.444169 0.812293 0.689782 0.126778
H17   H     H_    0.006466 0.473568 0.318101 0.140232
H18   H     H_    0.753895 0.323106 0.294735 0.131782
H19   H     H_    0.790528 0.252617 0.167570 0.122969
H20   H     H_    0.549691 0.998734 0.204242 0.159774
H21   H     H_    0.362879 0.137445 0.186939 0.160554
H22   H     H_    0.334005 0.197989 0.310884 0.134245
H23   H     H_    0.927138 0.602650 0.778920 0.140035
H24   H     H_    0.520234 0.058198 0.327761 0.161235
H25   H     H_    0.244621 0.445357 0.314996 0.141206
H26   H     H_    0.218759 0.467389 0.185644 0.121702
H27   H     H_    0.962484 0.034119 0.213023 0.125390
H28   H     H_    0.556812 0.882067 0.677757 0.126211
H29   H     H_    0.179117 0.917107 0.330160 0.183696
H30   H     H_    0.983410 0.015666 0.340877 0.098762
H31   H     H_    0.825795 0.788440 0.765639 0.125452
H32   H     H_    0.804360 0.742012 0.647795 0.124056
H33   H     H_    0.828527 0.458271 0.811384 0.116486
H34   H     H_    0.899069 0.557816 0.664753 0.128040
H35   H     H_    0.650814 0.538472 0.841206 0.144133
H36   H     H_    0.649663 0.333275 0.785080 0.168160
H37   H     H_    0.489472 0.471291 0.822978 0.148292
H38   H     H_    0.483880 0.371049 0.749265 0.158683
H39   H     H_    0.455425 0.620913 0.730681 0.164652
H40   H     H_    0.534863 0.487198 0.664581 0.183036
H41   H     H_    0.488853 0.130694 0.678043 0.132603
H42   H     H_    0.507087 0.110538 0.802746 0.138278
H43   H     H_    0.037976 0.037672 0.792457 0.142177
H44   H     H_    0.883615 0.213642 0.801682 0.124295
H45   H     H_    0.882189 0.230094 0.670497 0.147671
O1    O     O_R   0.507380 0.255700 0.581440 -0.533985
O2    O     O_R   0.837170 0.593410 0.915250 -0.524651
O3    O     O_R   0.065200 0.635530 0.931570 -0.509947
O4    O     O_R   0.280320 0.527350 0.578930 -0.504206
O5    O     O_R   0.068260 0.828890 0.091840 -0.463650
O6    O     O_R   0.798870 0.057410 0.079340 -0.505877
O7    O     O_R   0.584930 0.080350 0.076780 -0.514304
O8    O     O_R   0.626960 0.809650 0.067060 -0.497388
O9    O     O_R   0.816040 0.596610 0.076510 -0.513153
O10   O     O_R   0.045610 0.638500 0.081060 -0.521779
O11   O     O_3   0.833640 0.833710 0.001100 -0.287006
O12   O     O_R   0.524480 0.695810 0.424040 -0.509490
O13   O     O_R   0.260510 0.739590 0.584590 -0.533052
O14   O     O_R   0.532300 0.695080 0.573820 -0.510444
O15   O     O_R   0.744840 0.503500 0.576370 -0.535821
O16   O     O_R   0.699120 0.276560 0.571960 -0.504757
O17   O     O_R   0.498940 0.256500 0.419860 -0.522397
O18   O     O_R   0.272500 0.528080 0.429150 -0.526309
O19   O     O_R   0.252060 0.740380 0.423010 -0.524848
O20   O     O_R   0.736390 0.504290 0.414790 -0.532101
O21   O     O_R   0.691300 0.277290 0.422170 -0.508659
O22   O     O_3   0.499990 0.499990 0.499980 -0.271606
O23   O     O_R   0.089400 0.825690 0.930570 -0.524472
O24   O     O_R   0.818460 0.054440 0.929850 -0.492288
O25   O     O_R   0.606060 0.077150 0.915510 -0.531850
O26   O     O_R   0.646550 0.806680 0.917570 -0.518212

loop_
_geom_bond_atom_site_label_1
_geom_bond_atom_site_label_2
_ccdc_geom_bond_type
C21   C26   A    
Cr2   O22   S    
C34   C56   S    
C8    C13   A    
C57   H23   S    
C49   O23   A    
C27   C29   A    
C58   H40   S    
C51   O9    A    
C41   C42   A    
C2    C7    A    
C43   C44   S    
Cr6   O10   S    
Cr3   O16   S    
C56   H12   S    
C15   H8    S    
Cr5   O8    S    
C12   C23   S    
C45   C57   S    
C59   H36   S    
C30   C35   S    
C50   O6    A    
C24   H14   S    
C12   H35   S    
C10   C15   S    
Cr5   O11   S    
C5    C6    S    
C44   H30   S    
C15   H9    S    
C20   C25   S    
C10   C17   A    
C32   H19   S    
C29   C33   S    
C18   C19   A    
C37   C42   A    
C24   H13   S    
C6    H45   S    
C45   H34   S    
C47   C60   S    
C54   C55   S    
C44   H29   S    
C49   O3    A    
C31   C32   A    
C3    H42   S    
C8    C9    A    
Cr2   O14   S    
C54   H1    S    
C25   H15   S    
C41   C46   A    
Cr1   O17   S    
C29   C30   A    
C16   O16   A    
C9    C10   A    
C31   C36   A    
Cr3   O20   S    
C36   C52   S    
C27   C50   S    
C48   O2    A    
Cr1   O1    S    
C3    C60   A    
C34   C55   S    
C43   F1    S    
Cr4   O6    S    
C21   C22   A    
C21   H10   S    
C50   O7    A    
Cr5   O7    S    
Cr6   O9    S    
C18   C51   S    
C35   H24   S    
C6    H2    S    
C4    C34   S    
C59   H37   S    
C31   H18   S    
C48   O26   A    
C28   O19   A    
C24   C25   S    
Cr1   O4    S    
C4    O14   A    
C11   H3    S    
C58   C59   S    
C57   H31   S    
C40   O20   A    
C59   H38   S    
C42   H26   S    
C60   C61   A    
C28   O18   A    
C14   H7    S    
C55   H16   S    
C9    C14   S    
C7    C62   A    
C12   H33   S    
C37   C38   A    
C33   H20   S    
Cr6   O3    S    
C54   H4    S    
C41   H25   S    
Cr4   O24   S    
Cr2   O13   S    
C40   O12   A    
C55   H28   S    
C43   H27   S    
C4    O15   A    
C5    C61   S    
C34   C45   S    
C12   C56   S    
Cr1   O18   S    
Cr5   O26   S    
Cr3   O21   S    
C45   H32   S    
Cr6   O2    S    
C39   C46   A    
C7    C16   S    
Cr2   O12   S    
Cr4   O5    S    
C16   O1    A    
Cr5   O25   S    
C23   C54   S    
C51   O8    A    
C23   C57   S    
Cr2   O19   S    
C2    H41   S    
C23   C48   S    
C5    H44   S    
C27   C32   A    
C18   C22   A    
C52   O17   A    
C1    O13   A    
C53   O10   A    
C11   C17   A    
Cr3   O15   S    
C53   O5    A    
C39   C44   S    
C5    H43   S    
C1    C17   S    
Cr4   O11   S    
C30   C36   A    
C28   C46   S    
Cr1   O22   S    
C6    C62   S    
C19   C20   A    
C2    C3    A    
C37   C53   S    
C38   C43   S    
C33   H21   S    
C14   H6    S    
C11   C13   A    
C26   C40   S    
C38   C39   A    
Cr4   O23   S    
C20   C26   A    
Cr6   O11   S    
C47   O24   A    
C25   H17   S    
C33   C35   S    
C56   C58   S    
C19   C24   S    
C58   H39   S    
C1    O4    A    
C61   C62   A    
Cr3   O22   S    
C22   H11   S    
C13   H5    S    
C47   O25   A    
C52   O21   A    
C14   C15   S    
C8    C49   S    
C35   H22   S    
