data_mof_unit_55661.cif
_audit_creation_date              2013-03-05T15:42:47-0500
_audit_creation_method            fapswitch 2.2
_symmetry_space_group_name_H-M    P1
_symmetry_Int_Tables_number       1
_space_group_crystal_system       triclinic
_cell_length_a                    6.932511
_cell_length_b                    14.83503
_cell_length_c                    16.193807
_cell_angle_alpha                 90.507203
_cell_angle_beta                  90.442056
_cell_angle_gamma                 90.325937
_cell_volume                      1665.29360554

loop_
_atom_site_label
_atom_site_type_symbol
_atom_site_description
_atom_site_fract_x
_atom_site_fract_y
_atom_site_fract_z
_atom_type_partial_charge
O1    O     O_R   0.494400 0.416610 0.413880 -0.514885
O2    O     O_R   0.823920 0.406790 0.585520 -0.569593
O3    O     O_R   0.994250 0.583390 0.586120 -0.558733
C1    C     C_R   0.654640 0.384369 0.612647 0.833341
O4    O     O_R   0.824110 0.405730 0.414490 -0.567686
O5    O     O_R   0.994440 0.582310 0.413870 -0.566734
C2    C     C_R   0.654393 0.386607 0.384035 0.779188
O6    O     O_R   0.494210 0.417690 0.586130 -0.568807
O7    O     O_3   0.660810 0.557940 0.500000 -0.282264
V1    V     V_3+5 0.935650 0.489250 0.500000 1.147204
O8    O     O_R   0.324160 0.593210 0.414480 -0.560473
C3    C     C_R   0.154594 0.614357 0.385769 0.866031
O9    O     O_R   0.323970 0.594270 0.585510 -0.571438
C4    C     C_R   0.156953 0.614090 0.615660 0.796352
V2    V     V_3+5 0.435660 0.510750 0.500000 1.156176
O10   O     O_3   0.160630 0.442060 0.500000 -0.263555
H1    H     H_    0.366129 0.904979 0.514496 0.083012
C5    C     C_R   0.094040 0.559313 0.793643 0.009210
C6    C     C_R   0.011605 0.537223 0.871345 0.015953
C7    C     C_R   0.963483 0.606769 0.926863 0.373977
C8    C     C_R   0.005689 0.695690 0.907602 -0.134638
C9    C     C_R   0.074675 0.720760 0.829430 -0.048988
C10   C     C_R   0.105652 0.652313 0.768364 0.016539
C11   C     C_R   0.113487 0.813205 0.812735 -0.107588
C12   C     C_R   0.168347 0.839129 0.731559 -0.045983
C13   C     C_R   0.197158 0.771429 0.669867 -0.005239
C14   C     C_R   0.154824 0.679459 0.686236 -0.094008
C15   C     C_R   0.192045 0.931354 0.708509 0.349672
C16   C     C_R   0.271675 0.953358 0.632163 -0.068537
C17   C     C_R   0.310425 0.886857 0.574428 -0.132321
C18   C     C_R   0.267130 0.797619 0.591465 -0.079130
H2    H     H_    0.976172 0.745400 0.954921 0.101688
H3    H     H_    0.291803 0.023240 0.615229 0.107596
H4    H     H_    0.291529 0.749878 0.541995 0.081755
C19   C     C_2   0.986412 0.701817 0.274161 0.057684
C20   C     C_2   0.142728 0.686854 0.323299 -0.209578
H5    H     H_    0.264676 0.733063 0.320613 0.038804
C21   C     C_2   0.973150 0.784872 0.222995 0.069484
C22   C     C_2   0.120283 0.809542 0.172976 -0.158553
H6    H     H_    0.253780 0.771542 0.174995 0.074267
C23   C     C_2   0.768937 0.211286 0.782830 -0.061162
C24   C     C_2   0.615216 0.196007 0.832234 -0.063378
H7    H     H_    0.893568 0.168426 0.788532 0.182731
C25   C     C_2   0.786936 0.284447 0.721001 -0.107752
C26   C     C_2   0.637847 0.313109 0.674940 -0.209211
H8    H     H_    0.930711 0.310621 0.709522 0.095973
H9    H     H_    0.496488 0.282774 0.682004 0.093286
C27   C     C_2   0.777796 0.212097 0.212790 -0.042102
C28   C     C_2   0.614488 0.174211 0.182778 -0.163981
H10   H     H_    0.915602 0.193740 0.186202 0.114433
H11   H     H_    0.477821 0.187296 0.212594 0.114050
C29   C     C_2   0.781968 0.273263 0.286318 -0.137389
C30   C     C_2   0.639472 0.331051 0.307512 0.188367
H12   H     H_    0.910406 0.269777 0.324974 0.103749
O11   O     O_R   0.770210 0.079270 0.910680 -0.531898
O12   O     O_R   0.440150 0.091160 0.082270 -0.567024
O13   O     O_R   0.269970 0.914530 0.082860 -0.573185
C31   C     C_R   0.609303 0.111544 0.111622 0.808030
O14   O     O_R   0.440480 0.090100 0.911240 -0.527103
O15   O     O_R   0.270310 0.913460 0.910610 -0.550540
C32   C     C_R   0.609503 0.116025 0.887022 0.903798
O16   O     O_R   0.769870 0.080340 0.082930 -0.576519
O17   O     O_3   0.603660 0.938980 0.996790 -0.280252
V3    V     V_3+5 0.328750 0.007610 0.996740 1.190814
O18   O     O_R   0.940600 0.902510 0.911180 -0.532445
C33   C     C_R   0.108239 0.881034 0.882043 0.893275
O19   O     O_R   0.940270 0.903570 0.082200 -0.568943
C34   C     C_R   0.108919 0.882275 0.110787 0.815586
V4    V     V_3+5 0.828770 0.986010 0.996670 1.189375
O20   O     O_3   0.103730 0.054750 0.996710 -0.264763
C35   C     C_3   0.787934 0.838217 0.228053 -0.363672
H13   H     H_    0.699934 0.816585 0.281457 0.090237
H14   H     H_    0.820428 0.911077 0.236990 0.097724
H15   H     H_    0.699656 0.827545 0.171282 0.157216
C36   C     C_3   0.454054 0.263831 0.841758 -0.388964
H16   H     H_    0.399162 0.263665 0.906021 0.129837
H17   H     H_    0.505415 0.333621 0.830493 0.119965
H18   H     H_    0.332123 0.246594 0.799666 0.158485
C37   C     C_3   0.188638 0.484642 0.743734 -0.366626
H19   H     H_    0.094434 0.463197 0.691661 0.139554
H20   H     H_    0.332006 0.507395 0.722004 0.124243
H21   H     H_    0.220382 0.423433 0.779489 0.096915
N1    N     N_R   0.480410 0.348027 0.252079 0.075983
O21   O     O_R   0.305094 0.352639 0.279875 -0.363649
O22   O     O_R   0.513293 0.369402 0.175665 -0.325277
C38   C     C_3   0.982573 0.439708 0.896281 -0.336491
H22   H     H_    0.898191 0.431342 0.953385 0.186549
H23   H     H_    0.903622 0.402735 0.846671 0.099911
H24   H     H_    0.124112 0.407506 0.908079 0.121619
N2    N     N_R   0.878448 0.588338 0.005422 0.081898
O23   O     O_R   0.704319 0.555386 0.008561 -0.349836
O24   O     O_R   0.957254 0.621180 0.072443 -0.374919
N3    N     N_R   0.106924 0.003066 0.754594 0.053971
O25   O     O_R   0.201919 0.078084 0.765743 -0.413777
O26   O     O_R   0.920753 0.002505 0.763854 -0.403244
C39   C     C_3   0.816958 0.636922 0.269779 -0.241537
H25   H     H_    0.720301 0.652703 0.216895 0.150572
H26   H     H_    0.868343 0.566810 0.260384 0.150094
H27   H     H_    0.730016 0.641741 0.326903 0.108197

loop_
_geom_bond_atom_site_label_1
_geom_bond_atom_site_label_2
_geom_bond_distance
_ccdc_geom_bond_type
C31   O16   1.295869 A    
N3    O25   1.300426 A    
C22   C34   1.484469 S    
C6    C7    1.405753 A    
C1    O6    1.291643 A    
C6    C38   1.518099 S    
C19   C39   1.515435 S    
C25   C26   1.343185 D    
C12   C15   1.430249 A    
C24   C36   1.515638 S    
C15   C16   1.398367 A    
O5    C3    1.292838 A    
C17   C18   1.386365 A    
C38   H23   1.108068 S    
V2    O10   2.156758 S    
C39   H27   1.109977 S    
C16   H3    1.083246 S    
C5    C6    1.426020 A    
C23   C24   1.356726 D    
O8    V2    2.009007 S    
O17   V4    1.705831 S    
C29   H12   1.086205 S    
C5    C37   1.520198 S    
C28   H11   1.084417 S    
C39   H26   1.110907 S    
O12   V3    1.998322 S    
O1    V2    2.010453 S    
V3    O20   1.713159 S    
C4    C14   1.492525 S    
C3    C20   1.485207 S    
O7    V1    2.165819 S    
C11   C33   1.501535 S    
C27   H10   1.086025 S    
O15   C33   1.299870 A    
C13   C18   1.419257 A    
N3    O26   1.300453 A    
O9    C4    1.294412 A    
H1    C17   1.082836 S    
C23   H7    1.079530 S    
O4    V1    1.998196 S    
C25   H8    1.085595 S    
C1    C26   1.472414 S    
C26   H9    1.083320 S    
C8    H2    1.080280 S    
O14   C32   1.295901 A    
O19   C34   1.295950 A    
C19   C21   1.493761 S    
C11   C12   1.426744 A    
C22   H6    1.086808 S    
O4    C2    1.301070 A    
C38   H22   1.105578 S    
C12   C13   1.426253 A    
C7    N2    1.434081 S    
C28   C31   1.474229 S    
C5    C10   1.444570 A    
O16   V4    2.014194 S    
C15   N3    1.427170 S    
O19   V4    2.008937 S    
C19   C20   1.359900 D    
O2    C1    1.298803 A    
C36   H16   1.110840 S    
C16   C17   1.382078 A    
C37   H21   1.103557 S    
N2    O24   1.300855 A    
N1    O21   1.301257 A    
C39   H25   1.110713 S    
O14   V3    2.012533 S    
C18   H4    1.079529 S    
C36   H17   1.110011 S    
C24   C32   1.488371 S    
O11   V4    2.012403 S    
O3    C4    1.300181 A    
C27   C28   1.346565 D    
N1    O22   1.301629 A    
O6    V2    2.011911 S    
C10   C14   1.436005 A    
O9    V2    2.012278 S    
C13   C14   1.421618 A    
C23   C25   1.488503 S    
C9    C11   1.424707 A    
C37   H19   1.105978 S    
C2    C30   1.484777 S    
O13   C34   1.298294 A    
O2    V1    2.012488 S    
C29   C30   1.355817 D    
O13   V3    2.013502 S    
C35   H14   1.110827 S    
C21   C35   1.514500 S    
C20   H5    1.086753 S    
O1    C2    1.293053 A    
C38   H24   1.109755 S    
O5    V1    2.013423 S    
C35   H15   1.110144 S    
O8    C3    1.301837 A    
C37   H20   1.108722 S    
C30   N1    1.441210 S    
O15   V3    2.002673 S    
O7    V2    1.707023 S    
C35   H13   1.110804 S    
O3    V1    2.002674 S    
V1    O10   1.713214 S    
N2    O23   1.301325 A    
C21   C22   1.358005 D    
O18   V4    2.012258 S    
O11   C32   1.299747 A    
O12   C31   1.295113 A    
V4    O20   2.156670 S    
C36   H18   1.109094 S    
O17   V3    2.165824 S    
C27   C29   1.490640 S    
C7    C8    1.388285 A    
O18   C33   1.297983 A    
C9    C10   1.429354 A    
C8    C9    1.408974 A    
