data_mof_unit_30103.cif
_audit_creation_date              2012-12-11T14:52:46-0500
_audit_creation_method            fapswitch 2.2
_symmetry_space_group_name_H-M    P1
_symmetry_Int_Tables_number       1
_space_group_crystal_system       triclinic
_cell_length_a                    20.599602
_cell_length_b                    7.253469
_cell_length_c                    20.308366
_cell_angle_alpha                 89.999821
_cell_angle_beta                  101.523544
_cell_angle_gamma                 90.000152
_cell_volume                      2973.2808306

loop_
_atom_site_label
_atom_site_type_symbol
_atom_type_description
_atom_site_fract_x
_atom_site_fract_y
_atom_site_fract_z
_atom_type_partial_charge
O1    O     O_R   0.673670 0.377510 0.185950 -0.533497
O2    O     O_R   0.326330 0.622490 0.814050 -0.534557
O3    O     O_R   0.826330 0.877510 0.314050 -0.533489
O4    O     O_R   0.173670 0.122490 0.685950 -0.534586
O5    O     O_R   0.806260 0.705340 0.185590 -0.535781
O6    O     O_R   0.193740 0.294660 0.814410 -0.536233
O7    O     O_R   0.693740 0.205340 0.314410 -0.535779
O8    O     O_R   0.306260 0.794660 0.685590 -0.536228
C1    C     C_R   0.825653 0.538614 0.170811 0.722144
C2    C     C_R   0.174363 0.461389 0.829206 0.724810
C3    C     C_R   0.674347 0.038614 0.329189 0.722132
C4    C     C_R   0.325637 0.961389 0.670794 0.724840
O9    O     O_R   0.672940 0.707120 0.178050 -0.529922
O10   O     O_R   0.327060 0.292880 0.821950 -0.530110
O11   O     O_R   0.827060 0.207120 0.321950 -0.529925
O12   O     O_R   0.172940 0.792880 0.678050 -0.530111
O13   O     O_R   0.692060 0.879040 0.306460 -0.537108
O14   O     O_R   0.307940 0.120960 0.693540 -0.536703
O15   O     O_R   0.807940 0.379040 0.193540 -0.537106
O16   O     O_R   0.192060 0.620960 0.806460 -0.536705
C5    C     C_R   0.648825 0.539748 0.160992 0.709344
C6    C     C_R   0.351179 0.460236 0.839020 0.715702
C7    C     C_R   0.851176 0.039748 0.339006 0.709355
C8    C     C_R   0.148821 0.960235 0.660980 0.715735
O17   O     O_3   0.756430 0.544390 0.292140 -0.372463
O18   O     O_3   0.243570 0.455610 0.707860 -0.373041
O19   O     O_3   0.743570 0.044390 0.207860 -0.372468
O20   O     O_3   0.256430 0.955610 0.792140 -0.373033
V1    V     V_3+5 0.748810 0.818610 0.242180 1.486728
V2    V     V_3+5 0.251190 0.181390 0.757820 1.491972
V3    V     V_3+5 0.751190 0.318610 0.257820 1.486729
V4    V     V_3+5 0.248810 0.681390 0.742180 1.491995
C9    C     C_R   0.087689 0.959636 0.607518 -0.165358
C10   C     C_R   0.912393 0.040077 0.392329 -0.144533
C11   C     C_R   0.412310 0.459637 0.892482 -0.165326
C12   C     C_R   0.587608 0.540076 0.107670 -0.144460
C13   C     C_R   0.014703 0.197767 0.445248 0.493590
C14   C     C_R   0.986112 0.799634 0.553879 0.525041
C15   C     C_R   0.485294 0.697754 0.054756 0.493494
C16   C     C_R   0.513894 0.299655 0.946114 0.525141
C17   C     C_R   0.959247 0.180495 0.392872 -0.194008
C18   C     C_R   0.041220 0.817955 0.606564 -0.182780
C19   C     C_R   0.540752 0.680486 0.107129 -0.194100
C20   C     C_R   0.458784 0.317973 0.893431 -0.182743
C21   C     C_R   0.921762 0.912983 0.445216 -0.100474
C22   C     C_R   0.078293 0.086820 0.554644 -0.106331
C23   C     C_R   0.578242 0.412992 0.054780 -0.100475
C24   C     C_R   0.421702 0.586810 0.945360 -0.105946
C25   C     C_R   0.976770 0.926639 0.499562 -0.029431
C26   C     C_R   0.023639 0.072043 0.499953 -0.018735
C27   C     C_R   0.523233 0.426646 0.000435 -0.029342
C28   C     C_R   0.476358 0.572037 0.000049 -0.018390
H1    H     H_    0.115401 0.192579 0.555921 0.203891
H2    H     H_    0.884250 0.808572 0.444332 0.201158
H3    H     H_    0.384590 0.692557 0.944086 0.203811
H4    H     H_    0.615757 0.308594 0.055662 0.201143
H5    H     H_    0.048525 0.719536 0.647451 0.174898
H6    H     H_    0.951993 0.278532 0.351877 0.150638
H7    H     H_    0.451482 0.219567 0.852541 0.174884
H8    H     H_    0.548008 0.778515 0.148126 0.150533
C29   C     C_3   0.544771 0.128889 0.521926 0.128001
C30   C     C_3   0.455101 0.871158 0.477931 0.126652
C31   C     C_3   0.955230 0.628889 0.978074 0.128007
C32   C     C_3   0.044899 0.371158 0.022069 0.126651
C33   C     C_3   0.532657 0.955841 0.562320 -0.171670
C34   C     C_3   0.467217 0.044208 0.437537 -0.173228
C35   C     C_3   0.967343 0.455841 0.937680 -0.171658
C36   C     C_3   0.032783 0.544208 0.062463 -0.173222
H9    H     H_    0.559523 0.920687 0.613778 0.128973
H10   H     H_    0.440355 0.079360 0.386078 0.125767
H11   H     H_    0.940477 0.420687 0.886223 0.129031
H12   H     H_    0.059645 0.579360 0.113922 0.125759
H13   H     H_    0.555192 0.701030 0.496129 0.120401
H14   H     H_    0.444677 0.299015 0.503724 0.120515
H15   H     H_    0.944808 0.201032 0.003871 0.120400
H16   H     H_    0.055322 0.799015 0.996275 0.120518
C37   C     C_1   0.371253 0.970231 0.624938 -0.155492
C38   C     C_1   0.628688 0.029782 0.374997 -0.162683
C39   C     C_1   0.128747 0.470231 0.875062 -0.155466
C40   C     C_1   0.871313 0.529783 0.125004 -0.162683
C41   C     C_3   0.469401 0.164044 0.501475 -0.171476
C42   C     C_3   0.530471 0.836002 0.498384 -0.173549
C43   C     C_3   0.030600 0.664045 0.998525 -0.171483
C44   C     C_3   0.969529 0.336003 0.001617 -0.173563
C45   C     C_3   0.457322 0.989708 0.541043 0.110537
C46   C     C_3   0.542550 0.010335 0.458818 0.111479
C47   C     C_3   0.042677 0.489709 0.958957 0.110531
C48   C     C_3   0.957450 0.510335 0.041183 0.111482
C49   C     C_1   0.409874 0.978636 0.587003 -0.050523
C50   C     C_1   0.590028 0.021390 0.412890 -0.055048
C51   C     C_1   0.090126 0.478636 0.912997 -0.050491
C52   C     C_1   0.909972 0.521391 0.087110 -0.055052
S1    S     S_3+6 0.071336 0.379247 0.440039 0.016914
O21   O     O_2   0.077722 0.500669 0.500923 -0.304066
O22   O     O_2   0.138190 0.299159 0.437843 -0.349332
O23   O     O_3   0.045641 0.508998 0.371053 -0.489702
H17   H     H_    0.057463 0.437403 0.333601 0.327815
S2    S     S_3+6 0.930937 0.613762 0.557896 -0.007701
O24   O     O_2   0.864616 0.689720 0.564351 -0.345987
O25   O     O_2   0.923006 0.500908 0.494724 -0.334335
O26   O     O_3   0.959882 0.477524 0.624344 -0.514669
H18   H     H_    0.930906 0.367311 0.617843 0.365753
S3    S     S_3+6 0.428659 0.879225 0.059970 0.016979
O27   O     O_2   0.422268 0.000641 0.999086 -0.304007
O28   O     O_2   0.361808 0.799126 0.062170 -0.349301
O29   O     O_3   0.454353 0.008975 0.128953 -0.489648
H19   H     H_    0.442652 0.937204 0.166425 0.327706
S4    S     S_3+6 0.569080 0.113818 0.942086 -0.007812
O30   O     O_2   0.635385 0.189856 0.935614 -0.346420
O31   O     O_2   0.577041 0.000948 0.005254 -0.333989
O32   O     O_3   0.540137 0.977565 0.875647 -0.514712
H20   H     H_    0.569640 0.868428 0.881715 0.365770
C53   C     C_3   0.597081 0.276058 0.546364 -0.362154
C54   C     C_3   0.581802 0.381275 0.606921 -0.328378
C55   C     C_3   0.636653 0.518758 0.634245 -0.703443
H21   H     H_    0.684140 0.445203 0.652467 0.243587
H22   H     H_    0.643217 0.618595 0.594647 0.229708
H23   H     H_    0.623416 0.596140 0.676868 0.218528
H24   H     H_    0.534285 0.457303 0.591847 0.193368
H25   H     H_    0.576814 0.282732 0.647545 0.211097
H26   H     H_    0.646189 0.207646 0.560220 0.194351
H27   H     H_    0.598450 0.373815 0.504547 0.172127
C56   C     C_3   0.402794 0.723996 0.453475 -0.357428
C57   C     C_3   0.418064 0.618897 0.392887 -0.333183
C58   C     C_3   0.363224 0.481391 0.365554 -0.701713
H28   H     H_    0.356685 0.381480 0.405138 0.230903
H29   H     H_    0.315725 0.554918 0.347361 0.244769
H30   H     H_    0.376455 0.404099 0.322909 0.218146
H31   H     H_    0.423027 0.717510 0.352276 0.204782
H32   H     H_    0.465591 0.542899 0.407933 0.193715
H33   H     H_    0.401438 0.626170 0.495274 0.172202
H34   H     H_    0.353683 0.792399 0.439642 0.196451
C59   C     C_3   0.902919 0.776058 0.953637 -0.362196
C60   C     C_3   0.918195 0.881266 0.893076 -0.328321
C61   C     C_3   0.863345 0.018755 0.865755 -0.703462
H35   H     H_    0.815855 0.945205 0.847541 0.243532
H36   H     H_    0.856787 0.118600 0.905353 0.229684
H37   H     H_    0.876578 0.096124 0.823128 0.218616
H38   H     H_    0.965713 0.957289 0.908146 0.193366
H39   H     H_    0.923177 0.782717 0.852452 0.211144
H40   H     H_    0.853811 0.707646 0.939784 0.194330
H41   H     H_    0.901553 0.873819 0.995453 0.172125
C62   C     C_3   0.097206 0.223996 0.046525 -0.357427
C63   C     C_3   0.081933 0.118889 0.107110 -0.333181
C64   C     C_3   0.136771 0.981379 0.134443 -0.701711
H42   H     H_    0.143312 0.881474 0.094858 0.230905
H43   H     H_    0.184271 0.054903 0.152639 0.244778
H44   H     H_    0.123538 0.904079 0.177086 0.218133
H45   H     H_    0.076968 0.217497 0.147722 0.204778
H46   H     H_    0.034406 0.042893 0.092062 0.193716
H47   H     H_    0.098564 0.126176 0.004725 0.172205
H48   H     H_    0.146317 0.292400 0.060361 0.196451

loop_
_geom_bond_atom_site_label_1
_geom_bond_atom_site_label_2
_ccdc_geom_bond_type
O17   V3    S    
C24   H3    S    
C43   C47   S    
O1    C5    A    
S1    O21   D    
C47   C51   S    
C31   C48   S    
O19   V1    S    
O13   V1    S    
O3    C7    A    
O32   H20   S    
C14   S2    S    
O15   V3    S    
C64   H42   S    
C56   C57   S    
C5    C12   S    
C34   H10   S    
C38   C50   T    
O7    C3    A    
C6    C11   S    
C37   C49   T    
C59   H41   S    
O26   H18   S    
C9    C18   A    
C31   C59   S    
O9    V1    S    
C17   H6    S    
C14   C18   A    
C60   H39   S    
O4    C8    A    
H15   C44   S    
O29   H19   S    
C20   H7    S    
C62   C63   S    
O1    V3    S    
S4    O30   D    
C18   H5    S    
C12   C23   A    
O2    V4    S    
O3    V1    S    
C32   C44   S    
C63   H46   S    
C1    O15   A    
C53   H27   S    
C48   C52   S    
C2    O16   A    
C55   H22   S    
O2    C6    A    
C58   H30   S    
O14   V2    S    
C32   C47   S    
C39   C51   T    
C54   H24   S    
C36   H12   S    
C16   S4    S    
C7    C10   S    
C62   H47   S    
C15   C28   A    
C30   C42   S    
C35   C44   S    
O12   C8    A    
O23   H17   S    
C9    C22   A    
C10   C17   A    
O10   V2    S    
C11   C24   A    
H16   C43   S    
C30   C56   S    
C64   H43   S    
C54   C55   S    
O5    V1    S    
C30   C45   S    
C31   C35   S    
O7    V3    S    
C30   C34   S    
C13   S1    S    
C27   C28   A    
O8    V4    S    
C61   H35   S    
C46   C50   S    
C60   H38   S    
C14   C25   A    
C45   C49   S    
O18   V4    S    
C15   C19   A    
C42   C46   S    
O4    V2    S    
C31   C43   S    
C1    C40   S    
C40   C52   T    
O5    C1    A    
C63   H45   S    
C3    C38   S    
C21   C25   A    
O8    C4    A    
C55   H23   S    
C4    C37   S    
O9    C5    A    
S3    O28   D    
C10   C21   A    
O11   V3    S    
C11   C20   A    
C61   H37   S    
C19   H8    S    
C62   H48   S    
O6    V2    S    
C16   C20   A    
C21   H2    S    
S2    O24   D    
S1    O23   S    
S2    O25   D    
C29   C53   S    
C59   C60   S    
C36   C48   S    
H14   C41   S    
S2    O26   S    
C32   C36   S    
H13   C42   S    
C34   C46   S    
C64   H44   S    
C53   C54   S    
O16   V4    S    
C61   H36   S    
C3    O13   A    
C56   H33   S    
C36   C43   S    
C35   C47   S    
C44   C48   S    
C63   C64   S    
C56   H34   S    
O6    C2    A    
C23   C27   A    
C2    C39   S    
C15   S3    S    
C60   C61   S    
C32   C62   S    
O12   V4    S    
C16   C27   A    
C22   C26   A    
C59   H40   S    
C8    C9    S    
S4    O32   S    
O10   C6    A    
O20   V2    S    
C33   C45   S    
C29   C41   S    
C57   H32   S    
C34   C41   S    
C13   C26   A    
C33   C42   S    
C58   H28   S    
C33   H9    S    
C22   H1    S    
O11   C7    A    
S4    O31   D    
C57   H31   S    
S3    O29   S    
C35   H11   S    
C13   C17   A    
C54   H25   S    
C29   C46   S    
C29   C33   S    
C24   C28   A    
C53   H26   S    
S1    O22   D    
C25   C26   A    
C4    O14   A    
S3    O27   D    
C58   H29   S    
C23   H4    S    
C12   C19   A    
C41   C45   S    
C55   H21   S    
C57   C58   S    
