data_mof_unit_5285.cif
_audit_creation_date              2012-12-11T17:25:02-0500
_audit_creation_method            fapswitch 2.2
_symmetry_space_group_name_H-M    P1
_symmetry_Int_Tables_number       1
_space_group_crystal_system       triclinic
_cell_length_a                    6.952429
_cell_length_b                    20.542639
_cell_length_c                    24.478162
_cell_angle_alpha                 90.101228
_cell_angle_beta                  90.556471
_cell_angle_gamma                 89.568897
_cell_volume                      3495.73257519

loop_
_atom_site_label
_atom_site_type_symbol
_atom_type_description
_atom_site_fract_x
_atom_site_fract_y
_atom_site_fract_z
_atom_type_partial_charge
O1    O     O_R   0.507280 0.423750 0.460310 -0.543391
O2    O     O_R   0.171030 0.555650 0.437630 -0.534834
O3    O     O_R   0.004080 0.576250 0.539690 -0.533955
C1    C     C_R   0.339035 0.575754 0.421830 0.747634
O4    O     O_R   0.177330 0.422980 0.453960 -0.543399
O5    O     O_R   0.010420 0.442640 0.556140 -0.540354
C2    C     C_R   0.345900 0.398954 0.443453 0.674457
O6    O     O_R   0.500930 0.557360 0.443860 -0.524995
O7    O     O_3   0.340310 0.506600 0.533500 -0.365385
V1    V     V_3+5 0.064140 0.498780 0.493780 1.475064
O8    O     O_R   0.680890 0.444350 0.562370 -0.538443
C3    C     C_R   0.850623 0.424487 0.578213 0.719200
O9    O     O_R   0.674590 0.577020 0.546040 -0.521519
C4    C     C_R   0.842953 0.600863 0.556842 0.802259
V2    V     V_3+5 0.564550 0.501220 0.506220 1.502658
O10   O     O_3   0.838250 0.493400 0.466500 -0.373043
C5    C     C_R   0.971090 0.837856 0.911439 -0.134885
C6    C     C_R   0.847458 0.662105 0.588545 -0.155255
C7    C     C_R   0.967274 0.720165 0.908842 -0.138393
C8    C     C_R   0.985816 0.777872 0.938372 0.379871
C9    C     C_R   0.942235 0.839216 0.854433 -0.258825
C10   C     C_R   0.922958 0.780706 0.823407 0.096246
C11   C     C_R   0.934092 0.721054 0.852166 -0.012678
C12   C     C_R   0.890709 0.779188 0.765295 0.029878
C13   C     C_R   0.874685 0.717871 0.736931 -0.019994
C14   C     C_R   0.863126 0.660359 0.769141 0.365225
C15   C     C_R   0.901679 0.662441 0.825021 -0.163542
C16   C     C_R   0.867097 0.837088 0.734903 -0.153214
C17   C     C_R   0.829900 0.835850 0.679156 -0.168427
C18   C     C_R   0.827593 0.777307 0.650425 0.066037
C19   C     C_R   0.860423 0.717600 0.678094 0.117253
C20   C     C_R   0.795356 0.778480 0.593735 -0.185400
C21   C     C_R   0.799392 0.721220 0.563153 0.379376
C22   C     C_R   0.885205 0.661046 0.645156 -0.210253
H1    H     H_    0.895756 0.617591 0.848259 0.180947
H2    H     H_    0.939283 0.616078 0.662046 0.185511
H3    H     H_    0.807379 0.881650 0.657998 0.124401
H4    H     H_    0.975618 0.674255 0.930555 0.169114
H5    H     H_    0.934969 0.886689 0.835907 0.104642
H6    H     H_    0.870837 0.884709 0.753230 0.117794
H7    H     H_    0.765625 0.824163 0.573087 0.155639
H8    H     H_    0.619288 0.203803 0.791581 0.112493
C23   C     C_R   0.730148 0.268767 0.730708 -0.138343
H9    H     H_    0.588224 0.281925 0.715560 0.113917
C24   C     C_R   0.894453 0.295927 0.707140 0.135461
C25   C     C_R   0.076696 0.277946 0.727592 -0.137337
H10   H     H_    0.205290 0.298299 0.709994 0.117088
C26   C     C_R   0.094422 0.233389 0.770905 -0.147381
H11   H     H_    0.236341 0.220182 0.786030 0.111655
C27   C     C_R   0.930125 0.206116 0.794377 0.134954
C28   C     C_R   0.747872 0.224209 0.774016 -0.143316
C29   C     C_1   0.876531 0.341670 0.661907 -0.034746
C30   C     C_1   0.948060 0.159812 0.839187 -0.054473
C31   C     C_1   0.961190 0.121280 0.876725 -0.182239
C32   C     C_1   0.863290 0.379601 0.623927 -0.156263
H12   H     H_    0.698778 0.706148 0.299123 0.127629
C33   C     C_R   0.596640 0.769682 0.234981 -0.139554
H13   H     H_    0.740452 0.783974 0.223610 0.118557
C34   C     C_R   0.436113 0.795340 0.206872 0.128985
C35   C     C_R   0.251410 0.775745 0.222609 -0.126057
H14   H     H_    0.125439 0.794811 0.201523 0.128173
C36   C     C_R   0.227572 0.731298 0.265682 -0.139644
H15   H     H_    0.083761 0.716984 0.277034 0.118934
C37   C     C_R   0.388102 0.705613 0.293774 0.129199
C38   C     C_R   0.572802 0.725235 0.278055 -0.125540
C39   C     C_1   0.459919 0.841270 0.161916 -0.016421
C40   C     C_1   0.364312 0.659509 0.338610 -0.015398
C41   C     C_1   0.348923 0.621187 0.376277 -0.136083
C42   C     C_1   0.475304 0.879381 0.124103 -0.135216
C43   C     C_R   0.469832 0.161721 0.089068 -0.191386
C44   C     C_R   0.349832 0.338285 0.411262 -0.042040
C45   C     C_R   0.497739 0.279572 0.092433 0.336953
C46   C     C_R   0.484629 0.221612 0.062007 0.168541
C47   C     C_R   0.458901 0.159569 0.146769 0.163572
C48   C     C_R   0.443870 0.218799 0.177511 -0.000132
C49   C     C_R   0.480534 0.278264 0.149997 -0.038300
C50   C     C_R   0.396614 0.221261 0.234685 0.099461
C51   C     C_R   0.422652 0.280203 0.265277 0.046912
C52   C     C_R   0.479784 0.336177 0.236849 -0.203834
C53   C     C_R   0.501087 0.335651 0.180557 -0.085061
C54   C     C_R   0.309027 0.168357 0.261105 -0.149102
C55   C     C_R   0.268307 0.169976 0.316432 -0.229007
C56   C     C_R   0.304683 0.225463 0.347531 0.138689
C57   C     C_R   0.381183 0.281921 0.322696 0.085217
C58   C     C_R   0.255598 0.225667 0.402979 -0.155837
C59   C     C_R   0.275570 0.281793 0.434276 -0.168545
C60   C     C_R   0.405843 0.338181 0.356194 -0.212200
H16   H     H_    0.536549 0.381335 0.161369 0.194834
H17   H     H_    0.461923 0.383142 0.340596 0.098586
H18   H     H_    0.229764 0.281530 0.476465 0.107571
H19   H     H_    0.201895 0.127813 0.334750 0.132461
H20   H     H_    0.500556 0.382509 0.256563 0.126603
H21   H     H_    0.259138 0.126119 0.239179 0.169888
H22   H     H_    0.195840 0.182709 0.421834 0.118367
O11   O     O_R   0.323320 0.942780 0.056240 -0.527226
O12   O     O_R   0.647300 0.077050 0.046060 -0.539969
O13   O     O_R   0.813840 0.057330 0.943840 -0.532853
C61   C     C_R   0.478526 0.101145 0.056463 0.774786
O14   O     O_R   0.653250 0.944380 0.062400 -0.532226
O15   O     O_R   0.819830 0.923720 0.960300 -0.530139
C62   C     C_R   0.485204 0.924512 0.078354 0.742098
O16   O     O_R   0.317330 0.076390 0.039790 -0.549950
O17   O     O_3   0.483830 0.993470 0.966560 -0.370182
V3    V     V_3+5 0.760140 0.001210 0.006210 1.470791
O18   O     O_R   0.149290 0.922840 0.953850 -0.530130
C63   C     C_R   0.980519 0.899153 0.942989 0.779038
O19   O     O_R   0.143340 0.055500 0.937510 -0.543360
C64   C     C_R   0.973689 0.075713 0.921937 0.706281
V4    V     V_3+5 0.259690 0.998600 0.993650 1.464400
O20   O     O_3   0.986130 0.006520 0.033440 -0.372618
Cl1   Cl    Cl    0.527743 0.354034 0.057122 -0.625475
N1    N     N_2   0.497491 0.222474 0.003900 -0.516425
H23   H     H_    0.599096 0.253718 0.988671 0.303782
C65   C     C_3   0.314133 0.227619 0.975731 -0.453789
H24   H     H_    0.245971 0.275647 0.984150 0.235058
H25   H     H_    0.216172 0.188304 0.988880 0.186754
H26   H     H_    0.336259 0.222788 0.931035 0.186515
N2    N     N_2   0.486411 0.098612 0.173695 -0.535223
H27   H     H_    0.429139 0.058753 0.153923 0.234941
C66   C     C_3   0.680095 0.087263 0.193788 -0.522645
H28   H     H_    0.685801 0.040656 0.216667 0.191657
H29   H     H_    0.724824 0.126990 0.221923 0.211880
H30   H     H_    0.781871 0.084226 0.159126 0.193015
Cl2   Cl    Cl    0.749694 0.725434 0.492509 -0.654241
Cl3   Cl    Cl    0.023221 0.773466 0.009579 -0.630802
Cl4   Cl    Cl    0.759912 0.586636 0.746442 -0.648009

loop_
_geom_bond_atom_site_label_1
_geom_bond_atom_site_label_2
_ccdc_geom_bond_type
C13   C19   A    
V3    O20   S    
C4    C6    S    
O2    C1    A    
C7    C8    A    
C57   C60   A    
C45   C49   A    
N1    C65   S    
C65   H24   S    
C50   C51   A    
C14   C15   A    
C36   H15   S    
C9    C10   A    
C16   C17   A    
C34   C39   S    
O5    C3    A    
C18   C19   A    
C8    Cl3   S    
C33   C34   A    
C39   C42   T    
C16   H6    S    
V2    O10   S    
O15   V3    S    
C5    C8    A    
C54   H21   S    
C35   C36   A    
C14   Cl4   S    
N2    H27   S    
C36   C37   A    
O13   C64   A    
O8    V2    S    
O12   C61   A    
C43   C47   A    
C21   Cl2   S    
O19   C64   A    
O1    V2    S    
C2    C44   S    
C11   C15   A    
O7    V1    S    
C66   H30   S    
C1    O6    A    
H8    C28   S    
C26   C27   A    
O14   V3    S    
C45   Cl1   S    
C34   C35   A    
O9    C4    A    
O19   V4    S    
N1    H23   S    
C66   H29   S    
C54   C55   A    
C47   N2    S    
C25   C26   A    
C27   C30   S    
C47   C48   A    
C40   C41   T    
O13   V3    S    
C37   C40   S    
C49   C53   A    
C12   C13   A    
C59   H18   S    
C1    C41   S    
C51   C52   A    
C24   C29   S    
C15   H1    S    
C13   C14   A    
C61   O16   A    
C5    C9    A    
C55   H19   S    
C35   H14   S    
C7    C11   A    
C48   C49   A    
C17   C18   A    
C7    H4    S    
C51   C57   A    
C44   C59   A    
C6    C22   A    
C58   H22   S    
C56   C57   A    
C9    H5    S    
C50   C54   A    
C20   H7    S    
C43   C46   A    
C27   C28   A    
C52   H20   S    
C19   C22   A    
C48   C50   A    
C58   C59   A    
O3    C4    A    
C44   C60   A    
C26   H11   S    
O14   C62   A    
O6    V2    S    
O9    V2    S    
C23   H9    S    
O11   V4    S    
C10   C12   A    
O2    V1    S    
C66   H28   S    
C46   N1    S    
O4    C2    A    
O18   V4    S    
C25   H10   S    
C56   C58   A    
O1    C2    A    
C12   C16   A    
C33   C38   A    
C45   C46   A    
O5    V1    S    
C65   H25   S    
O8    C3    A    
C29   C32   T    
C30   C31   T    
H12   C38   S    
C42   C62   S    
O18   C63   A    
O15   C63   A    
C31   C64   S    
O17   V4    S    
C20   C21   A    
O12   V3    S    
O7    V2    S    
O4    V1    S    
C23   C24   A    
O3    V1    S    
V1    O10   S    
C5    C63   S    
C37   C38   A    
C18   C20   A    
C23   C28   A    
C33   H13   S    
O11   C62   A    
C22   H2    S    
C6    C21   A    
N2    C66   S    
C65   H26   S    
C52   C53   A    
C24   C25   A    
C3    C32   S    
C53   H16   S    
C55   C56   A    
C17   H3    S    
O17   V3    S    
C60   H17   S    
C10   C11   A    
O16   V4    S    
V4    O20   S    
C43   C61   S    
