data_mof_unit_40120.cif
_audit_creation_date              2013-03-05T15:50:59-0500
_audit_creation_method            fapswitch 2.2
_symmetry_space_group_name_H-M    P1
_symmetry_Int_Tables_number       1
_space_group_crystal_system       triclinic
_cell_length_a                    6.931215
_cell_length_b                    17.439587
_cell_length_c                    19.405804
_cell_angle_alpha                 109.529421
_cell_angle_beta                  90.126282
_cell_angle_gamma                 90.728454
_cell_volume                      2210.54538859

loop_
_atom_site_label
_atom_site_type_symbol
_atom_site_description
_atom_site_fract_x
_atom_site_fract_y
_atom_site_fract_z
_atom_type_partial_charge
O1    O     O_R   0.505810 0.439670 0.562310 -0.582699
O2    O     O_R   0.169070 0.404920 0.411210 -0.583151
O3    O     O_R   0.005550 0.560330 0.437690 -0.607384
C1    C     C_R   0.338525 0.381369 0.382974 0.929179
O4    O     O_R   0.175650 0.430000 0.560110 -0.562593
O5    O     O_R   0.012170 0.585580 0.587650 -0.602604
C2    C     C_R   0.344265 0.413476 0.580688 1.018216
O6    O     O_R   0.499180 0.414420 0.412350 -0.601460
O7    O     O_3   0.341430 0.551020 0.508860 -0.286742
V1    V     V_3+5 0.063930 0.490540 0.498360 1.209471
O8    O     O_R   0.682850 0.595080 0.588790 -0.599496
C3    C     C_R   0.853132 0.618992 0.616181 0.943601
O9    O     O_R   0.676280 0.570000 0.439890 -0.601931
C4    C     C_R   0.845567 0.585958 0.419084 0.943063
V2    V     V_3+5 0.564760 0.509460 0.501640 1.183979
O10   O     O_3   0.837130 0.448980 0.491140 -0.240478
C5    C     C_R   0.055329 0.865692 0.178270 -0.236580
C6    C     C_R   0.909792 0.858469 0.125655 -0.330946
C7    C     C_R   0.751916 0.803190 0.120650 0.478827
C8    C     C_R   0.732832 0.764431 0.174319 -0.063712
C9    C     C_R   0.884095 0.771147 0.225175 -0.017864
C10   C     C_R   0.046440 0.821023 0.226359 0.148351
C11   C     C_R   0.566392 0.718566 0.178661 -0.071940
C12   C     C_R   0.555968 0.675998 0.227863 -0.255700
C13   C     C_R   0.709366 0.679025 0.275432 0.158930
C14   C     C_R   0.873804 0.727178 0.274763 0.074519
C15   C     C_R   0.028362 0.730935 0.323349 0.139819
C16   C     C_R   0.188466 0.781254 0.324156 -0.208747
C17   C     C_R   0.196549 0.826458 0.276621 -0.185090
C18   C     C_R   0.700123 0.634769 0.323774 -0.252600
C19   C     C_R   0.855730 0.635890 0.370551 -0.139043
C20   C     C_R   0.019856 0.684239 0.370098 -0.245583
H1    H     H_    0.176534 0.906884 0.182099 0.165814
H2    H     H_    0.439723 0.716230 0.145527 0.203905
H3    H     H_    0.426620 0.640773 0.228812 0.145294
H4    H     H_    0.573114 0.597768 0.323720 0.136026
H5    H     H_    0.139719 0.686255 0.406683 0.144882
H6    H     H_    0.307976 0.785464 0.361396 0.150816
H7    H     H_    0.322063 0.864780 0.278394 0.139453
C21   C     C_3   0.808748 0.815842 0.741318 0.407032
C22   C     C_3   0.977873 0.770433 0.694990 -0.212193
H8    H     H_    0.050474 0.787089 0.650944 0.150491
C23   C     C_3   0.869105 0.689780 0.685843 -0.129408
C24   C     C_3   0.697862 0.735756 0.730699 -0.224872
C25   C     C_3   0.795725 0.730996 0.801207 -0.161393
C26   C     C_3   0.966605 0.684279 0.755432 -0.080567
C27   C     C_3   0.074570 0.766008 0.765980 -0.121938
C28   C     C_3   0.903703 0.812356 0.811571 -0.236372
H9    H     H_    0.542859 0.724278 0.715861 0.141932
H10   H     H_    0.722074 0.709682 0.842045 0.177256
H11   H     H_    0.032305 0.628849 0.760894 0.114160
H12   H     H_    0.229424 0.778207 0.780789 0.135960
C29   C     C_3   0.556530 0.282057 0.277682 -0.071923
C30   C     C_3   0.492820 0.192544 0.263119 -0.137960
H13   H     H_    0.582794 0.145431 0.273741 0.117082
H14   H     H_    0.699127 0.308419 0.300386 0.123982
C31   C     C_3   0.413671 0.189058 0.187986 -0.089640
C32   C     C_3   0.476792 0.277851 0.201860 -0.151350
C33   C     C_3   0.278262 0.307379 0.236959 -0.148951
C34   C     C_3   0.214556 0.217868 0.222401 -0.092369
C35   C     C_3   0.294294 0.222083 0.298228 -0.117371
C36   C     C_3   0.357418 0.310875 0.312086 -0.092519
H15   H     H_    0.553469 0.300701 0.162286 0.108300
H16   H     H_    0.188285 0.354494 0.226343 0.107667
H17   H     H_    0.071956 0.191500 0.199708 0.119922
H18   H     H_    0.217624 0.199249 0.337815 0.150780
C37   C     C_R   0.253533 0.125110 0.822085 -0.210468
C38   C     C_R   0.416500 0.132895 0.867536 -0.131340
C39   C     C_R   0.567400 0.186351 0.864248 -0.220145
C40   C     C_R   0.554162 0.232817 0.817482 0.142903
C41   C     C_R   0.390312 0.224263 0.771899 0.067083
C42   C     C_R   0.240734 0.169510 0.773820 0.139940
C43   C     C_R   0.701729 0.287851 0.815542 -0.221331
C44   C     C_R   0.686865 0.334269 0.769306 -0.157964
C45   C     C_R   0.525220 0.325862 0.723431 0.153464
C46   C     C_R   0.376492 0.270221 0.724129 -0.005592
C47   C     C_R   0.215518 0.259622 0.676623 -0.027593
C48   C     C_R   0.069696 0.203204 0.678469 -0.122888
C49   C     C_R   0.081194 0.159592 0.727051 -0.209026
C50   C     C_R   0.510673 0.372210 0.676951 -0.177749
C51   C     C_R   0.353315 0.362129 0.628634 -0.320141
C52   C     C_R   0.206568 0.304127 0.627398 0.299120
H19   H     H_    0.137414 0.083363 0.823395 0.160039
H20   H     H_    0.693539 0.192870 0.898981 0.134211
H21   H     H_    0.828777 0.295121 0.849902 0.142008
H22   H     H_    0.802970 0.376348 0.768972 0.139484
H23   H     H_    0.623027 0.416583 0.678424 0.160909
H24   H     H_    0.944923 0.192477 0.642780 0.187796
H25   H     H_    0.965280 0.117512 0.727637 0.172203
O11   O     O_R   0.271890 0.085690 0.087580 -0.605278
O12   O     O_R   0.595690 0.070020 0.939870 -0.581630
O13   O     O_R   0.758900 0.914390 0.912370 -0.568775
C53   C     C_R   0.427057 0.084811 0.917863 0.982395
O14   O     O_R   0.602020 0.095100 0.088770 -0.606732
O15   O     O_R   0.765280 0.939660 0.062330 -0.562857
C54   C     C_R   0.432567 0.118622 0.117039 0.894253
O16   O     O_R   0.265520 0.060430 0.937620 -0.611127
O17   O     O_3   0.429560 0.949050 0.991100 -0.239631
V3    V     V_3+5 0.707160 0.009450 0.001650 1.210633
O18   O     O_R   0.094540 0.929890 0.060190 -0.571317
C55   C     C_R   0.924166 0.911564 0.079135 1.066192
O19   O     O_R   0.088200 0.904800 0.911290 -0.606969
C56   C     C_R   0.918412 0.881937 0.882824 1.059178
V4    V     V_3+5 0.206300 0.990390 0.998440 1.211457
O20   O     O_3   0.934030 0.050940 0.008900 -0.298148
N1    N     N_R   0.721538 0.886715 0.730638 0.222604
O21   O     O_R   0.637733 0.879465 0.668721 -0.401541
O22   O     O_R   0.735200 0.957978 0.780864 -0.440459
S1    S     S_3+6 0.590852 0.773923 0.044009 -0.053939
O23   O     O_2   0.550253 0.683859 0.020037 -0.298121
O24   O     O_2   0.405034 0.818603 0.066373 -0.317675
O25   O     O_3   0.681576 0.794044 0.972008 -0.564805
H26   H     H_    0.566893 0.796081 0.942127 0.367726
N2    N     N_R   0.056121 0.286823 0.573264 0.235721
O26   O     O_R   0.878971 0.306247 0.592486 -0.424287
O27   O     O_R   0.098225 0.256064 0.504189 -0.415330

loop_
_geom_bond_atom_site_label_1
_geom_bond_atom_site_label_2
_geom_bond_distance
_ccdc_geom_bond_type
C24   H9    1.109892 S    
C9    C14   1.418219 A    
C37   H19   1.084463 S    
C10   C17   1.405009 A    
C22   H8    1.110132 S    
C7    C8    1.424107 A    
C4    C19   1.482330 S    
C1    O6    1.287776 A    
N2    O26   1.299875 A    
C47   C48   1.410448 A    
C33   H16   1.110027 S    
C25   H10   1.104865 S    
C16   C17   1.400295 A    
C6    C7    1.430501 A    
C42   C49   1.400785 A    
S1    O24   1.502062 D    
O5    C3    1.290163 A    
C41   C46   1.417480 A    
O19   V4    2.008322 S    
O15   V3    1.999710 S    
C25   C28   1.547692 S    
N1    O21   1.300238 A    
V2    O10   2.150962 S    
C1    C36   1.514968 S    
O18   V4    1.994453 S    
C37   C42   1.403911 A    
C43   C44   1.399386 A    
O25   H26   0.990881 S    
C47   C52   1.419659 A    
O13   C56   1.293519 A    
C30   H13   1.110032 S    
O8    V2    2.008534 S    
C35   H18   1.109988 S    
C27   C28   1.545812 S    
C38   C39   1.407976 A    
C31   C54   1.515179 S    
C11   C12   1.393134 A    
C40   C41   1.413339 A    
O1    V2    1.995491 S    
C45   C50   1.402199 A    
C35   C36   1.537991 S    
C33   C34   1.548771 S    
O9    C4    1.298525 A    
C22   C23   1.543954 S    
O19   C56   1.298855 A    
C5    H1    1.084448 S    
O4    V1    2.003202 S    
V4    O20   2.150977 S    
C51   C52   1.419798 A    
C46   C47   1.416060 A    
C7    S1    1.785905 S    
V3    O20   1.708240 S    
C12   H3    1.084032 S    
C44   C45   1.404810 A    
C37   C38   1.408519 A    
C12   C13   1.395377 A    
C52   N2    1.434316 S    
S1    O25   1.672387 S    
O4    C2    1.300700 A    
C48   C49   1.397936 A    
C13   C18   1.401042 A    
C31   C34   1.549364 S    
C32   C33   1.552507 S    
C29   C30   1.548795 S    
C28   C56   1.506396 S    
C26   H11   1.110208 S    
C34   C35   1.548929 S    
C6    C55   1.496414 S    
O2    C1    1.308848 A    
C45   C46   1.409922 A    
O12   C53   1.301617 A    
C29   C36   1.549299 S    
C19   C20   1.409179 A    
C8    C11   1.414133 A    
C16   H6    1.083590 S    
C29   C32   1.548876 S    
C11   H2    1.079361 S    
O11   V4    2.004093 S    
C17   H7    1.083683 S    
C40   C43   1.402890 A    
C5    C6    1.407904 A    
C22   C27   1.556051 S    
C20   H5    1.084199 S    
C44   H22   1.083691 S    
O14   C54   1.308948 A    
C43   H21   1.083595 S    
O3    C4    1.295560 A    
C3    C23   1.497964 S    
C21   C22   1.536806 S    
C2    C51   1.493236 S    
C34   H17   1.110601 S    
O6    V2    2.003353 S    
O9    V2    1.994324 S    
C23   C24   1.539961 S    
C14   C15   1.411862 A    
O2    V1    1.991383 S    
C53   O16   1.296218 A    
C24   C25   1.553195 S    
C21   N1    1.457988 S    
O7    V1    2.157898 S    
C29   H14   1.110609 S    
C48   H24   1.081297 S    
C32   H15   1.109971 S    
C21   C28   1.532307 S    
C26   C27   1.552610 S    
C33   C36   1.538308 S    
C15   C20   1.408040 A    
O1    C2    1.298949 A    
C38   C53   1.486988 S    
C50   C51   1.407138 A    
O5    V1    1.993993 S    
N2    O27   1.301796 A    
O8    C3    1.298446 A    
O11   C54   1.287779 A    
C27   H12   1.109880 S    
C30   C35   1.552580 S    
C50   H23   1.084393 S    
C5    C10   1.402359 A    
C18   H4    1.084649 S    
C13   C14   1.409762 A    
C41   C42   1.409545 A    
O3    V1    1.999931 S    
V1    O10   1.708303 S    
S1    O23   1.504091 D    
C31   C32   1.537948 S    
C18   C19   1.403906 A    
N1    O22   1.300080 A    
O14   V3    1.991279 S    
O17   V4    1.701582 S    
O18   C55   1.304873 A    
O7    V2    1.703727 S    
C39   C40   1.407811 A    
C23   C26   1.540710 S    
C49   H25   1.083883 S    
O16   V4    2.001681 S    
C25   C26   1.549507 S    
C21   C24   1.537358 S    
C8    C9    1.414906 A    
O17   V3    2.157822 S    
C15   C16   1.402775 A    
C39   H20   1.084089 S    
O12   V3    2.003359 S    
C9    C10   1.408877 A    
O15   C55   1.295453 A    
O13   V3    1.994041 S    
C30   C31   1.538450 S    
