data_mof_unit_38483.cif
_audit_creation_date              2012-12-10T18:13:48-0500
_audit_creation_method            fapswitch 2.2
_symmetry_space_group_name_H-M    P1
_symmetry_Int_Tables_number       1
_space_group_crystal_system       triclinic
_cell_length_a                    10.721655
_cell_length_b                    9.472531
_cell_length_c                    23.476154
_cell_angle_alpha                 90.53978
_cell_angle_beta                  89.342301
_cell_angle_gamma                 90.168844
_cell_volume                      2383.99410159

loop_
_atom_site_label
_atom_site_type_symbol
_atom_type_description
_atom_site_fract_x
_atom_site_fract_y
_atom_site_fract_z
_atom_type_partial_charge
C1    C     C_R   0.259909 0.499894 0.501935 0.746228
C2    C     C_R   0.298873 0.407811 0.972378 -0.163009
C3    C     C_R   0.299452 0.408632 0.031789 -0.163697
C4    C     C_R   0.403566 0.459779 0.061438 -0.013078
C5    C     C_R   0.507857 0.510526 0.030804 -0.018164
C6    C     C_R   0.612716 0.562047 0.060142 -0.012991
C7    C     C_R   0.716223 0.612389 0.029130 -0.164030
C8    C     C_R   0.715701 0.611410 0.969684 -0.162414
C9    C     C_R   0.406397 0.461112 0.121141 0.531229
C10   C     C_R   0.611038 0.561948 0.119930 0.530941
C11   C     C_R   0.589930 0.421795 0.239175 -0.119249
C12   C     C_R   0.500042 0.499887 0.391291 0.804633
C13   C     C_R   0.586471 0.417354 0.298527 -0.256674
C14   C     C_R   0.501903 0.501797 0.329159 -0.033521
C15   C     C_R   0.424085 0.595019 0.300238 -0.219814
C16   C     C_R   0.427221 0.599228 0.240921 -0.112284
C17   C     C_R   0.509312 0.511613 0.210141 0.360135
C18   C     C_R   0.503614 0.632704 0.761361 -0.102388
C19   C     C_R   0.501808 0.631212 0.701987 -0.229185
C20   C     C_R   0.502028 0.502290 0.671793 -0.040080
C21   C     C_R   0.504453 0.375078 0.702122 -0.228241
C22   C     C_R   0.506240 0.376891 0.761491 -0.101803
C23   C     C_R   0.739826 0.500162 0.501907 0.756201
C24   C     C_R   0.505710 0.505623 0.791319 0.357891
C25   C     C_3   0.071353 0.641899 0.527432 -0.375668
C26   C     C_3   0.070455 0.378572 0.540995 -0.374823
C27   C     C_3   0.928179 0.640061 0.529438 -0.379074
C28   C     C_3   0.926629 0.376696 0.539965 -0.377172
C29   C     C_3   0.073416 0.478882 0.441799 -0.383671
C30   C     C_3   0.121861 0.499730 0.503139 0.168681
C31   C     C_3   0.877934 0.500068 0.503250 0.161234
C32   C     C_3   0.929729 0.482249 0.441738 -0.378616
C33   C     C_3   0.598276 0.081742 0.461847 0.412387
C34   C     C_3   0.606953 0.914865 0.466504 0.445670
C35   C     C_3   0.525225 0.084611 0.558953 -0.323531
C36   C     C_3   0.517360 0.917292 0.559648 -0.315367
C37   C     C_3   0.377170 0.082351 0.485156 -0.241654
C38   C     C_3   0.379965 0.915798 0.481512 -0.244467
C39   C     C_R   0.500347 0.500627 0.609069 0.789238
C40   C     C_R   0.609062 0.557736 0.880259 0.532224
C41   C     C_R   0.403979 0.458089 0.881640 0.532192
C42   C     C_R   0.402458 0.457959 0.941386 -0.013921
C43   C     C_R   0.507306 0.509595 0.970685 -0.018164
C44   C     C_R   0.611611 0.560196 0.940011 -0.013907
Cu1   Cu    Cu3+1 0.499860 0.642410 0.500030 0.935445
Cu2   Cu    Cu3+1 0.499860 0.357590 0.500030 0.925326
H1    H     H_    0.500096 0.730925 0.679836 0.145785
H2    H     H_    0.505099 0.274167 0.680093 0.144845
H3    H     H_    0.508207 0.278251 0.784404 0.140586
H4    H     H_    0.102934 0.731013 0.500195 0.159216
H5    H     H_    0.105706 0.274618 0.525412 0.160187
H6    H     H_    0.107922 0.661121 0.571024 0.159214
H7    H     H_    0.102788 0.393005 0.585562 0.160317
H8    H     H_    0.895042 0.651158 0.574369 0.160873
H9    H     H_    0.888928 0.385744 0.584219 0.156729
H10   H     H_    0.893362 0.732982 0.506087 0.154544
H11   H     H_    0.894652 0.273540 0.522222 0.163343
H12   H     H_    0.110706 0.563515 0.413691 0.151010
H13   H     H_    0.106489 0.376044 0.424031 0.158098
H14   H     H_    0.898321 0.571065 0.415014 0.158080
H15   H     H_    0.893459 0.382958 0.422217 0.165333
H16   H     H_    0.218103 0.369080 0.054359 0.189425
H17   H     H_    0.618586 0.119731 0.573819 0.142846
H18   H     H_    0.603117 0.874085 0.579163 0.153569
H19   H     H_    0.305629 0.113563 0.517614 0.152341
H20   H     H_    0.302623 0.876387 0.509035 0.153619
H21   H     H_    0.797973 0.652559 0.050657 0.189040
H22   H     H_    0.797072 0.650859 0.947103 0.190171
H23   H     H_    0.654401 0.354710 0.215710 0.148980
H24   H     H_    0.650946 0.349970 0.320627 0.182434
H25   H     H_    0.360139 0.663193 0.323557 0.137181
H26   H     H_    0.365616 0.669990 0.218796 0.142934
H27   H     H_    0.502777 0.732599 0.784173 0.140857
N1    N     N_R   0.506306 0.507232 0.852420 -0.469681
N2    N     N_R   0.508965 0.511835 0.149056 -0.468433
N3    N     N_3   0.500250 0.143650 0.501250 -0.156660
N4    N     N_3   0.500250 0.856350 0.501250 -0.145420
O1    O     O_R   0.317570 0.620260 0.500030 -0.601311
O2    O     O_R   0.317570 0.379740 0.500030 -0.598417
O3    O     O_R   0.499840 0.620290 0.417900 -0.516154
O4    O     O_R   0.499840 0.379710 0.417900 -0.544627
O5    O     O_R   0.682190 0.620260 0.500010 -0.579477
O6    O     O_R   0.682190 0.379740 0.500010 -0.584965
O7    O     O_R   0.499920 0.620230 0.582140 -0.593643
O8    O     O_R   0.499920 0.379770 0.582140 -0.592506
O9    O     O_2   0.708741 0.604281 0.850180 -0.538551
O10   O     O_2   0.303718 0.410518 0.852920 -0.538092
O11   O     O_2   0.307936 0.410995 0.151122 -0.543229
O12   O     O_2   0.710066 0.612376 0.148760 -0.544034
H28   H     H_    0.217102 0.367652 0.950863 0.190087
H29   H     H_    0.689266 0.118832 0.478831 0.045461
H30   H     H_    0.693281 0.892644 0.491232 -0.016684
O13   O     O_3   0.600638 0.138369 0.405305 -0.584896
C45   C     C_3   0.507492 0.091171 0.366731 0.153610
H31   H     H_    0.434851 0.173395 0.362816 0.149212
H32   H     H_    0.459593 0.993924 0.379096 0.145943
C46   C     C_3   0.563414 0.066239 0.307215 -0.805685
H33   H     H_    0.541526 0.957701 0.292108 0.225074
H34   H     H_    0.521755 0.139565 0.276191 0.222453
H35   H     H_    0.666133 0.081389 0.306722 0.255301
O14   O     O_3   0.617231 0.846694 0.412577 -0.542525
C47   C     C_3   0.742074 0.847345 0.391818 0.052391
H36   H     H_    0.808121 0.805631 0.423455 0.112680
H37   H     H_    0.771805 0.955918 0.380426 0.156311
C48   C     C_3   0.752957 0.752609 0.339292 -0.737225
H38   H     H_    0.734453 0.641462 0.351159 0.231904
H39   H     H_    0.685560 0.784013 0.306395 0.261172
H40   H     H_    0.848791 0.759795 0.321105 0.196167
H41   H     H_    0.342095 0.128587 0.445484 0.131746
H42   H     H_    0.357420 0.874726 0.438545 0.146226
H43   H     H_    0.456263 0.126437 0.590494 0.182931
H44   H     H_    0.438733 0.884598 0.588014 0.172989

loop_
_geom_bond_atom_site_label_1
_geom_bond_atom_site_label_2
_ccdc_geom_bond_type
O13   C45   S    
C23   O5    A    
C41   C42   A    
C19   C20   A    
C16   H26   S    
Cu2   N3    S    
C46   H33   S    
C27   H8    S    
C7    C8    A    
C28   H11   S    
C48   H39   S    
O14   C47   S    
C23   O6    A    
C18   C24   A    
C37   C38   S    
C32   H15   S    
C29   C32   S    
C36   N4    S    
C33   H29   S    
C9    O11   S    
C5    C6    A    
C19   H1    S    
Cu1   O5    S    
C13   H24   S    
C15   C16   A    
C47   C48   S    
C18   C19   A    
C40   O9    S    
C2    H28   S    
C25   H4    S    
C41   N1    A    
C38   H20   S    
C10   O12   S    
C16   C17   A    
C37   H19   S    
C36   H44   S    
Cu1   O1    S    
C38   H42   S    
C37   H41   S    
Cu2   O8    S    
C5    C43   A    
C21   C22   A    
C1    O1    A    
C45   H31   S    
C46   H34   S    
C28   H9    S    
C41   O10   S    
C48   H40   S    
C35   N3    S    
C34   O14   S    
C27   C31   S    
C29   H13   S    
C20   C39   S    
C27   H10   S    
C45   C46   S    
Cu1   Cu2   S    
C35   C36   S    
C23   C31   S    
C45   H32   S    
C43   C44   A    
C6    C10   A    
C29   C30   S    
Cu2   O4    S    
C10   N2    A    
C33   N3    S    
C31   C32   S    
C33   C34   S    
C20   C21   A    
C47   H37   S    
C22   H3    S    
C37   N3    S    
C12   C14   S    
C8    H22   S    
C18   H27   S    
C1    O2    A    
C22   C24   A    
Cu1   O7    S    
C42   C43   A    
C39   O8    A    
C3    C4    A    
C26   H7    S    
C46   H35   S    
C35   H43   S    
C3    H16   S    
C25   C30   S    
C11   C17   A    
C28   C31   S    
C8    C44   A    
C4    C5    A    
C33   O13   S    
C39   O7    A    
C35   H17   S    
C11   H23   S    
C26   C30   S    
C6    C7    A    
C38   N4    S    
C25   C27   S    
C15   H25   S    
C48   H38   S    
C26   C28   S    
C21   H2    S    
C2    C3    A    
C25   H6    S    
C34   N4    S    
C36   H18   S    
C26   H5    S    
C11   C13   A    
C24   N1    S    
Cu2   O2    S    
C2    C42   A    
C12   O3    A    
C1    C30   S    
C40   N1    A    
C12   O4    A    
Cu1   O3    S    
C47   H36   S    
C34   H30   S    
C7    H21   S    
Cu2   O6    S    
C40   C44   A    
C29   H12   S    
C17   N2    S    
C32   H14   S    
C14   C15   A    
Cu1   N4    S    
C9    N2    A    
C4    C9    A    
C13   C14   A    
