data_mof_unit_20782.cif
_audit_creation_date              2012-12-10T17:37:17-0500
_audit_creation_method            fapswitch 2.2
_symmetry_space_group_name_H-M    P1
_symmetry_Int_Tables_number       1
_space_group_crystal_system       triclinic
_cell_length_a                    12.331806
_cell_length_b                    13.080506
_cell_length_c                    15.835921
_cell_angle_alpha                 78.805778
_cell_angle_beta                  101.084198
_cell_angle_gamma                 116.778417
_cell_volume                      2221.02694345

loop_
_atom_site_label
_atom_site_type_symbol
_atom_type_description
_atom_site_fract_x
_atom_site_fract_y
_atom_site_fract_z
_atom_type_partial_charge
C1    C     C_R   0.854592 0.285882 0.510921 0.848441
C2    C     C_3   0.006208 0.514857 0.915301 0.136951
C3    C     C_3   0.110067 0.608385 0.024233 -0.032561
C4    C     C_3   0.011540 0.521259 0.081228 0.125615
C5    C     C_3   0.008184 0.614294 0.953617 0.464304
C6    C     C_3   0.908282 0.527818 0.010611 -0.281604
C7    C     C_1   0.003130 0.510044 0.823984 -0.010611
C8    C     C_1   0.012262 0.519151 0.173573 -0.000640
C9    C     C_R   0.293428 0.986800 0.346439 0.073489
C10   C     C_R   0.226623 0.834459 0.465621 -0.057425
C11   C     C_R   0.807446 0.090997 0.589068 -0.281161
C12   C     C_R   0.999924 0.500898 0.659775 0.837337
C13   C     C_R   0.726369 0.977176 0.610068 -0.226606
C14   C     C_R   0.603442 0.933581 0.571727 0.468114
C15   C     C_R   0.563027 0.009463 0.511084 -0.065579
C16   C     C_R   0.652847 0.116948 0.478587 -0.079353
C17   C     C_R   0.438219 0.977187 0.474817 -0.046953
C18   C     C_R   0.410253 0.038811 0.395354 0.038150
C19   C     C_R   0.501828 0.146809 0.365871 -0.061522
C20   C     C_R   0.623556 0.175440 0.399526 0.348030
C21   C     C_R   0.339262 0.887716 0.516038 0.036280
C22   C     C_R   0.203872 0.885167 0.382463 -0.333105
C23   C     C_R   0.145101 0.713568 0.488376 0.897783
C24   C     C_R   0.772058 0.161871 0.523485 -0.083589
C25   C     C_R   0.341179 0.321381 0.630255 -0.301036
C26   C     C_R   0.761972 0.646026 0.384596 -0.005687
C27   C     C_R   0.662544 0.671107 0.353194 -0.320660
C28   C     C_R   0.552378 0.608496 0.389017 0.480108
C29   C     C_R   0.546088 0.527681 0.464918 -0.137526
C30   C     C_R   0.650275 0.502765 0.492748 0.235989
C31   C     C_R   0.442218 0.469485 0.513767 -0.041164
C32   C     C_R   0.440966 0.381230 0.582354 0.191774
C33   C     C_R   0.540905 0.355380 0.605061 -0.281713
C34   C     C_R   0.003058 0.503877 0.339908 0.847035
C35   C     C_R   0.644155 0.416876 0.562983 -0.153426
C36   C     C_R   0.341956 0.498362 0.501709 0.047488
C37   C     C_R   0.243553 0.350698 0.612091 0.072096
C38   C     C_3   0.009453 0.420180 0.043475 -0.158270
C39   C     C_3   0.907104 0.427027 0.971690 -0.206056
C40   C     C_1   0.001247 0.505466 0.748904 -0.144806
C41   C     C_1   0.009674 0.513231 0.249753 -0.179818
C42   C     C_3   0.108694 0.508059 0.985515 -0.286408
Cu1   Cu    Cu3+1 0.098270 0.475420 0.519690 0.962636
Cu2   Cu    Cu3+1 0.901730 0.524580 0.480310 0.957444
H1    H     H_    0.824316 0.352065 0.948494 0.142400
H2    H     H_    0.898881 0.123383 0.623752 0.166127
H3    H     H_    0.761415 0.923936 0.656378 0.141288
H4    H     H_    0.165525 0.304176 0.648113 0.121840
H5    H     H_    0.541120 0.289170 0.658211 0.144613
H6    H     H_    0.339250 0.252998 0.681955 0.140279
H7    H     H_    0.338569 0.569980 0.456824 0.200221
H8    H     H_    0.844750 0.691888 0.353585 0.146729
H9    H     H_    0.009495 0.339620 0.081943 0.141267
H10   H     H_    0.668872 0.735618 0.297553 0.160340
H11   H     H_    0.717603 0.393945 0.588381 0.194611
H12   H     H_    0.826719 0.535385 0.022840 0.137911
H13   H     H_    0.189737 0.499691 0.973157 0.154316
H14   H     H_    0.118549 0.840175 0.342811 0.134263
N1    N     N_R   0.246280 0.438200 0.549540 -0.195345
N2    N     N_R   0.754330 0.561180 0.450980 -0.196849
O1    O     O_R   0.972510 0.318130 0.524770 -0.594774
O2    O     O_R   0.806530 0.359650 0.491510 -0.575101
O3    O     O_R   0.082970 0.479240 0.637550 -0.575077
O4    O     O_R   0.916990 0.520750 0.604290 -0.596802
O5    O     O_R   0.193470 0.640350 0.508490 -0.558878
O6    O     O_R   0.027490 0.681870 0.475230 -0.594945
O7    O     O_R   0.083010 0.479250 0.395710 -0.591622
O8    O     O_R   0.917030 0.520760 0.362450 -0.566112
C43   C     C_2   0.346196 0.866742 0.612604 0.357909
H15   H     H_    0.425858 0.922337 0.651805 0.055869
O9    O     O_2   0.261958 0.790542 0.649670 -0.568072
O10   O     O_3   0.529357 0.815042 0.577915 -0.610201
C44   C     C_3   0.535693 0.756785 0.662988 0.044352
H16   H     H_    0.440060 0.698222 0.675600 0.207289
H17   H     H_    0.574478 0.814519 0.715055 0.104411
C45   C     C_3   0.604878 0.682693 0.668902 -0.330984
H18   H     H_    0.577676 0.639955 0.609599 0.246036
H19   H     H_    0.704925 0.736756 0.673193 0.202701
C46   C     C_3   0.577794 0.590677 0.747584 -0.910713
H20   H     H_    0.601095 0.631386 0.807895 0.249822
H21   H     H_    0.633158 0.541985 0.751882 0.264280
H22   H     H_    0.479431 0.529126 0.741478 0.263291
O11   O     O_3   0.712817 0.243056 0.345384 -0.594038
C47   C     C_3   0.732842 0.167282 0.303424 0.071554
H23   H     H_    0.647462 0.088320 0.288222 0.149655
H24   H     H_    0.799767 0.138899 0.345938 0.121025
C48   C     C_3   0.783847 0.226931 0.217582 -0.353799
H25   H     H_    0.787459 0.162085 0.183407 0.169752
H26   H     H_    0.878673 0.292794 0.230407 0.207403
C49   C     C_3   0.705101 0.281470 0.159101 -0.736812
H27   H     H_    0.607449 0.218035 0.152858 0.262297
H28   H     H_    0.735330 0.309753 0.093631 0.224140
H29   H     H_    0.714579 0.357979 0.185747 0.258019
O12   O     O_3   0.452684 0.626663 0.346106 -0.620969
C50   C     C_3   0.377121 0.535919 0.295378 0.065062
H30   H     H_    0.283142 0.530515 0.286203 0.189972
H31   H     H_    0.369864 0.449763 0.327921 0.166382
C51   C     C_3   0.420492 0.561000 0.205968 -0.338088
H32   H     H_    0.425400 0.646245 0.174052 0.252807
H33   H     H_    0.513019 0.563663 0.212926 0.204603
C52   C     C_3   0.333816 0.468384 0.148668 -0.892255
H34   H     H_    0.334864 0.384045 0.175976 0.293287
H35   H     H_    0.363183 0.492366 0.082839 0.243048
H36   H     H_    0.239318 0.459832 0.143808 0.263338
O13   O     O_3   0.011889 0.715499 0.900306 -0.613781
C53   C     C_3   0.981809 0.781670 0.944393 0.064573
H37   H     H_    0.047968 0.873381 0.931336 0.170454
H38   H     H_    0.989514 0.759593 0.016382 0.135091
C54   C     C_3   0.853003 0.770508 0.908632 -0.344451
H39   H     H_    0.848944 0.798870 0.837661 0.231267
H40   H     H_    0.785870 0.678845 0.919251 0.213144
C55   C     C_3   0.817557 0.843345 0.952369 -0.940509
H41   H     H_    0.818176 0.814604 0.023173 0.256736
H42   H     H_    0.724040 0.833529 0.924599 0.255070
H43   H     H_    0.882316 0.935887 0.941364 0.258587
C56   C     C_2   0.223398 0.710992 0.051280 0.336681
H44   H     H_    0.286370 0.765023 0.004460 0.084247
O14   O     O_2   0.245368 0.734452 0.125413 -0.535494
C57   C     C_2   0.474638 0.238503 0.308182 0.428597
H45   H     H_    0.543242 0.306117 0.270144 0.102854
O15   O     O_2   0.378163 0.243966 0.307239 -0.601476
C58   C     C_2   0.266916 0.019851 0.252350 0.456749
H46   H     H_    0.174152 0.005220 0.224807 0.046233
O16   O     O_2   0.345942 0.056289 0.203947 -0.559427

loop_
_geom_bond_atom_site_label_1
_geom_bond_atom_site_label_2
_ccdc_geom_bond_type
C48   H25   S    
C3    C42   S    
C52   H34   S    
Cu2   N2    S    
C44   H16   S    
Cu2   O6    S    
C50   H30   S    
C45   C46   S    
C4    C8    S    
C36   N1    A    
C1    O2    A    
C55   H42   S    
C50   C51   S    
Cu1   O3    S    
C5    O13   S    
C10   C22   A    
C6    H12   S    
C26   C27   A    
C30   C35   A    
C23   O6    A    
C28   C29   A    
C45   H19   S    
C38   C42   S    
C3    C56   S    
C54   H40   S    
C5    C6    S    
C12   O4    A    
C9    C22   A    
C53   H37   S    
C33   H5    S    
C15   C16   A    
C11   C24   A    
C56   H44   S    
C28   O12   S    
C18   C19   A    
C43   O9    D    
C25   H6    S    
C25   C37   A    
C48   C49   S    
C47   H23   S    
C2    C7    S    
C30   N2    A    
C7    C40   T    
C47   C48   S    
Cu1   O5    S    
C39   H1    S    
C25   C32   A    
C19   C57   S    
C16   C24   A    
C13   C14   A    
C44   H17   S    
O12   C50   S    
C34   C41   S    
C2    C39   S    
C42   H13   S    
C55   H41   S    
C17   C18   A    
C57   O15   D    
C10   C21   A    
C27   H10   S    
C35   H11   S    
C8    C41   T    
C4    C6    S    
C54   C55   S    
C34   O8    A    
C13   H3    S    
C12   O3    A    
Cu2   O2    S    
C17   C21   A    
C21   C43   S    
C12   C40   S    
Cu1   Cu2   S    
C29   C30   A    
C26   H8    S    
C49   H28   S    
O11   C47   S    
C14   C15   A    
C16   C20   A    
C9    C58   S    
C45   H18   S    
C37   H4    S    
C37   N1    A    
C36   H7    S    
Cu1   O7    S    
C4    C38   S    
C52   H36   S    
C51   H33   S    
C48   H26   S    
C44   C45   S    
Cu2   O8    S    
C2    C5    S    
C58   O16   D    
C3    C4    S    
Cu2   O4    S    
Cu1   O1    S    
C49   H29   S    
C46   H21   S    
C15   C17   A    
C6    C39   S    
C14   O10   S    
C31   C32   A    
C47   H24   S    
O10   C44   S    
C3    C5    S    
C1    O1    A    
C34   O7    A    
C22   H14   S    
C46   H22   S    
C57   H45   S    
C50   H31   S    
Cu1   N1    S    
C10   C23   S    
C51   C52   S    
O13   C53   S    
C32   C33   A    
C23   O5    A    
C19   C20   A    
C29   C31   A    
C54   H39   S    
C11   C13   A    
C49   H27   S    
C38   C39   S    
C38   H9    S    
C53   H38   S    
C2    C42   S    
C33   C35   A    
C56   O14   D    
C43   H15   S    
C46   H20   S    
C9    C18   A    
C1    C24   S    
C52   H35   S    
C51   H32   S    
C20   O11   S    
C27   C28   A    
C31   C36   A    
C11   H2    S    
C58   H46   S    
C26   N2    A    
C55   H43   S    
C53   C54   S    
