data_mof_unit_40003.cif
_audit_creation_date              2012-12-10T17:32:17-0500
_audit_creation_method            fapswitch 2.2
_symmetry_space_group_name_H-M    P1
_symmetry_Int_Tables_number       1
_space_group_crystal_system       triclinic
_cell_length_a                    12.512447
_cell_length_b                    13.252849
_cell_length_c                    15.014566
_cell_angle_alpha                 74.114667
_cell_angle_beta                  102.012542
_cell_angle_gamma                 117.278595
_cell_volume                      2118.41890845

loop_
_atom_site_label
_atom_site_type_symbol
_atom_type_description
_atom_site_fract_x
_atom_site_fract_y
_atom_site_fract_z
_atom_type_partial_charge
C1    C     C_R   0.854701 0.286462 0.507112 0.808840
C2    C     C_R   0.070886 0.604692 0.079439 0.001142
C3    C     C_R   0.901328 0.284419 0.084101 0.384238
C4    C     C_R   0.882214 0.281441 0.989191 0.018848
C5    C     C_R   0.942216 0.385866 0.923917 0.004458
C6    C     C_R   0.008407 0.493012 0.955699 -0.050631
C7    C     C_R   0.067805 0.597904 0.892538 0.034650
C8    C     C_R   0.135724 0.703241 0.923424 0.341368
C9    C     C_R   0.140131 0.707225 0.016551 0.060015
C10   C     C_R   0.941563 0.387061 0.828681 0.371309
C11   C     C_R   0.999185 0.493538 0.767854 -0.134558
C12   C     C_R   0.000833 0.499823 0.670516 0.796516
C13   C     C_R   0.057946 0.596601 0.798718 -0.291310
C14   C     C_R   0.272509 0.037001 0.481335 0.395772
C15   C     C_R   0.227610 0.835469 0.492762 -0.260240
C16   C     C_R   0.815878 0.079504 0.547975 -0.287373
C17   C     C_R   0.738971 0.962376 0.576505 0.424828
C18   C     C_R   0.612711 0.926580 0.570688 0.045713
C19   C     C_R   0.563210 0.007156 0.518214 0.017557
C20   C     C_R   0.643864 0.124969 0.487113 0.065158
C21   C     C_R   0.436900 0.978573 0.499364 0.038894
C22   C     C_R   0.395585 0.066589 0.475815 -0.044805
C23   C     C_R   0.144568 0.713377 0.491480 0.800928
C24   C     C_R   0.475181 0.178425 0.437629 -0.221947
C25   C     C_R   0.594618 0.202992 0.434618 -0.114506
C26   C     C_R   0.350663 0.867703 0.491617 -0.279091
C27   C     C_R   0.190248 0.919870 0.497126 0.380263
C28   C     C_R   0.770478 0.162294 0.510459 -0.154093
C29   C     C_R   0.343007 0.321665 0.648682 -0.286343
C30   C     C_R   0.749327 0.639525 0.364889 0.230155
C31   C     C_R   0.639344 0.644865 0.325212 0.348663
C32   C     C_R   0.538982 0.584441 0.374914 -0.310874
C33   C     C_R   0.545628 0.521903 0.465322 -0.107078
C34   C     C_R   0.999709 0.501025 0.329313 0.776277
C35   C     C_R   0.651279 0.499204 0.497755 0.193864
C36   C     C_R   0.444031 0.470724 0.519669 -0.095391
C37   C     C_R   0.440808 0.381810 0.596823 0.021232
C38   C     C_R   0.535089 0.350962 0.624127 -0.324320
C39   C     C_R   0.639732 0.407705 0.578973 0.457241
C40   C     C_R   0.343847 0.501834 0.501732 0.547621
C41   C     C_R   0.246697 0.350721 0.628109 0.236438
C42   C     C_R   0.059354 0.606687 0.170911 0.328109
C43   C     C_R   0.998433 0.501570 0.232326 -0.231538
C44   C     C_R   0.942268 0.395121 0.203472 0.331412
C45   C     C_R   0.953434 0.391561 0.113177 -0.032716
C46   C     C_R   0.011269 0.496478 0.049532 -0.147383
Cu1   Cu    Cu3+1 0.098270 0.475420 0.521130 0.976238
Cu2   Cu    Cu3+1 0.901730 0.524580 0.478870 0.958737
H1    H     H_    0.444342 0.245016 0.403558 0.153450
H2    H     H_    0.378714 0.808785 0.477296 0.200808
H3    H     H_    0.912674 0.106875 0.560805 0.175107
H4    H     H_    0.647026 0.284568 0.391340 0.164558
H5    H     H_    0.528121 0.281227 0.684341 0.143428
H6    H     H_    0.341741 0.251287 0.706969 0.161779
H7    H     H_    0.454161 0.583664 0.339918 0.194738
H8    H     H_    0.096625 0.675890 0.747631 0.158940
N1    N     N_R   0.246280 0.438190 0.553160 -0.200069
N2    N     N_R   0.754320 0.561190 0.447410 -0.230784
O1    O     O_R   0.972510 0.318130 0.526570 -0.601013
O2    O     O_R   0.806530 0.359650 0.490890 -0.536231
O3    O     O_R   0.082980 0.479210 0.647590 -0.620348
O4    O     O_R   0.917000 0.520730 0.611900 -0.500991
O5    O     O_R   0.193470 0.640350 0.509110 -0.531361
O6    O     O_R   0.027490 0.681870 0.473430 -0.601618
O7    O     O_R   0.083000 0.479270 0.388100 -0.512134
O8    O     O_R   0.917020 0.520790 0.352410 -0.625797
O9    O     O_3   0.100066 0.712232 0.196324 -0.767873
H9    H     H_    0.098046 0.703359 0.263466 0.317164
O10   O     O_3   0.229950 0.118471 0.475175 -0.693011
H10   H     H_    0.298096 0.190519 0.489940 0.318925
C47   C     C_3   0.539432 0.808332 0.630631 -0.353621
C48   C     C_3   0.483038 0.818787 0.707391 -0.359997
C49   C     C_3   0.406171 0.698983 0.762120 -0.847776
H11   H     H_    0.373679 0.708219 0.821431 0.235544
H12   H     H_    0.460200 0.648077 0.790318 0.257970
H13   H     H_    0.326768 0.651023 0.716571 0.268803
H14   H     H_    0.556354 0.868543 0.755815 0.226101
H15   H     H_    0.425242 0.865510 0.678146 0.231418
H16   H     H_    0.471786 0.745746 0.589208 0.186691
H17   H     H_    0.597539 0.763683 0.667141 0.250426
O11   O     O_3   0.786612 0.882451 0.615734 -0.745153
H18   H     H_    0.875516 0.921014 0.613739 0.346308
C50   C     C_3   0.148089 0.280723 0.693533 -0.351194
C51   C     C_3   0.191709 0.307097 0.792140 -0.368301
C52   C     C_3   0.118380 0.206077 0.865396 -0.835811
H19   H     H_    0.020235 0.178477 0.845413 0.284414
H20   H     H_    0.139351 0.131134 0.872912 0.251507
H21   H     H_    0.141704 0.232558 0.933526 0.243980
H22   H     H_    0.288249 0.324177 0.811477 0.217065
H23   H     H_    0.183516 0.386227 0.794617 0.240611
H24   H     H_    0.065421 0.292537 0.670285 0.237517
H25   H     H_    0.120537 0.187225 0.696681 0.185397
O12   O     O_3   0.869829 0.294264 0.260355 -0.698349
H26   H     H_    0.840477 0.312651 0.307392 0.312027
O13   O     O_3   0.345359 0.599857 0.439169 -0.723092
H27   H     H_    0.428211 0.662168 0.445352 0.294108
C53   C     C_3   0.856874 0.720166 0.308945 -0.324685
C54   C     C_3   0.896411 0.847916 0.310828 -0.334723
C55   C     C_3   0.012288 0.927224 0.263501 -0.767681
H28   H     H_    0.087131 0.903421 0.299285 0.252766
H29   H     H_    0.997951 0.920345 0.189450 0.252090
H30   H     H_    0.038656 0.018571 0.266402 0.258469
H31   H     H_    0.824929 0.876372 0.274666 0.265060
H32   H     H_    0.911524 0.858136 0.383889 0.271813
H33   H     H_    0.935323 0.702189 0.331675 0.242308
H34   H     H_    0.832683 0.708432 0.235695 0.214594
O14   O     O_3   0.631847 0.709026 0.236146 -0.752877
H35   H     H_    0.549473 0.705599 0.219040 0.328791
O15   O     O_3   0.726019 0.367624 0.614651 -0.688456
H36   H     H_    0.698879 0.298168 0.665653 0.312784
O16   O     O_3   0.868799 0.180406 0.147750 -0.702677
H37   H     H_    0.936813 0.189353 0.197333 0.357533
C56   C     C_3   0.794140 0.165596 0.961661 -0.260507
C57   C     C_3   0.676705 0.170912 0.908812 -0.313767
C58   C     C_3   0.600223 0.065711 0.864190 -0.859910
H38   H     H_    0.650130 0.063983 0.811888 0.265705
H39   H     H_    0.577108 0.984306 0.917979 0.256991
H40   H     H_    0.515139 0.070815 0.828534 0.244009
H41   H     H_    0.623468 0.173305 0.958350 0.210033
H42   H     H_    0.695573 0.250631 0.853643 0.243485
H43   H     H_    0.838216 0.136461 0.923633 0.226628
H44   H     H_    0.766194 0.093393 0.022969 0.224146
O17   O     O_3   0.885752 0.284355 0.796887 -0.788932
H45   H     H_    0.897813 0.295755 0.731337 0.321485
O18   O     O_3   0.198030 0.805378 0.863279 -0.755985
H46   H     H_    0.243745 0.789648 0.826530 0.314951
C59   C     C_3   0.229456 0.820795 0.046309 -0.263548
C60   C     C_3   0.171937 0.905872 0.029140 -0.273114
C61   C     C_3   0.254295 0.011497 0.071881 -0.855829
H47   H     H_    0.270352 0.984416 0.148436 0.274496
H48   H     H_    0.342140 0.058045 0.041219 0.255879
H49   H     H_    0.210794 0.071609 0.057738 0.241052
H50   H     H_    0.154775 0.935433 0.953043 0.231633
H51   H     H_    0.083702 0.862931 0.058941 0.250013
H52   H     H_    0.269797 0.805735 0.118953 0.222001
H53   H     H_    0.310117 0.862873 0.006615 0.194261
O19   O     O_3   0.075838 0.892305 0.516198 -0.696602
H54   H     H_    0.046498 0.815854 0.559370 0.329774

loop_
_geom_bond_atom_site_label_1
_geom_bond_atom_site_label_2
_ccdc_geom_bond_type
C16   C28   A    
C21   C26   A    
O12   H26   S    
O13   H27   S    
C49   H11   S    
C19   C20   A    
C16   H3    S    
C60   C61   S    
C34   O8    A    
C47   H16   S    
C57   C58   S    
O17   H45   S    
C45   C46   A    
C2    C46   A    
C50   H25   S    
C30   C53   S    
C27   O19   S    
C35   N2    A    
C51   H22   S    
C36   C37   A    
C19   C21   A    
C59   H52   S    
C61   H47   S    
C1    O1    A    
Cu1   O5    S    
C30   C31   A    
Cu2   O6    S    
C20   C25   A    
C58   H38   S    
C41   C50   S    
C53   C54   S    
C24   H1    S    
C33   C36   A    
C18   C19   A    
C48   H15   S    
C44   O12   S    
C48   H14   S    
Cu2   O4    S    
C56   H44   S    
Cu1   Cu2   S    
C3    O16   S    
C8    C9    A    
C58   H39   S    
C54   H31   S    
C1    C28   S    
O14   H35   S    
C24   C25   A    
C14   C27   A    
C32   H7    S    
C57   H41   S    
C61   H49   S    
C53   H33   S    
C23   O5    A    
O18   H46   S    
C14   O10   S    
C21   C22   A    
C49   H12   S    
C51   H23   S    
C34   O7    A    
C47   H17   S    
Cu2   O2    S    
C52   H20   S    
C38   C39   A    
O9    H9    S    
C4    C56   S    
C36   C40   A    
C59   H53   S    
C10   O17   S    
C1    O2    A    
C16   C17   A    
C15   C26   A    
C20   C28   A    
C52   H19   S    
C3    C45   A    
O11   H18   S    
C35   C39   A    
C43   C44   A    
C37   C38   A    
C60   H51   S    
Cu1   N1    S    
C12   O4    A    
C15   C27   A    
C50   C51   S    
C7    C13   A    
C58   H40   S    
C17   C18   A    
C56   H43   S    
C9    C59   S    
C51   C52   S    
C53   H34   S    
C23   O6    A    
C55   H29   S    
C42   O9    S    
C49   H13   S    
C22   C24   A    
C42   C43   A    
C40   O13   S    
C3    C4    A    
C44   C45   A    
C56   C57   S    
C52   H21   S    
C18   C47   S    
C40   N1    A    
C6    C46   A    
O16   H37   S    
C29   C41   A    
C31   O14   S    
C31   C32   A    
C34   C43   S    
C48   C49   S    
Cu1   O3    S    
C11   C12   S    
Cu2   N2    S    
C6    C7    A    
C50   H24   S    
O19   H54   S    
C55   H28   S    
C32   C33   A    
C13   H8    S    
C26   H2    S    
C25   H4    S    
C41   N1    A    
C5    C10   A    
C60   H50   S    
C12   O3    A    
C11   C13   A    
C14   C22   A    
C5    C6    A    
C38   H5    S    
C2    C42   A    
C54   H32   S    
C4    C5    A    
C30   N2    A    
C15   C23   S    
C33   C35   A    
C17   O11   S    
O10   H10   S    
C7    C8    A    
C10   C11   A    
Cu1   O1    S    
C8    O18   S    
C39   O15   S    
C55   H30   S    
C47   C48   S    
C54   C55   S    
C29   H6    S    
C29   C37   A    
Cu2   O8    S    
O15   H36   S    
C2    C9    A    
Cu1   O7    S    
C57   H42   S    
C59   C60   S    
C61   H48   S    
