data_mof_unit_37983.cif
_audit_creation_date              2012-12-10T20:42:39-0500
_audit_creation_method            fapswitch 2.2
_symmetry_space_group_name_H-M    P1
_symmetry_Int_Tables_number       1
_space_group_crystal_system       triclinic
_cell_length_a                    8.893809
_cell_length_b                    10.663223
_cell_length_c                    9.907058
_cell_angle_alpha                 90.647695
_cell_angle_beta                  89.918662
_cell_angle_gamma                 90.032091
_cell_volume                      939.491259548

loop_
_atom_site_label
_atom_site_type_symbol
_atom_type_description
_atom_site_fract_x
_atom_site_fract_y
_atom_site_fract_z
_atom_type_partial_charge
C1    C     C_R   0.497477 0.260404 0.499735 0.902784
C2    C     C_R   0.396424 0.934953 0.401570 0.224848
C3    C     C_R   0.473887 0.871274 0.504887 -0.178695
C4    C     C_R   0.527636 0.937428 0.616556 0.022453
C5    C     C_3   0.670827 0.926450 0.695763 0.226157
C6    C     C_3   0.679219 0.069482 0.690984 0.012325
C7    C     C_R   0.369994 0.484567 0.070097 0.121163
C8    C     C_R   0.627712 0.524452 0.071967 -0.123923
C9    C     C_R   0.628118 0.522933 0.928333 -0.154928
C10   C     C_R   0.368295 0.491211 0.928597 0.160508
C11   C     C_3   0.248235 0.393941 0.914738 0.167989
C12   C     C_R   0.218867 0.499113 0.500042 0.928454
C13   C     C_3   0.260770 0.376768 0.067920 -0.086047
C14   C     C_R   0.494868 0.739678 0.500795 0.874346
C15   C     C_R   0.781138 0.499761 0.499958 0.915673
C16   C     C_1   0.065461 0.498932 0.500089 -0.215936
C17   C     C_1   0.934547 0.499202 0.499924 -0.213148
C18   C     C_R   0.534446 0.064627 0.613273 0.067462
C19   C     C_R   0.482090 0.128910 0.502019 -0.110482
C20   C     C_R   0.401741 0.065483 0.401182 -0.309040
H1    H     H_    0.346005 0.116433 0.322144 0.180620
H2    H     H_    0.154514 0.399779 0.122018 0.101723
H3    H     H_    0.762811 0.874187 0.643610 0.099082
H4    H     H_    0.665603 0.115563 0.791637 0.162482
H5    H     H_    0.731439 0.542423 0.125538 0.150726
H6    H     H_    0.732291 0.539263 0.875007 0.146487
H7    H     H_    0.139497 0.435169 0.881564 0.071219
N1    N     N_R   0.499010 0.499140 0.142800 -0.091637
N2    N     N_R   0.499010 0.499180 0.857150 -0.078713
O1    O     O_R   0.500020 0.316790 0.614690 -0.568570
O2    O     O_R   0.500000 0.316760 0.385350 -0.624131
O3    O     O_R   0.285350 0.500020 0.614650 -0.596133
O4    O     O_R   0.285340 0.499980 0.385310 -0.612962
O5    O     O_R   0.500000 0.683240 0.614650 -0.630569
O6    O     O_R   0.499980 0.683210 0.385310 -0.581630
O7    O     O_R   0.714660 0.500020 0.614690 -0.637982
O8    O     O_R   0.714650 0.499980 0.385350 -0.628569
Zn1   Zn    Zn3+2 0.500010 0.500020 0.653130 0.969259
Zn2   Zn    Zn3+2 0.499990 0.499980 0.346870 0.955062
O9    O     O_3   0.293113 0.290464 0.836190 -0.711438
H8    H     H_    0.204796 0.233702 0.832315 0.332376
N3    N     N_2   0.321464 0.255113 0.107866 -0.266863
H9    H     H_    0.244873 0.183317 0.094990 0.215847
C21   C     C_3   0.475239 0.218380 0.075703 -0.620782
H10   H     H_    0.555844 0.266521 0.143422 0.244778
H11   H     H_    0.505728 0.238759 0.969919 0.266750
H12   H     H_    0.488978 0.116047 0.091441 0.206977
N4    N     N_2   0.319099 0.869342 0.296635 -0.276655
H13   H     H_    0.314748 0.916940 0.206606 0.223169
C22   C     C_3   0.173410 0.821556 0.335889 -0.744798
H14   H     H_    0.094830 0.900489 0.356381 0.223780
H15   H     H_    0.182682 0.763162 0.427550 0.233430
H16   H     H_    0.126958 0.762393 0.252944 0.234841
O10   O     O_3   0.642732 0.884892 0.827154 -0.758617
H17   H     H_    0.645699 0.791976 0.822511 0.349092
N5    N     N_2   0.809065 0.118043 0.617374 -0.316381
H18   H     H_    0.829799 0.211666 0.636907 0.231274
C23   C     C_3   0.836338 0.082795 0.477390 -0.797083
H19   H     H_    0.956959 0.097971 0.453712 0.243198
H20   H     H_    0.769348 0.142574 0.409140 0.236501
H21   H     H_    0.809646 0.982917 0.456846 0.232876

loop_
_geom_bond_atom_site_label_1
_geom_bond_atom_site_label_2
_ccdc_geom_bond_type
N2    Zn1   S    
C14   O5    A    
C7    C10   A    
O6    Zn2   S    
O9    H8    S    
C8    H5    S    
O3    Zn1   S    
C15   O7    A    
C22   H15   S    
C19   C20   A    
C5    H3    S    
C21   H12   S    
C11   H7    S    
C6    H4    S    
C23   H21   S    
O7    Zn1   S    
C22   H14   S    
C23   H19   S    
C4    C18   A    
O8    Zn2   S    
C21   H10   S    
C9    N2    A    
C11   C13   S    
C10   N2    A    
O4    Zn2   S    
C3    C14   S    
N3    C21   S    
C13   H2    S    
N4    H13   S    
C1    O1    A    
C13   N3    S    
O2    Zn2   S    
C9    H6    S    
N4    C22   S    
C2    C3    A    
C5    C6    S    
C6    C18   S    
C1    C19   S    
C22   H16   S    
C12   O3    A    
C10   C11   S    
C23   H20   S    
C11   O9    S    
C12   C16   S    
C5    O10   S    
C1    O2    A    
C20   H1    S    
O1    Zn1   S    
C8    N1    A    
C15   C17   S    
C18   C19   A    
N3    H9    S    
C6    N5    S    
C14   O6    A    
N5    H18   S    
O10   H17   S    
C4    C5    S    
C7    C13   S    
C21   H11   S    
N1    Zn2   S    
C2    N4    S    
C12   O4    A    
O5    Zn1   S    
C2    C20   A    
C15   O8    A    
C7    N1    A    
C3    C4    A    
C16   C17   T    
N5    C23   S    
C8    C9    A    
