data_mof_unit_6449.cif
_audit_creation_date              2012-12-10T17:35:47-0500
_audit_creation_method            fapswitch 2.2
_symmetry_space_group_name_H-M    P1
_symmetry_Int_Tables_number       1
_space_group_crystal_system       triclinic
_cell_length_a                    10.49383
_cell_length_b                    12.053819
_cell_length_c                    12.810955
_cell_angle_alpha                 94.463605
_cell_angle_beta                  90.412641
_cell_angle_gamma                 86.903233
_cell_volume                      1613.1856223

loop_
_atom_site_label
_atom_site_type_symbol
_atom_type_description
_atom_site_fract_x
_atom_site_fract_y
_atom_site_fract_z
_atom_type_partial_charge
C1    C     C_R   0.498457 0.523056 0.700170 0.942909
C2    C     C_R   0.501435 0.476955 0.299823 0.942748
C3    C     C_R   0.571398 0.467510 0.869441 0.466456
C4    C     C_R   0.428949 0.533027 0.130605 0.462331
C5    C     C_R   0.547339 0.463048 0.975353 -0.087614
C6    C     C_R   0.452986 0.537400 0.024696 -0.086688
C7    C     C_R   0.376556 0.951021 0.406371 -0.297067
C8    C     C_R   0.635352 0.047497 0.582999 -0.302227
C9    C     C_R   0.389591 0.835969 0.414106 -0.077841
C10   C     C_R   0.621236 0.162848 0.575365 -0.074094
C11   C     C_R   0.555878 0.859044 0.539739 0.631818
C12   C     C_R   0.437382 0.140876 0.468038 0.654718
C13   C     C_R   0.549215 0.976224 0.531171 -0.075090
C14   C     C_R   0.453374 0.022921 0.468003 -0.078045
C15   C     C_R   0.742413 0.500651 0.500230 0.836849
C16   C     C_R   0.257465 0.499538 0.499953 0.840874
C17   C     C_3   0.955329 0.559798 0.586950 -0.182328
C18   C     C_3   0.044074 0.441582 0.413377 -0.214296
C19   C     C_3   0.035296 0.606016 0.501247 -0.114022
C20   C     C_3   0.964237 0.395270 0.499134 -0.152521
C21   C     C_3   0.122240 0.499711 0.500151 0.051874
C22   C     C_3   0.877368 0.501354 0.500219 0.066859
C23   C     C_3   0.044896 0.453725 0.585894 -0.220360
C24   C     C_3   0.954555 0.547555 0.414525 -0.192889
C25   C     C_R   0.506087 0.461128 0.188106 -0.284376
C26   C     C_R   0.493784 0.538975 0.811872 -0.300348
C27   C     C_R   0.384210 0.615035 0.967573 -0.244184
C28   C     C_R   0.615788 0.385135 0.032416 -0.253192
C29   C     C_R   0.401615 0.614228 0.860385 0.422639
C30   C     C_R   0.597847 0.385499 0.139549 0.447427
H1    H     H_    0.067994 0.692183 0.502198 0.144163
H2    H     H_    0.931129 0.309248 0.498363 0.137847
H3    H     H_    0.915307 0.609003 0.657097 0.129561
H4    H     H_    0.083576 0.393230 0.342597 0.130664
H5    H     H_    0.085588 0.414457 0.655166 0.119566
H6    H     H_    0.913675 0.586523 0.345154 0.125898
H7    H     H_    0.313719 0.673986 0.004690 0.210117
H8    H     H_    0.686053 0.326019 0.995225 0.209823
H9    H     H_    0.688651 0.216842 0.614626 0.179994
H10   H     H_    0.329403 0.781278 0.367327 0.189692
H11   H     H_    0.306718 0.983005 0.352152 0.198068
H12   H     H_    0.714829 0.014834 0.627640 0.188965
N1    N     N_R   0.523490 0.207800 0.519350 -0.138935
N2    N     N_R   0.476510 0.792200 0.480650 -0.138493
O1    O     O_R   0.506270 0.421700 0.658830 -0.591687
O2    O     O_R   0.493730 0.578300 0.341170 -0.594056
O3    O     O_R   0.491200 0.609310 0.646410 -0.580401
O4    O     O_R   0.508800 0.390690 0.353590 -0.551646
O5    O     O_R   0.693580 0.406210 0.506230 -0.633324
O6    O     O_R   0.306420 0.593790 0.493770 -0.631950
O7    O     O_R   0.678510 0.593830 0.493810 -0.584108
O8    O     O_R   0.321490 0.406170 0.506190 -0.600250
Zn1   Zn    Zn3+2 0.510060 0.374730 0.508290 1.007708
Zn2   Zn    Zn3+2 0.489940 0.625270 0.491710 0.999066
O9    O     O_3   0.337031 0.605532 0.179851 -0.598134
C31   C     C_3   0.224858 0.547885 0.189593 -0.348797
H13   H     H_    0.151961 0.605106 0.230710 0.192120
H14   H     H_    0.241540 0.475042 0.237097 0.155702
H15   H     H_    0.185567 0.520700 0.111372 0.157813
O10   O     O_3   0.663738 0.395430 0.820238 -0.593703
C32   C     C_3   0.775426 0.453726 0.810430 -0.356086
H16   H     H_    0.758106 0.526660 0.763121 0.145967
H17   H     H_    0.848584 0.396962 0.769095 0.193854
H18   H     H_    0.814722 0.480934 0.888643 0.156779
O11   O     O_3   0.669502 0.311713 0.196767 -0.568850
C33   C     C_3   0.790331 0.354663 0.217107 -0.294879
H19   H     H_    0.781766 0.439700 0.257790 0.132083
H20   H     H_    0.846364 0.355400 0.143814 0.148128
H21   H     H_    0.844079 0.299964 0.269709 0.194699
O12   O     O_3   0.328641 0.686964 0.803051 -0.599082
C34   C     C_3   0.208539 0.642510 0.783095 -0.299938
H22   H     H_    0.152808 0.641495 0.856512 0.151486
H23   H     H_    0.218329 0.557347 0.742799 0.137800
H24   H     H_    0.153849 0.696349 0.730307 0.193103
O13   O     O_3   0.337178 0.189335 0.414245 -0.591186
C35   C     C_3   0.223908 0.183343 0.472346 -0.329553
H25   H     H_    0.199041 0.096463 0.482229 0.142489
H26   H     H_    0.229984 0.228923 0.550992 0.177687
H27   H     H_    0.143952 0.221802 0.428776 0.192524
O14   O     O_3   0.644092 0.810158 0.605084 -0.610428
C36   C     C_3   0.599676 0.826279 0.709378 -0.275934
H28   H     H_    0.495112 0.816603 0.716092 0.206864
H29   H     H_    0.649057 0.762836 0.755837 0.181853
H30   H     H_    0.623111 0.909303 0.745512 0.149015

loop_
_geom_bond_atom_site_label_1
_geom_bond_atom_site_label_2
_ccdc_geom_bond_type
C33   H20   S    
O9    C31   S    
C16   C21   S    
C27   C29   A    
C18   C21   S    
C35   H27   S    
C8    H12   S    
C19   H1    S    
C4    C25   A    
C2    O2    A    
C17   C23   S    
C18   C24   S    
C19   C21   S    
C35   H26   S    
C12   N1    A    
C5    C6    A    
C33   H21   S    
C31   H13   S    
C32   H17   S    
N1    Zn1   S    
C15   C22   S    
O12   C34   S    
C15   O7    A    
C3    O10   S    
C15   O5    A    
C33   H19   S    
O1    Zn1   S    
C13   C14   A    
C17   H3    S    
C36   H29   S    
C36   H28   S    
C7    C14   A    
O4    Zn1   S    
C35   H25   S    
C4    C6    A    
C34   H23   S    
C1    O3    A    
C2    O4    A    
C9    H10   S    
C10   H9    S    
C32   H18   S    
O13   C35   S    
C5    C28   A    
C6    C27   A    
C20   C23   S    
C28   H8    S    
O2    Zn2   S    
C11   N2    A    
C24   H6    S    
C18   H4    S    
O3    Zn2   S    
C12   C14   A    
C23   H5    S    
C21   C23   S    
C4    O9    S    
C1    C26   S    
C22   C24   S    
C36   H30   S    
O8    Zn1   S    
C29   O12   S    
C20   H2    S    
C25   C30   A    
C7    C9    A    
C9    N2    A    
C10   N1    A    
C3    C26   A    
C16   O8    A    
C20   C22   S    
O14   C36   S    
C3    C5    A    
C34   H24   S    
C17   C22   S    
C31   H15   S    
O7    Zn2   S    
C28   C30   A    
C19   C24   S    
C34   H22   S    
O6    Zn2   S    
C11   C13   A    
C1    O1    A    
C27   H7    S    
O5    Zn1   S    
C17   C19   S    
C31   H14   S    
C2    C25   S    
C18   C20   S    
C7    H11   S    
C32   H16   S    
C16   O6    A    
C30   O11   S    
C11   O14   S    
C8    C13   A    
N2    Zn2   S    
C26   C29   A    
C8    C10   A    
O11   C33   S    
C12   O13   S    
O10   C32   S    
