data_mof_unit_50977.cif
_audit_creation_date              2012-12-10T16:56:33-0500
_audit_creation_method            fapswitch 2.2
_symmetry_space_group_name_H-M    P1
_symmetry_Int_Tables_number       1
_space_group_crystal_system       triclinic
_cell_length_a                    7.773759
_cell_length_b                    8.575055
_cell_length_c                    15.70712
_cell_angle_alpha                 90.851719
_cell_angle_beta                  85.893922
_cell_angle_gamma                 93.64338
_cell_volume                      1042.18881581

loop_
_atom_site_label
_atom_site_type_symbol
_atom_type_description
_atom_site_fract_x
_atom_site_fract_y
_atom_site_fract_z
_atom_type_partial_charge
C1    C     C_R   0.545767 0.794717 0.497806 0.965346
C2    C     C_3   0.381945 0.388521 0.030398 -0.232027
C3    C     C_1   0.506483 0.499693 0.750691 -0.138215
C4    C     C_1   0.493517 0.500306 0.249309 -0.138215
C5    C     C_3   0.342388 0.529393 0.975633 -0.261555
C6    C     C_3   0.657611 0.470607 0.024367 -0.261555
C7    C     C_3   0.504046 0.500013 0.916951 0.023466
C8    C     C_3   0.495954 0.499987 0.083048 0.023466
C9    C     C_1   0.506987 0.499704 0.825995 0.053058
C10   C     C_1   0.493013 0.500296 0.174005 0.053058
C11   C     C_R   0.454233 0.205283 0.502194 0.965346
C12   C     C_R   0.502182 0.500026 0.661939 0.900879
C13   C     C_R   0.497818 0.499974 0.338061 0.900879
C14   C     C_2   0.569845 0.958212 0.496555 -0.356417
C15   C     C_2   0.430155 0.041788 0.503445 -0.356417
C16   C     C_3   0.456950 0.639066 0.029663 0.487766
C17   C     C_3   0.543050 0.360934 0.970337 0.487766
C18   C     C_3   0.618055 0.611479 0.969602 -0.232027
Cl1   Cl    Cl    0.399322 0.824524 0.071137 -0.547097
Cl2   Cl    Cl    0.600678 0.175475 0.928863 -0.547097
H1    H     H_    0.713361 0.703220 0.943090 0.202903
H2    H     H_    0.286639 0.296780 0.056910 0.202903
H3    H     H_    0.785748 0.445299 0.046001 0.187467
H4    H     H_    0.214252 0.554701 0.953999 0.187468
H5    H     H_    0.701777 0.009268 0.489983 0.183000
H6    H     H_    0.298223 0.990731 0.510016 0.183000
H7    H     H_    0.013369 0.382013 0.436430 0.197393
H8    H     H_    0.986631 0.617987 0.563569 0.197393
N1    N     N_2   0.950320 0.457950 0.477300 -0.168378
N2    N     N_2   0.049680 0.542050 0.522700 -0.168378
O1    O     O_R   0.389250 0.738570 0.505570 -0.612578
O2    O     O_R   0.610750 0.261430 0.494430 -0.612578
O3    O     O_R   0.678390 0.711630 0.491020 -0.628964
O4    O     O_R   0.321610 0.288370 0.508980 -0.628964
O5    O     O_R   0.355460 0.513480 0.630490 -0.607609
O6    O     O_R   0.644540 0.486520 0.369510 -0.607609
O7    O     O_R   0.644600 0.486540 0.615950 -0.618108
O8    O     O_R   0.355400 0.513460 0.384050 -0.618108
Zn1   Zn    Zn3+2 0.306940 0.517990 0.509710 0.969670
Zn2   Zn    Zn3+2 0.693060 0.482010 0.490290 0.969670

loop_
_geom_bond_atom_site_label_1
_geom_bond_atom_site_label_2
_ccdc_geom_bond_type
C2    H2    S    
O5    Zn1   S    
N1    N2    D    
C3    C9    T    
H7    N1    S    
C18   H1    S    
O6    Zn2   S    
C7    C18   S    
H8    N2    S    
C1    O3    A    
C8    C16   S    
C2    C17   S    
C13   O8    A    
C5    H4    S    
C16   Cl1   S    
C6    H3    S    
N1    Zn2   S    
C16   C18   S    
O1    Zn1   S    
C11   O2    A    
O7    Zn2   S    
O2    Zn2   S    
C14   H5    S    
O8    Zn1   S    
C6    C18   S    
C12   O5    A    
C2    C5    S    
C4    C10   T    
O4    Zn1   S    
O3    Zn2   S    
C7    C9    S    
C1    C14   S    
C1    O1    A    
C17   Cl2   S    
C13   O6    A    
C8    C10   S    
C12   O7    A    
C4    C13   S    
C5    C7    S    
C6    C17   S    
C14   C15   D    
C15   H6    S    
C6    C8    S    
C3    C12   S    
C7    C17   S    
C11   C15   S    
C11   O4    A    
C2    C8    S    
N2    Zn1   S    
C5    C16   S    
