data_mof_unit_5716.cif
_audit_creation_date              2012-12-10T17:21:07-0500
_audit_creation_method            fapswitch 2.2
_symmetry_space_group_name_H-M    P1
_symmetry_Int_Tables_number       1
_space_group_crystal_system       triclinic
_cell_length_a                    18.315733
_cell_length_b                    25.855685
_cell_length_c                    18.279715
_cell_angle_alpha                 89.861871
_cell_angle_beta                  90.150417
_cell_angle_gamma                 89.901595
_cell_volume                      8656.58042902

loop_
_atom_site_label
_atom_site_type_symbol
_atom_type_description
_atom_site_fract_x
_atom_site_fract_y
_atom_site_fract_z
_atom_type_partial_charge
C1    C     C_R   0.389868 0.249913 0.139708 0.791693
C2    C     C_R   0.389867 0.749914 0.860301 0.785565
C3    C     C_R   0.389856 0.749863 0.139736 0.784103
C4    C     C_R   0.386455 0.246396 0.856338 0.802252
C5    C     C_R   0.889830 0.750038 0.639723 0.780222
C6    C     C_R   0.889737 0.250005 0.360070 0.783651
C7    C     C_R   0.889959 0.249806 0.639606 0.785764
C8    C     C_R   0.889847 0.750132 0.360216 0.786895
C9    C     C_R   0.606335 0.700138 0.090221 -0.142787
C10   C     C_R   0.569570 0.141477 0.865935 -0.143788
C11   C     C_R   0.593216 0.325356 0.102935 -0.147105
C12   C     C_R   0.576736 0.652455 0.881004 -0.161421
C13   C     C_R   0.087404 0.165024 0.609671 -0.166321
C14   C     C_R   0.073630 0.850219 0.377945 -0.159478
C15   C     C_R   0.104660 0.802849 0.590800 -0.148274
C16   C     C_R   0.111768 0.218000 0.415986 -0.147709
C17   C     C_R   0.535952 0.716959 0.106546 -0.152725
C18   C     C_R   0.503719 0.165622 0.848483 -0.120747
C19   C     C_R   0.527940 0.298962 0.114264 -0.152118
C20   C     C_R   0.516676 0.685321 0.874632 -0.172403
C21   C     C_R   0.024052 0.194201 0.618742 -0.177962
C22   C     C_R   0.013792 0.817287 0.371850 -0.167551
C23   C     C_R   0.034599 0.785481 0.607112 -0.150275
C24   C     C_R   0.039400 0.227832 0.397166 -0.139324
C25   C     C_R   0.517557 0.733775 0.177949 0.075102
C26   C     C_R   0.501924 0.210258 0.803274 0.073907
C27   C     C_R   0.513078 0.274881 0.182250 0.071912
C28   C     C_R   0.507831 0.717654 0.812574 0.068562
C29   C     C_R   0.011744 0.222380 0.683941 0.072056
C30   C     C_R   0.006445 0.783650 0.311231 0.072431
C31   C     C_R   0.016962 0.767320 0.678150 0.072375
C32   C     C_R   0.019214 0.239375 0.323905 0.073693
C33   C     C_R   0.065865 0.221953 0.739021 0.075593
C34   C     C_R   0.061051 0.783609 0.256772 0.079281
C35   C     C_R   0.071468 0.767512 0.732835 0.071338
C36   C     C_R   0.073734 0.239182 0.269454 0.073296
C37   C     C_R   0.571941 0.733389 0.232736 0.072735
C38   C     C_R   0.565813 0.223592 0.764935 0.074078
C39   C     C_R   0.566452 0.276589 0.237987 0.080483
C40   C     C_R   0.561927 0.717207 0.757617 0.076256
C41   C     C_R   0.445971 0.749948 0.195884 -0.156417
C42   C     C_R   0.438460 0.241294 0.794678 -0.224241
C43   C     C_R   0.446320 0.249260 0.195546 -0.154668
C44   C     C_R   0.446093 0.750032 0.804302 -0.154645
C45   C     C_R   0.946218 0.250097 0.695603 -0.158441
C46   C     C_R   0.945842 0.750279 0.304044 -0.154536
C47   C     C_R   0.945971 0.749945 0.695812 -0.155099
C48   C     C_R   0.945881 0.249813 0.303899 -0.163845
C49   C     C_R   0.428115 0.766599 0.267289 0.071586
C50   C     C_R   0.433373 0.275865 0.734605 0.074955
C51   C     C_R   0.434121 0.222150 0.261572 0.077193
C52   C     C_R   0.438171 0.782675 0.742671 0.079519
C53   C     C_R   0.934935 0.278864 0.760205 0.077520
C54   C     C_R   0.938657 0.717067 0.243183 0.076013
C55   C     C_R   0.928609 0.732378 0.766989 0.073072
C56   C     C_R   0.926253 0.259992 0.230210 0.072334
C57   C     C_R   0.989642 0.279191 0.814725 0.075155
C58   C     C_R   0.993277 0.716977 0.188756 0.075357
C59   C     C_R   0.983156 0.732454 0.821639 0.071303
C60   C     C_R   0.980972 0.260427 0.175954 0.074347
C61   C     C_R   0.482724 0.766774 0.321868 0.071558
C62   C     C_R   0.497186 0.289203 0.696124 0.075405
C63   C     C_R   0.488494 0.222466 0.316445 0.070904
C64   C     C_R   0.492701 0.782700 0.688132 0.075158
C65   C     C_R   0.054286 0.250333 0.803910 -0.153988
C66   C     C_R   0.054125 0.750136 0.196105 -0.153403
C67   C     C_R   0.054067 0.750065 0.804074 -0.156697
C68   C     C_R   0.054205 0.249946 0.195999 -0.160489
C69   C     C_R   0.554107 0.750111 0.304088 -0.157344
C70   C     C_R   0.560908 0.258358 0.705000 -0.222198
C71   C     C_R   0.553876 0.250084 0.304370 -0.152465
C72   C     C_R   0.554093 0.749931 0.696020 -0.153803
C73   C     C_R   0.357062 0.784373 0.285163 -0.140949
C74   C     C_R   0.366036 0.297301 0.710878 -0.123944
C75   C     C_R   0.369478 0.193337 0.273282 -0.145297
C76   C     C_R   0.376926 0.815733 0.734401 -0.144994
C77   C     C_R   0.870432 0.308129 0.771188 -0.151517
C78   C     C_R   0.877868 0.683705 0.235398 -0.141518
C79   C     C_R   0.858086 0.713585 0.784597 -0.144761
C80   C     C_R   0.853124 0.270885 0.209299 -0.141443
C81   C     C_R   0.340581 0.801084 0.355609 -0.142621
C82   C     C_R   0.364089 0.337565 0.660177 -0.163827
C83   C     C_R   0.359444 0.165357 0.337723 -0.158396
C84   C     C_R   0.370245 0.848080 0.673654 -0.160539
C85   C     C_R   0.860912 0.337260 0.834498 -0.150516
C86   C     C_R   0.871697 0.651014 0.175205 -0.147655
C87   C     C_R   0.842049 0.696107 0.854877 -0.146638
C88   C     C_R   0.834771 0.280015 0.136440 -0.149053
C89   C     C_R   0.110178 0.250170 0.860250 0.788012
C90   C     C_R   0.110261 0.750082 0.139972 0.788929
C91   C     C_R   0.110202 0.750018 0.860205 0.785872
C92   C     C_R   0.110316 0.249923 0.139918 0.776133
C93   C     C_R   0.610185 0.750099 0.360230 0.784688
C94   C     C_R   0.613363 0.253524 0.643610 0.801753
C95   C     C_R   0.610123 0.249975 0.360334 0.786454
C96   C     C_R   0.610231 0.749971 0.639860 0.788897
C97   C     C_R   0.914978 0.337823 0.887989 -0.158596
C98   C     C_R   0.925450 0.650908 0.121660 -0.152418
C99   C     C_R   0.895701 0.696249 0.908693 -0.143556
C100  C     C_R   0.888624 0.281108 0.083388 -0.151296
C101  C     C_R   0.394311 0.801215 0.409342 -0.143937
C102  C     C_R   0.428870 0.357287 0.632587 -0.157228
C103  C     C_R   0.412574 0.166176 0.392125 -0.139406
C104  C     C_R   0.423882 0.848109 0.620002 -0.151728
C105  C     C_R   0.978641 0.308997 0.878683 -0.151896
C106  C     C_R   0.985660 0.683507 0.127988 -0.146474
C107  C     C_R   0.965692 0.713824 0.892492 -0.143007
C108  C     C_R   0.961104 0.272441 0.102731 -0.140832
C109  C     C_R   0.464804 0.784678 0.392888 -0.142658
C110  C     C_R   0.494956 0.333615 0.650470 -0.118573
C111  C     C_R   0.476502 0.194414 0.381962 -0.142201
C112  C     C_R   0.484503 0.815771 0.626763 -0.146522
C113  C     C_R   0.294610 0.053953 0.872308 -0.154005
C114  C     C_R   0.294134 0.946278 0.872197 -0.139273
C115  C     C_R   0.784374 0.553581 0.630912 -0.141288
C116  C     C_R   0.784573 0.445864 0.630854 -0.145906
C117  C     C_R   0.316144 0.027043 0.810012 -0.149733
C118  C     C_R   0.315904 0.973311 0.809955 -0.136686
C119  C     C_R   0.801057 0.526467 0.694808 -0.142912
C120  C     C_R   0.801227 0.472710 0.694763 -0.140835
C121  C     C_R   0.272663 0.972851 0.936468 0.070151
C122  C     C_R   0.272874 0.027256 0.936509 0.074203
C123  C     C_R   0.767696 0.472654 0.565156 0.069007
C124  C     C_R   0.767711 0.527066 0.565158 0.070871
C125  C     C_R   0.249860 0.946267 0.000006 -0.149303
C126  C     C_R   0.250226 0.053723 0.000061 -0.148431
C127  C     C_R   0.749822 0.446265 0.499992 -0.148124
C128  C     C_R   0.750108 0.553727 0.499928 -0.147076
C129  C     C_R   0.227221 0.972732 0.063572 0.069926
C130  C     C_R   0.227499 0.027137 0.063622 0.069923
C131  C     C_R   0.731882 0.472923 0.434844 0.069628
C132  C     C_R   0.732167 0.527336 0.434775 0.070503
C133  C     C_R   0.205417 0.946044 0.127771 -0.138660
C134  C     C_R   0.206160 0.053717 0.127920 -0.138659
C135  C     C_R   0.714570 0.446406 0.369250 -0.141122
C136  C     C_R   0.715345 0.554121 0.369059 -0.140624
C137  C     C_R   0.183887 0.972976 0.190055 -0.141473
C138  C     C_R   0.184325 0.026704 0.190158 -0.142311
C139  C     C_R   0.697684 0.473516 0.305399 -0.139126
C140  C     C_R   0.698133 0.527272 0.305289 -0.143543
C141  C     C_R   0.250077 0.109361 0.999983 0.790989
C142  C     C_R   0.249957 0.890636 0.000050 0.790482
C143  C     C_R   0.750058 0.609364 0.499952 0.790903
C144  C     C_R   0.749952 0.390634 0.499972 0.790286
C145  C     C_R   0.250700 0.391374 0.999695 0.857096
C146  C     C_R   0.251951 0.608735 0.000090 0.799377
C147  C     C_R   0.752882 0.891289 0.499864 0.780071
C148  C     C_R   0.750413 0.108615 0.500312 0.821968
C149  C     C_3   0.239609 0.469920 0.077511 -0.417777
C150  C     C_3   0.193801 0.530679 0.948883 -0.418458
C151  C     C_3   0.236969 0.529102 0.077417 -0.491520
C152  C     C_3   0.189951 0.471135 0.951633 -0.535939
C153  C     C_3   0.729169 0.970126 0.574791 -0.476190
C154  C     C_3   0.708798 0.029391 0.436904 -0.450068
C155  C     C_3   0.722411 0.029243 0.573207 -0.439449
C156  C     C_3   0.700716 0.970233 0.442902 -0.401828
C157  C     C_3   0.332429 0.468707 0.972876 0.780604
C158  C     C_3   0.332708 0.530816 0.968528 0.740985
C159  C     C_3   0.836153 0.971071 0.476778 0.741573
C160  C     C_3   0.838125 0.031570 0.495252 0.796374
C161  C     C_3   0.253844 0.449129 0.998514 -0.001355
C162  C     C_3   0.256073 0.551148 0.000014 -0.012199
C163  C     C_3   0.757064 0.948945 0.499724 -0.023200
C164  C     C_3   0.755814 0.050889 0.501347 0.001956
C165  C     C_R   0.130344 0.192660 0.728054 -0.149599
C166  C     C_R   0.121544 0.817249 0.264380 -0.144322
C167  C     C_R   0.142047 0.786148 0.715134 -0.142655
C168  C     C_R   0.146626 0.227078 0.289814 -0.145730
C169  C     C_R   0.642860 0.715265 0.215030 -0.146666
C170  C     C_R   0.632965 0.201820 0.788591 -0.124707
C171  C     C_R   0.631227 0.305215 0.226071 -0.145652
C172  C     C_R   0.622785 0.683766 0.765603 -0.141221
C173  C     C_R   0.140528 0.164387 0.664074 -0.131632
C174  C     C_R   0.127425 0.850127 0.324434 -0.158891
C175  C     C_R   0.158215 0.803253 0.644697 -0.137407
C176  C     C_R   0.165198 0.217569 0.362477 -0.150987
C177  C     C_R   0.659593 0.699122 0.144388 -0.142799
C178  C     C_R   0.634529 0.161103 0.838602 -0.151954
C179  C     C_R   0.643704 0.329790 0.159389 -0.162663
C180  C     C_R   0.629579 0.651604 0.826567 -0.147470
H1    H     H_    0.281740 0.456449 0.117139 0.233598
H2    H     H_    0.201187 0.543577 0.891349 0.225953
H3    H     H_    0.270525 0.544396 0.122653 0.180423
H4    H     H_    0.186649 0.454331 0.896180 0.174658
H5    H     H_    0.762758 0.957632 0.621754 0.189250
H6    H     H_    0.734744 0.039398 0.383752 0.246003
H7    H     H_    0.749551 0.045285 0.622475 0.228692
H8    H     H_    0.708075 0.952808 0.387823 0.231528
H9    H     H_    0.313603 0.786037 0.245059 0.128386
H10   H     H_    0.314234 0.282325 0.729486 0.159035
H11   H     H_    0.326694 0.191420 0.232438 0.108250
H12   H     H_    0.333840 0.817101 0.774768 0.106568
H13   H     H_    0.827073 0.309181 0.730865 0.109849
H14   H     H_    0.834645 0.682466 0.275630 0.109341
H15   H     H_    0.814727 0.711777 0.744405 0.125935
H16   H     H_    0.809144 0.272686 0.248444 0.138112
H17   H     H_    0.811503 0.359660 0.841912 0.123876
H18   H     H_    0.825027 0.625621 0.170152 0.123660
H19   H     H_    0.787874 0.682113 0.867519 0.134187
H20   H     H_    0.778599 0.286640 0.120974 0.144223
H21   H     H_    0.286003 0.814325 0.368405 0.136531
H22   H     H_    0.312365 0.354359 0.643834 0.145065
H23   H     H_    0.310326 0.142785 0.345367 0.125020
H24   H     H_    0.323292 0.873294 0.668260 0.119488
H25   H     H_    0.019208 0.310679 0.921759 0.108994
H26   H     H_    0.026044 0.682109 0.084914 0.110281
H27   H     H_    0.005769 0.712239 0.936002 0.126704
H28   H     H_    0.000878 0.275521 0.059421 0.136306
H29   H     H_    0.504893 0.786515 0.436340 0.127993
H30   H     H_    0.544032 0.351580 0.629939 0.163470
H31   H     H_    0.516567 0.193544 0.425570 0.120416
H32   H     H_    0.524798 0.817108 0.583600 0.110015
H33   H     H_    0.168038 0.047566 0.238758 0.130709
H34   H     H_    0.167182 0.952074 0.238544 0.131187
H35   H     H_    0.685340 0.548283 0.255563 0.130747
H36   H     H_    0.684502 0.452703 0.255770 0.134076
H37   H     H_    0.294836 0.095745 0.869265 0.117330
H38   H     H_    0.293946 0.904498 0.869047 0.122330
H39   H     H_    0.784344 0.595382 0.633825 0.118598
H40   H     H_    0.784716 0.404053 0.633726 0.118593
H41   H     H_    0.332690 0.047995 0.761479 0.127529
H42   H     H_    0.332283 0.952471 0.761387 0.132632
H43   H     H_    0.813654 0.547276 0.744583 0.130341
H44   H     H_    0.814004 0.451693 0.744489 0.131753
H45   H     H_    0.186690 0.454870 0.098585 0.190824
H46   H     H_    0.140182 0.546855 0.966268 0.174439
H47   H     H_    0.180482 0.541369 0.091908 0.211237
H48   H     H_    0.137180 0.459814 0.977201 0.196164
H49   H     H_    0.674121 0.953856 0.586532 0.202623
H50   H     H_    0.653449 0.047282 0.436960 0.173994
H51   H     H_    0.663795 0.040493 0.576715 0.186574
H52   H     H_    0.644015 0.960433 0.459856 0.172698
H53   H     H_    0.205113 0.904251 0.130815 0.122509
H54   H     H_    0.206494 0.095494 0.131079 0.123532
H55   H     H_    0.714176 0.404605 0.366435 0.120393
H56   H     H_    0.715599 0.595928 0.366095 0.118680
H57   H     H_    0.907617 0.360743 0.936903 0.126053
H58   H     H_    0.920537 0.625415 0.075027 0.123129
H59   H     H_    0.883170 0.682378 0.963124 0.134166
H60   H     H_    0.874186 0.289007 0.027042 0.143162
H61   H     H_    0.381446 0.814514 0.463898 0.135588
H62   H     H_    0.427895 0.390471 0.596376 0.148138
H63   H     H_    0.404461 0.144564 0.442233 0.128828
H64   H     H_    0.418566 0.873351 0.572955 0.123252
H65   H     H_    0.173191 0.190951 0.768880 0.109899
H66   H     H_    0.164747 0.818544 0.224132 0.104452
H67   H     H_    0.185376 0.788054 0.755348 0.125789
H68   H     H_    0.190187 0.224514 0.250260 0.135026
H69   H     H_    0.686028 0.712977 0.255398 0.125619
H70   H     H_    0.684914 0.216817 0.770438 0.160150
H71   H     H_    0.672650 0.309033 0.268036 0.105363
H72   H     H_    0.665449 0.681941 0.724823 0.107495
H73   H     H_    0.189802 0.141823 0.656763 0.125324
H74   H     H_    0.173981 0.875608 0.329493 0.119444
H75   H     H_    0.212432 0.817122 0.631978 0.134185
H76   H     H_    0.221229 0.209565 0.377381 0.142621
H77   H     H_    0.714055 0.685609 0.131698 0.134031
H78   H     H_    0.686120 0.144070 0.854881 0.144033
H79   H     H_    0.692978 0.352098 0.151325 0.123308
H80   H     H_    0.676123 0.625971 0.831617 0.121991
H81   H     H_    0.619429 0.687436 0.035439 0.137873
H82   H     H_    0.570243 0.108127 0.901847 0.146954
H83   H     H_    0.603949 0.343356 0.050553 0.132000
H84   H     H_    0.582213 0.627510 0.928359 0.131104
H85   H     H_    0.095163 0.142639 0.560330 0.123631
H86   H     H_    0.078267 0.875876 0.424438 0.128732
H87   H     H_    0.117248 0.816475 0.536252 0.136804
H88   H     H_    0.126469 0.210310 0.472260 0.144003
H89   H     H_    0.496268 0.716013 0.062682 0.129762
H90   H     H_    0.454432 0.147886 0.868964 0.161224
H91   H     H_    0.489354 0.297934 0.069368 0.131778
H92   H     H_    0.477232 0.684906 0.918580 0.106023
H93   H     H_    0.984241 0.193485 0.574926 0.104976
H94   H     H_    0.973475 0.818568 0.414987 0.107426
H95   H     H_    0.994563 0.786992 0.563558 0.131210
H96   H     H_    0.999926 0.225719 0.440832 0.138975
O1    O     O_3   0.249990 0.250010 0.000000 -0.485092
O2    O     O_3   0.249990 0.749990 0.000000 -0.486605
O3    O     O_3   0.749990 0.750010 0.500000 -0.485551
O4    O     O_3   0.749990 0.249990 0.500000 -0.485844
O5    O     O_R   0.335430 0.280650 0.146160 -0.633842
O6    O     O_R   0.335430 0.719350 0.853840 -0.654475
O7    O     O_R   0.335430 0.719350 0.146160 -0.643617
O8    O     O_R   0.335430 0.280650 0.853840 -0.644453
O9    O     O_R   0.835430 0.780650 0.646160 -0.646460
O10   O     O_R   0.835430 0.219350 0.353840 -0.631511
O11   O     O_R   0.835430 0.219350 0.646160 -0.656045
O12   O     O_R   0.835430 0.780650 0.353840 -0.651603
O13   O     O_R   0.164550 0.280640 0.853840 -0.654236
O14   O     O_R   0.164550 0.719360 0.146160 -0.635276
O15   O     O_R   0.164550 0.719360 0.853840 -0.640969
O16   O     O_R   0.164550 0.280640 0.146160 -0.643148
O17   O     O_R   0.664550 0.780640 0.353840 -0.638682
O18   O     O_R   0.664550 0.219360 0.646160 -0.647029
O19   O     O_R   0.664550 0.219360 0.353840 -0.639212
O20   O     O_R   0.664550 0.780640 0.646160 -0.634561
O21   O     O_R   0.396160 0.219380 0.914560 -0.647850
O22   O     O_R   0.396160 0.780620 0.085440 -0.634315
O23   O     O_R   0.396160 0.780620 0.914560 -0.632769
O24   O     O_R   0.396160 0.219380 0.085440 -0.634146
O25   O     O_R   0.896160 0.719380 0.414560 -0.629907
O26   O     O_R   0.896160 0.280620 0.585440 -0.633171
O27   O     O_R   0.896160 0.280620 0.414560 -0.639846
O28   O     O_R   0.896160 0.719380 0.585440 -0.635416
O29   O     O_R   0.103840 0.219370 0.085450 -0.640061
O30   O     O_R   0.103840 0.780630 0.914550 -0.634883
O31   O     O_R   0.103840 0.780630 0.085450 -0.636950
O32   O     O_R   0.103840 0.219370 0.914550 -0.634086
O33   O     O_R   0.603840 0.719370 0.585450 -0.635740
O34   O     O_R   0.603840 0.280630 0.414550 -0.634743
O35   O     O_R   0.603840 0.280630 0.585450 -0.645880
O36   O     O_R   0.603840 0.719370 0.414550 -0.637111
O37   O     O_R   0.310730 0.133160 0.000000 -0.648430
O38   O     O_R   0.310730 0.866840 0.000000 -0.636454
O39   O     O_R   0.810730 0.633160 0.500000 -0.635159
O40   O     O_R   0.810730 0.366840 0.500000 -0.632819
O41   O     O_R   0.249970 0.366860 0.060720 -0.638161
O42   O     O_R   0.249970 0.633140 0.939280 -0.632990
O43   O     O_R   0.249970 0.633140 0.060720 -0.665459
O44   O     O_R   0.249970 0.366860 0.939280 -0.658648
O45   O     O_R   0.749970 0.866860 0.560720 -0.663095
O46   O     O_R   0.749970 0.133140 0.439280 -0.612169
O47   O     O_R   0.749970 0.133140 0.560720 -0.664647
O48   O     O_R   0.749970 0.866860 0.439280 -0.647825
O49   O     O_R   0.189290 0.133150 0.000000 -0.634988
O50   O     O_R   0.189290 0.866850 0.000000 -0.637401
O51   O     O_R   0.689290 0.633150 0.500000 -0.637647
O52   O     O_R   0.689290 0.366850 0.500000 -0.649307
Zn1   Zn    Zn3+2 0.249990 0.293780 0.913250 0.942592
Zn2   Zn    Zn3+2 0.249990 0.706220 0.086750 0.944701
Zn3   Zn    Zn3+2 0.249990 0.706220 0.913250 0.938446
Zn4   Zn    Zn3+2 0.249990 0.293780 0.086750 0.966982
Zn5   Zn    Zn3+2 0.749990 0.793780 0.413250 0.938112
Zn6   Zn    Zn3+2 0.749990 0.206220 0.586750 0.928567
Zn7   Zn    Zn3+2 0.749990 0.206220 0.413250 0.978047
Zn8   Zn    Zn3+2 0.749990 0.793780 0.586750 0.941613
Zn9   Zn    Zn3+2 0.336760 0.206240 0.000000 0.953948
Zn10  Zn    Zn3+2 0.336760 0.793760 0.000000 0.960648
Zn11  Zn    Zn3+2 0.836760 0.706240 0.500000 0.962322
Zn12  Zn    Zn3+2 0.836760 0.293760 0.500000 0.959360
Zn13  Zn    Zn3+2 0.163250 0.206230 0.000000 0.957104
Zn14  Zn    Zn3+2 0.163250 0.793770 0.000000 0.962136
Zn15  Zn    Zn3+2 0.663250 0.706230 0.500000 0.961139
Zn16  Zn    Zn3+2 0.663250 0.293770 0.500000 0.950079
O53   O     O_3   0.379612 0.453299 0.031755 -0.673006
C181  C     C_3   0.452625 0.442300 0.011638 0.206297
H97   H     H_    0.476464 0.473768 0.977751 0.186733
H98   H     H_    0.455356 0.405196 0.981052 0.164528
C182  C     C_3   0.498082 0.435922 0.080817 -0.903003
H99   H     H_    0.492710 0.470140 0.116639 0.266524
H100  H     H_    0.478818 0.401730 0.111974 0.271877
H101  H     H_    0.556457 0.430983 0.066350 0.206415
O54   O     O_3   0.333176 0.545302 0.892786 -0.673021
C183  C     C_3   0.384985 0.583143 0.871815 0.204831
H102  H     H_    0.440699 0.565950 0.871706 0.163408
H103  H     H_    0.383752 0.617179 0.908824 0.166672
C184  C     C_3   0.367167 0.601886 0.794840 -0.816399
H104  H     H_    0.312139 0.619973 0.793777 0.281743
H105  H     H_    0.408102 0.630867 0.777065 0.221146
H106  H     H_    0.367904 0.569064 0.755884 0.239882
O55   O     O_3   0.398668 0.550754 0.001594 -0.678524
C185  C     C_3   0.400045 0.562467 0.076787 0.036524
H107  H     H_    0.388847 0.528003 0.111003 0.200326
H108  H     H_    0.362914 0.594515 0.090012 0.174927
C186  C     C_3   0.475952 0.582314 0.095704 -0.850742
H109  H     H_    0.487027 0.618128 0.064123 0.244591
H110  H     H_    0.479598 0.591021 0.155068 0.225971
H111  H     H_    0.518259 0.553396 0.081253 0.257035
O56   O     O_3   0.358906 0.443776 0.907219 -0.657632
C187  C     C_3   0.318375 0.446199 0.841033 0.125801
H112  H     H_    0.280373 0.478952 0.835609 0.175691
H113  H     H_    0.286592 0.410323 0.833333 0.185254
C188  C     C_3   0.372042 0.448741 0.777758 -0.816413
H114  H     H_    0.406580 0.413388 0.777386 0.264662
H115  H     H_    0.342014 0.451505 0.725029 0.203794
H116  H     H_    0.408110 0.482896 0.783657 0.262827
O57   O     O_3   0.900192 0.946172 0.506973 -0.691447
C189  C     C_3   0.899677 0.928887 0.580292 0.048162
H117  H     H_    0.872046 0.891167 0.584705 0.172840
H118  H     H_    0.876597 0.956942 0.619057 0.202256
C190  C     C_3   0.978362 0.920124 0.604079 -0.823091
H119  H     H_    0.008283 0.957463 0.604342 0.260308
H120  H     H_    0.979928 0.903148 0.659948 0.222676
H121  H     H_    0.005812 0.893269 0.565603 0.246677
O58   O     O_3   0.873070 0.060909 0.438541 -0.642240
C191  C     C_3   0.947452 0.048005 0.426725 0.150464
H122  H     H_    0.951603 0.022880 0.377926 0.184626
H123  H     H_    0.973963 0.027742 0.473476 0.171081
C192  C     C_3   0.990094 0.097093 0.409687 -0.908426
H124  H     H_    0.048110 0.087344 0.398749 0.215338
H125  H     H_    0.966726 0.116494 0.360625 0.282861
H126  H     H_    0.987768 0.124274 0.456444 0.225700
O59   O     O_3   0.873747 0.037411 0.564608 -0.687018
C193  C     C_3   0.904098 0.086336 0.580846 0.110391
H127  H     H_    0.883209 0.118572 0.546674 0.156431
H128  H     H_    0.964081 0.084202 0.573151 0.153990
C194  C     C_3   0.890841 0.097879 0.661460 -0.792796
H129  H     H_    0.910446 0.065081 0.695645 0.248913
H130  H     H_    0.920604 0.133084 0.678195 0.225217
H131  H     H_    0.831947 0.104108 0.672009 0.261376
O60   O     O_3   0.840284 0.967329 0.398460 -0.652794
C195  C     C_3   0.880664 0.924307 0.372007 0.162063
H132  H     H_    0.872839 0.888796 0.405197 0.172795
H133  H     H_    0.939885 0.933510 0.372106 0.147183
C196  C     C_3   0.857417 0.912690 0.293905 -0.792929
H134  H     H_    0.866775 0.947071 0.258647 0.250970
H135  H     H_    0.889750 0.879690 0.272424 0.220385
H136  H     H_    0.798587 0.902412 0.292407 0.264440

loop_
_geom_bond_atom_site_label_1
_geom_bond_atom_site_label_2
_ccdc_geom_bond_type
C151  H47   S    
O2    Zn10  S    
C133  C137  A    
C157  C158  S    
C55   C59   A    
C136  C140  A    
C153  H49   S    
C79   C87   A    
C61   C69   A    
C13   C173  A    
C91   O15   A    
C184  H104  S    
C170  C178  A    
C160  O58   S    
O39   Zn11  S    
C69   C93   S    
C194  H130  S    
C64   C112  A    
C71   C95   S    
C92   O29   A    
C28   C40   A    
C29   C33   A    
C36   C168  A    
C62   C70   A    
C169  H69   S    
C77   H13   S    
C39   C171  A    
C178  H78   S    
C74   H10   S    
C23   H95   S    
C113  C122  A    
C173  H73   S    
O20   Zn8   S    
C107  H27   S    
C96   O33   A    
C97   C105  A    
C84   H24   S    
C7    C45   S    
O45   Zn8   S    
O3    Zn15  S    
O41   Zn4   S    
C130  C134  A    
O2    Zn3   S    
C109  H29   S    
O31   Zn14  S    
C73   C81   A    
O52   Zn16  S    
C80   H16   S    
C166  C174  A    
C141  O37   A    
O29   Zn13  S    
C17   H89   S    
C188  H116  S    
C25   C41   A    
C82   H22   S    
C26   C38   A    
O36   Zn15  S    
C19   H91   S    
C20   C28   A    
C145  O41   A    
C21   C29   A    
C28   C44   A    
C10   H82   S    
C29   C45   A    
C23   C31   A    
C191  H123  S    
C24   C32   A    
C95   O34   A    
C139  H36   S    
C12   C20   A    
C119  H43   S    
C13   C21   A    
C105  H25   S    
O4    Zn16  S    
O14   Zn2   S    
C129  C133  A    
O4    Zn6   S    
O1    Zn9   S    
C184  H106  S    
C190  H119  S    
C49   C73   A    
C196  H136  S    
C191  C192  S    
C11   C179  A    
C9    C177  A    
C159  O57   S    
C135  H55   S    
C106  H26   S    
C139  C140  A    
C36   C68   A    
C97   H57   S    
O59   C193  S    
C126  C141  S    
C98   C106  A    
C17   C25   A    
C188  H115  S    
C80   C88   A    
C155  H7    S    
C186  H109  S    
C1    O5    A    
C88   H20   S    
C145  C161  S    
C10   C18   A    
C68   C92   S    
C158  O55   S    
C63   C111  A    
C127  C131  A    
C85   C97   A    
C193  H127  S    
C72   C96   S    
C125  C129  A    
C39   C71   A    
C189  H117  S    
C196  H134  S    
C138  H33   S    
C182  H99   S    
C116  C123  A    
C171  H71   S    
C118  H42   S    
C1    O24   A    
O22   Zn10  S    
C2    O23   A    
C108  H28   S    
C75   C83   A    
C34   C66   A    
O60   C195  S    
C123  C124  A    
C81   C101  A    
O46   Zn7   S    
C154  H6    S    
O1    Zn4   S    
O15   Zn3   S    
C83   C103  A    
C153  C163  S    
C32   C36   A    
C154  C164  S    
O32   Zn13  S    
C149  C151  S    
C37   C169  A    
C176  H76   S    
C185  H107  S    
C79   H15   S    
C12   H84   S    
O35   Zn16  S    
O16   Zn4   S    
C59   C67   A    
C123  C127  A    
C1    C43   S    
C2    C44   S    
C190  H121  S    
C102  H62   S    
C116  H40   S    
O7    Zn2   S    
C152  C161  S    
C186  H111  S    
C44   C52   A    
C77   C85   A    
C120  H44   S    
C171  C179  A    
O47   Zn6   S    
C114  H38   S    
C169  C177  A    
C34   C166  A    
C134  H54   S    
C93   O36   A    
C100  C108  A    
C94   O35   A    
C30   C34   A    
C148  C164  S    
C144  O40   A    
C89   O32   A    
C104  C112  A    
C179  H79   S    
C90   O31   A    
O18   Zn6   S    
C59   C107  A    
C116  C120  A    
C8    O12   A    
C75   H11   S    
C121  C125  A    
C76   H12   S    
C37   C69   A    
C156  H52   S    
C181  H98   S    
C35   C67   A    
C132  C136  A    
C92   O16   A    
C82   C102  A    
C93   O17   A    
C114  C118  A    
O3    Zn5   S    
C6    C48   S    
C42   C50   A    
C113  C117  A    
C89   O13   A    
C12   C180  A    
C182  H101  S    
C115  C119  A    
C84   C104  A    
O26   Zn12  S    
O42   Zn3   S    
O50   Zn14  S    
C187  H112  S    
C18   H90   S    
C26   C42   A    
C181  C182  S    
C167  C175  A    
C195  H132  S    
C24   H96   S    
C168  C176  A    
C8    O25   A    
C146  O42   A    
C22   C30   A    
C30   C46   A    
C33   C165  A    
C52   C76   A    
C60   C108  A    
C151  H3    S    
O43   Zn2   S    
C65   C89   S    
C56   C80   A    
C14   C22   A    
O4    Zn12  S    
C147  C163  S    
C194  H129  S    
O34   Zn16  S    
O40   Zn12  S    
C16   C176  A    
O9    Zn8   S    
C4    C42   S    
C136  H56   S    
C4    O8    A    
C100  H60   S    
C5    O9    A    
C8    C46   S    
C7    O11   A    
O30   Zn14  S    
C183  H102  S    
O23   Zn10  S    
C38   C70   A    
C150  H46   S    
C137  H34   S    
C186  H110  S    
C18   C26   A    
C87   H19   S    
C76   C84   A    
O54   C183  S    
O49   Zn13  S    
C2    O6    A    
C146  C162  S    
C11   C19   A    
C160  C164  S    
C70   C94   S    
C147  O45   A    
C15   H87   S    
O38   Zn10  S    
C126  C130  A    
C101  C109  A    
O1    Zn1   S    
C149  H45   S    
C170  H70   S    
C103  C111  A    
C78   H14   S    
C41   C49   A    
C140  H35   S    
C114  C121  A    
C174  H74   S    
C156  C163  S    
O44   Zn1   S    
C159  C163  S    
C153  C155  S    
C40   C72   A    
C148  O47   A    
C154  C156  S    
C144  O52   A    
C124  C128  A    
C99   H59   S    
C172  C180  A    
C184  H105  S    
C31   C47   A    
C149  H1    S    
C32   C48   A    
C110  H30   S    
C74   C82   A    
O8    Zn1   S    
C38   C170  A    
C156  H8    S    
C150  C162  S    
C190  H120  S    
C49   C61   A    
C51   C63   A    
C83   H23   S    
O24   Zn9   S    
C52   C64   A    
C194  H131  S    
C53   C57   A    
C81   H21   S    
C56   C60   A    
C21   H93   S    
C95   O19   A    
C53   C77   A    
C55   C79   A    
C159  C160  S    
C151  C162  S    
C46   C54   A    
C67   C91   S    
C160  O59   S    
C133  H53   S    
C142  O50   A    
C121  C122  A    
C88   C100  A    
C141  O49   A    
O10   Zn7   S    
C85   H17   S    
C142  O38   A    
C31   C35   A    
C102  C110  A    
C149  C161  S    
C4    O21   A    
O2    Zn2   S    
C189  H118  S    
C131  C132  A    
C157  C161  S    
C40   C172  A    
C157  O53   S    
O58   C191  S    
C137  C138  A    
O48   Zn5   S    
C115  C124  A    
C57   C65   A    
C193  C194  S    
C13   H85   S    
C187  H113  S    
C119  C120  A    
C175  H75   S    
C98   H58   S    
C99   C107  A    
C135  C139  A    
O28   Zn11  S    
O5    Zn4   S    
C94   O18   A    
C189  C190  S    
C50   C74   A    
C191  H122  S    
C129  C130  A    
C14   C174  A    
C43   C51   A    
C7    O26   A    
C185  H108  S    
C90   O14   A    
C167  H67   S    
C66   C90   S    
C127  C144  S    
C86   C98   A    
C128  C143  S    
C111  H31   S    
C187  C188  S    
C166  H66   S    
C180  H80   S    
C87   C99   A    
C27   C43   A    
O2    Zn14  S    
C60   C68   A    
C192  H125  S    
C117  C118  A    
C143  O39   A    
C73   H9    S    
C22   H94   S    
C54   C78   A    
C185  C186  S    
C57   C105  A    
C143  O51   A    
C117  H41   S    
C61   C109  A    
C33   C65   A    
C5    C47   S    
O3    Zn11  S    
C112  H32   S    
C6    O10   A    
C51   C75   A    
C131  C135  A    
C196  H135  S    
C165  C173  A    
C25   C37   A    
O12   Zn5   S    
C152  H48   S    
C58   C66   A    
C27   C39   A    
C9    H81   S    
C35   C167  A    
C11   H83   S    
O3    Zn8   S    
C152  H4    S    
C101  H61   S    
C20   H92   S    
C78   C86   A    
C15   C23   A    
C16   C24   A    
C154  H50   S    
C158  O54   S    
C115  H39   S    
O25   Zn11  S    
C128  C132  A    
C148  O46   A    
C195  H133  S    
C145  O44   A    
O1    Zn13  S    
C146  O43   A    
C10   C178  A    
C165  H65   S    
C104  H64   S    
O17   Zn5   S    
C172  H72   S    
C58   C106  A    
O19   Zn7   S    
C122  C126  A    
C96   O20   A    
C3    O22   A    
C192  H126  S    
C195  C196  S    
O4    Zn7   S    
C103  H63   S    
C62   C110  A    
C125  C142  S    
O21   Zn9   S    
O6    Zn3   S    
O33   Zn15  S    
O27   Zn12  S    
O57   C189  S    
C16   H88   S    
C193  H128  S    
O51   Zn15  S    
C9    C17   A    
C168  H68   S    
C86   H18   S    
C183  H103  S    
C50   C62   A    
C150  C152  S    
C159  O60   S    
C19   C27   A    
O11   Zn6   S    
C47   C55   A    
O56   C187  S    
C54   C58   A    
O13   Zn1   S    
C48   C56   A    
C3    C41   S    
C177  H77   S    
C63   C71   A    
C150  H2    S    
C134  C138  A    
C155  C164  S    
C183  C184  S    
O55   C185  S    
C15   C175  A    
C147  O48   A    
C113  H37   S    
C188  H114  S    
C181  H97   S    
C192  H124  S    
C153  H5    S    
C155  H51   S    
O37   Zn9   S    
C64   C72   A    
C5    O28   A    
C6    O27   A    
C158  C162  S    
C45   C53   A    
C91   O30   A    
C3    O7    A    
C182  H100  S    
C157  O56   S    
O53   C181  S    
C14   H86   S    
