data_mof_unit_22895.cif
_audit_creation_date              2012-12-11T16:44:19-0500
_audit_creation_method            fapswitch 2.2
_symmetry_space_group_name_H-M    P1
_symmetry_Int_Tables_number       1
_space_group_crystal_system       triclinic
_cell_length_a                    26.940066
_cell_length_b                    7.186891
_cell_length_c                    22.879794
_cell_angle_alpha                 89.999606
_cell_angle_beta                  101.995516
_cell_angle_gamma                 89.99996
_cell_volume                      4333.14717905

loop_
_atom_site_label
_atom_site_type_symbol
_atom_type_description
_atom_site_fract_x
_atom_site_fract_y
_atom_site_fract_z
_atom_type_partial_charge
O1    O     O_R   0.707300 0.594030 0.176840 -0.534856
O2    O     O_R   0.292700 0.405970 0.823160 -0.529765
O3    O     O_R   0.792700 0.094030 0.323160 -0.534857
O4    O     O_R   0.207300 0.905970 0.676840 -0.529765
O5    O     O_R   0.697330 0.262360 0.295660 -0.540056
O6    O     O_R   0.302670 0.737640 0.704340 -0.539696
O7    O     O_R   0.802670 0.762360 0.204340 -0.540055
O8    O     O_R   0.197330 0.237640 0.795660 -0.539696
C1    C     C_R   0.684923 0.432511 0.311986 0.693671
C2    C     C_R   0.314877 0.567528 0.687747 0.689118
C3    C     C_R   0.815077 0.932511 0.188014 0.693674
C4    C     C_R   0.185123 0.067528 0.812253 0.689118
O9    O     O_R   0.701410 0.264250 0.175600 -0.532749
O10   O     O_R   0.298590 0.735750 0.824400 -0.537271
O11   O     O_R   0.798590 0.764250 0.324400 -0.532750
O12   O     O_R   0.201410 0.235750 0.675600 -0.537271
O13   O     O_R   0.796800 0.094950 0.202240 -0.538412
O14   O     O_R   0.203200 0.905050 0.797760 -0.537994
O15   O     O_R   0.703200 0.594950 0.297760 -0.538411
O16   O     O_R   0.296800 0.405050 0.702240 -0.537995
C5    C     C_R   0.689496 0.431930 0.153239 0.712630
C6    C     C_R   0.310430 0.567757 0.846869 0.705480
C7    C     C_R   0.810504 0.931929 0.346761 0.712630
C8    C     C_R   0.189570 0.067758 0.653131 0.705481
O17   O     O_3   0.781290 0.427390 0.258880 -0.372992
O18   O     O_3   0.218710 0.572610 0.741120 -0.371351
O19   O     O_3   0.718710 0.927390 0.241120 -0.372992
O20   O     O_3   0.281290 0.072610 0.758880 -0.371351
V1    V     V_3+5 0.744190 0.152150 0.248350 1.397076
V2    V     V_3+5 0.255810 0.847850 0.751650 1.394989
V3    V     V_3+5 0.755810 0.652150 0.251650 1.397075
V4    V     V_3+5 0.244190 0.347850 0.748350 1.394991
C9    C     C_R   0.155191 0.064159 0.593531 -0.107641
C10   C     C_R   0.846521 0.929349 0.405172 -0.103839
C11   C     C_R   0.344809 0.564155 0.906469 -0.107639
C12   C     C_R   0.653478 0.429355 0.094829 -0.103834
C13   C     C_R   0.137408 0.167264 0.490125 0.330737
C14   C     C_R   0.866473 0.794945 0.504727 0.334151
C15   C     C_R   0.362590 0.667248 0.009875 0.330734
C16   C     C_R   0.633528 0.294984 0.995270 0.334147
C17   C     C_R   0.169605 0.157654 0.546503 -0.261097
C18   C     C_R   0.831214 0.844352 0.453144 -0.247455
C19   C     C_R   0.330394 0.657644 0.953497 -0.261099
C20   C     C_R   0.668787 0.344382 0.046855 -0.247461
C21   C     C_R   0.106793 0.984006 0.584640 -0.172751
C22   C     C_R   0.897928 0.973527 0.410035 -0.171444
C23   C     C_R   0.393207 0.484003 0.915359 -0.172739
C24   C     C_R   0.602071 0.473519 0.089967 -0.171448
C25   C     C_R   0.073752 0.980349 0.527206 0.011357
C26   C     C_R   0.935693 0.908732 0.459109 0.001455
C27   C     C_R   0.426247 0.480342 0.972794 0.011356
C28   C     C_R   0.564307 0.408732 0.040892 0.001455
C29   C     C_R   0.089949 0.070998 0.478934 -0.006762
C30   C     C_R   0.919445 0.813771 0.506399 -0.007538
C31   C     C_R   0.410050 0.570982 0.021066 -0.006757
C32   C     C_R   0.580556 0.313791 0.993600 -0.007531
C33   C     C_R   0.023847 0.899962 0.517316 -0.061949
C34   C     C_R   0.989034 0.936250 0.462595 -0.061349
C35   C     C_R   0.476154 0.399960 0.982683 -0.061951
C36   C     C_R   0.510965 0.436241 0.037406 -0.061346
C37   C     C_R   0.009468 0.984287 0.412179 0.221789
C38   C     C_R   0.008272 0.774076 0.558000 0.210758
C39   C     C_R   0.490530 0.484263 0.087821 0.221788
C40   C     C_R   0.491729 0.274085 0.941998 0.210752
C41   C     C_R   0.059210 0.057805 0.420581 0.210889
C42   C     C_R   0.956303 0.729657 0.552073 0.217389
C43   C     C_R   0.440788 0.557779 0.079420 0.210892
C44   C     C_R   0.543700 0.229679 0.947924 0.217390
H1    H     H_    0.907552 0.053966 0.374175 0.155064
H2    H     H_    0.094768 0.936100 0.624134 0.146965
H3    H     H_    0.592446 0.553942 0.125830 0.155065
H4    H     H_    0.405233 0.436103 0.875866 0.146959
H5    H     H_    0.791305 0.814543 0.450178 0.106365
H6    H     H_    0.205882 0.228820 0.554152 0.116995
H7    H     H_    0.708697 0.314587 0.049819 0.106363
H8    H     H_    0.294117 0.728809 0.945848 0.116995
C45   C     C_R   0.858888 0.111638 0.119112 -0.231129
C46   C     C_R   0.142233 0.888352 0.882038 -0.230516
C47   C     C_R   0.641112 0.611636 0.380888 -0.231129
C48   C     C_R   0.357767 0.388354 0.617962 -0.230516
H9    H     H_    0.835062 0.230348 0.123225 0.126838
H10   H     H_    0.165875 0.769541 0.877428 0.127275
H11   H     H_    0.664938 0.730346 0.376775 0.126838
H12   H     H_    0.334125 0.269543 0.622572 0.127275
C49   C     C_R   0.893994 0.127034 0.081706 0.305016
C50   C     C_R   0.107717 0.872943 0.920180 0.305162
C51   C     C_R   0.606007 0.627032 0.418294 0.305015
C52   C     C_R   0.392283 0.372945 0.579820 0.305161
C53   C     C_R   0.925576 0.974149 0.075372 0.062288
C54   C     C_R   0.076340 0.025868 0.927124 0.062134
C55   C     C_R   0.574424 0.474148 0.424629 0.062287
C56   C     C_R   0.423660 0.525869 0.572876 0.062134
C57   C     C_R   0.919781 0.807378 0.105504 -0.217177
C58   C     C_R   0.081916 0.192922 0.897033 -0.216521
C59   C     C_R   0.580219 0.307378 0.394497 -0.217177
C60   C     C_R   0.418085 0.692923 0.602968 -0.216520
H13   H     H_    0.943677 0.688764 0.101600 0.132534
H14   H     H_    0.058202 0.311638 0.901436 0.132904
H15   H     H_    0.556323 0.188763 0.398401 0.132533
H16   H     H_    0.441798 0.811639 0.598564 0.132904
C61   C     C_R   0.883941 0.792421 0.141768 -0.179725
C62   C     C_R   0.117223 0.207949 0.860079 -0.179326
C63   C     C_R   0.616059 0.292421 0.358233 -0.179722
C64   C     C_R   0.382777 0.707950 0.639921 -0.179326
H17   H     H_    0.880788 0.662052 0.164450 0.127759
H18   H     H_    0.120230 0.338567 0.837473 0.129225
H19   H     H_    0.619212 0.162052 0.335550 0.127759
H20   H     H_    0.379770 0.838567 0.662526 0.129224
C65   C     C_R   0.853234 0.944841 0.149355 -0.074585
C66   C     C_R   0.147545 0.055243 0.851672 -0.076856
C67   C     C_R   0.646766 0.444840 0.350645 -0.074586
C68   C     C_R   0.352455 0.555244 0.648328 -0.076856
C69   C     C_R   0.967835 0.848230 0.995431 -0.195293
C70   C     C_R   0.034381 0.151156 0.007463 -0.195150
C71   C     C_R   0.532165 0.348229 0.504570 -0.195292
C72   C     C_R   0.465620 0.651157 0.492538 -0.195149
H21   H     H_    0.941967 0.731116 0.989615 0.123722
H22   H     H_    0.060219 0.268355 0.013241 0.123550
H23   H     H_    0.558033 0.231114 0.510387 0.123721
H24   H     H_    0.439781 0.768357 0.486759 0.123549
C73   C     C_R   0.003625 0.861763 0.959134 -0.100231
C74   C     C_R   0.998583 0.137630 0.043759 -0.100181
C75   C     C_R   0.496376 0.361763 0.540867 -0.100230
C76   C     C_R   0.501418 0.637631 0.456242 -0.100180
H25   H     H_    0.004539 0.754680 0.926080 0.128734
H26   H     H_    0.997616 0.244808 0.076768 0.128360
H27   H     H_    0.495461 0.254679 0.573921 0.128734
H28   H     H_    0.502385 0.744809 0.423232 0.128359
C77   C     C_R   0.037494 0.012922 0.964923 0.098268
C78   C     C_R   0.964680 0.986566 0.037916 0.098279
C79   C     C_R   0.462507 0.512923 0.535078 0.098268
C80   C     C_R   0.535320 0.486565 0.462084 0.098280
N1    N     N_2   0.079205 0.112514 0.370178 -0.477353
H29   H     H_    0.055468 0.189618 0.338037 0.240532
C81   C     C_3   0.108199 0.971534 0.346955 -0.500771
H30   H     H_    0.127432 0.035052 0.313388 0.190779
H31   H     H_    0.082877 0.858976 0.325025 0.181474
H32   H     H_    0.137692 0.911867 0.383397 0.197312
N2    N     N_2   0.941346 0.587888 0.588605 -0.473374
H33   H     H_    0.960082 0.585222 0.632644 0.246845
C82   C     C_3   0.934045 0.405732 0.561070 -0.484261
H34   H     H_    0.919308 0.308246 0.591071 0.182679
H35   H     H_    0.970488 0.350637 0.552925 0.183366
H36   H     H_    0.906045 0.412556 0.517980 0.201601
N3    N     N_2   0.420791 0.612467 0.129823 -0.477351
H37   H     H_    0.444527 0.689554 0.161968 0.240535
C83   C     C_3   0.391794 0.471475 0.153037 -0.500781
H38   H     H_    0.372565 0.534970 0.186611 0.190775
H39   H     H_    0.417113 0.358891 0.174954 0.181477
H40   H     H_    0.362296 0.411849 0.116591 0.197316
N4    N     N_2   0.558659 0.087925 0.911390 -0.473374
H41   H     H_    0.539919 0.085258 0.867352 0.246848
C84   C     C_3   0.565967 0.905768 0.938923 -0.484264
H42   H     H_    0.580694 0.808284 0.908914 0.182671
H43   H     H_    0.529529 0.850673 0.947083 0.183365
H44   H     H_    0.593978 0.912591 0.982006 0.201607
N5    N     N_2   0.152765 0.280346 0.445871 -0.476964
H45   H     H_    0.191490 0.283688 0.448714 0.243673
C85   C     C_3   0.130690 0.464798 0.440216 -0.533232
H46   H     H_    0.142295 0.539150 0.402681 0.191538
H47   H     H_    0.144078 0.545427 0.481976 0.183534
H48   H     H_    0.088598 0.456730 0.430506 0.198848
N6    N     N_2   0.847984 0.726547 0.554627 -0.480040
H49   H     H_    0.813327 0.660189 0.543590 0.244748
C86   C     C_3   0.849578 0.861550 0.601886 -0.531960
H50   H     H_    0.837258 0.794711 0.640255 0.194138
H51   H     H_    0.823692 0.979631 0.585751 0.179564
H52   H     H_    0.888764 0.915122 0.617650 0.199260
N7    N     N_2   0.347234 0.780326 0.054129 -0.476965
H53   H     H_    0.308509 0.783666 0.051287 0.243673
C87   C     C_3   0.369308 0.964779 0.059784 -0.533233
H54   H     H_    0.357703 0.039129 0.097319 0.191537
H55   H     H_    0.355920 0.045409 0.018024 0.183537
H56   H     H_    0.411400 0.956712 0.069494 0.198845
N8    N     N_2   0.652018 0.226622 0.945366 -0.480042
H57   H     H_    0.686678 0.160284 0.956399 0.244747
C88   C     C_3   0.650416 0.361646 0.898111 -0.531958
H58   H     H_    0.662739 0.294836 0.859740 0.194139
H59   H     H_    0.676296 0.479741 0.914250 0.179566
H60   H     H_    0.611227 0.415194 0.882349 0.199260
N9    N     N_2   0.983099 0.932211 0.353540 -0.531096
H61   H     H_    0.991046 0.005870 0.318059 0.256242
C89   C     C_3   0.978848 0.733691 0.342508 -0.543472
H62   H     H_    0.017052 0.670266 0.347196 0.185178
H63   H     H_    0.956896 0.708192 0.296475 0.189541
H64   H     H_    0.958600 0.664864 0.374187 0.210771
N10   N     N_2   0.045323 0.669873 0.598660 -0.533536
H65   H     H_    0.039693 0.648294 0.641293 0.241816
C90   C     C_3   0.070492 0.520451 0.573725 -0.491897
H66   H     H_    0.061829 0.385146 0.592801 0.181350
H67   H     H_    0.112130 0.542954 0.585397 0.208735
H68   H     H_    0.058269 0.513139 0.524299 0.189746
N11   N     N_2   0.516898 0.432175 0.146460 -0.531099
H69   H     H_    0.508949 0.505819 0.181943 0.256242
C91   C     C_3   0.521153 0.233652 0.157488 -0.543469
H70   H     H_    0.482950 0.170217 0.152795 0.185176
H71   H     H_    0.543103 0.208145 0.203520 0.189540
H72   H     H_    0.541404 0.164842 0.125808 0.210773
N12   N     N_2   0.454680 0.169880 0.901338 -0.533535
H73   H     H_    0.460308 0.148325 0.858703 0.241812
C92   C     C_3   0.429516 0.020438 0.926271 -0.491891
H74   H     H_    0.438193 0.885139 0.907204 0.181349
H75   H     H_    0.387876 0.042901 0.914588 0.208732
H76   H     H_    0.441731 0.013148 0.975700 0.189747
N13   N     N_2   0.896691 0.296272 0.050136 -0.540686
H77   H     H_    0.886765 0.412211 0.071677 0.250544
C93   C     C_3   0.871018 0.291320 0.987997 -0.553795
H78   H     H_    0.876989 0.425458 0.966374 0.194080
H79   H     H_    0.829612 0.270017 0.984337 0.187807
H80   H     H_    0.886346 0.178048 0.963870 0.212314
N14   N     N_2   0.105381 0.703603 0.951827 -0.540633
H81   H     H_    0.115185 0.587784 0.930134 0.250605
C94   C     C_3   0.131481 0.708630 0.013809 -0.553809
H82   H     H_    0.125793 0.574346 0.035513 0.194115
H83   H     H_    0.116281 0.821634 0.038165 0.212131
H84   H     H_    0.172818 0.730396 0.017034 0.186740
N15   N     N_2   0.603310 0.796269 0.449864 -0.540686
H85   H     H_    0.613235 0.912209 0.428322 0.250543
C95   C     C_3   0.628985 0.791316 0.512003 -0.553795
H86   H     H_    0.623013 0.925452 0.533626 0.194081
H87   H     H_    0.670391 0.770019 0.515661 0.187807
H88   H     H_    0.613659 0.678040 0.536130 0.212313
N16   N     N_2   0.394619 0.203605 0.548174 -0.540633
H89   H     H_    0.384815 0.087787 0.569867 0.250605
C96   C     C_3   0.368520 0.208635 0.486192 -0.553807
H90   H     H_    0.374208 0.074351 0.464488 0.194115
H91   H     H_    0.383719 0.321640 0.461835 0.212131
H92   H     H_    0.327182 0.230401 0.482966 0.186739

loop_
_geom_bond_atom_site_label_1
_geom_bond_atom_site_label_2
_ccdc_geom_bond_type
O17   V3    S    
C81   H32   S    
C35   C36   A    
C87   H54   S    
C25   C29   A    
O1    C5    A    
N5    H45   S    
C51   C55   A    
C3    C65   S    
C9    C21   A    
N7    H53   S    
O3    C7    A    
C83   H38   S    
C10   C18   A    
C56   C60   A    
C48   H12   S    
C11   C23   A    
C4    C66   S    
N3    H37   S    
C49   N13   S    
C81   H30   S    
N8    C88   S    
C5    C12   S    
N13   H77   S    
O7    C3    A    
C6    C11   S    
C87   H55   S    
C35   C40   A    
C86   H50   S    
C36   C39   A    
C40   C44   A    
O9    V1    S    
N6    C86   S    
C96   H90   S    
C14   C18   A    
C89   H63   S    
O4    C8    A    
C59   H15   S    
O19   V1    S    
C58   H14   S    
C61   C65   A    
O1    V3    S    
C96   H92   S    
O13   V1    S    
C31   C43   A    
C76   C80   A    
O2    V4    S    
C92   H74   S    
C13   N5    S    
O3    V1    S    
C22   H1    S    
C28   C36   A    
C96   H91   S    
C17   H6    S    
C54   C77   S    
C1    O15   A    
C15   C31   A    
C42   N2    S    
C52   C56   A    
C90   H68   S    
C2    O16   A    
N11   C91   S    
C43   N3    S    
C93   H80   S    
N4    H41   S    
C39   N11   S    
C2    C68   S    
C10   C22   A    
C45   H9    S    
C84   H43   S    
C11   C19   A    
C76   H28   S    
C91   H72   S    
C13   C29   A    
O11   C7    A    
C7    C10   S    
C34   C37   A    
N9    C89   S    
O15   V3    S    
N12   H73   S    
O12   C8    A    
C81   H31   S    
C48   C52   A    
N4    C84   S    
C53   C57   A    
C92   H75   S    
C86   H51   S    
C90   H66   S    
O10   V2    S    
C47   C51   A    
N3    C83   S    
C59   C63   A    
C54   C58   A    
O5    V1    S    
C71   C80   A    
N13   C93   S    
C61   H17   S    
C87   H56   S    
C39   C43   A    
C85   H48   S    
C71   C75   A    
C69   C78   A    
C38   C42   A    
C93   H78   S    
C26   C34   A    
C33   C38   A    
C83   H40   S    
O7    V3    S    
C50   N14   S    
N16   H89   S    
C50   C54   A    
C89   H64   S    
C57   C61   A    
C95   H86   S    
C64   C68   A    
C49   C53   A    
O18   V4    S    
C15   C19   A    
C55   C80   S    
C16   C32   A    
N15   H85   S    
N9    H61   S    
C55   C59   A    
O4    V2    S    
C53   C78   S    
C72   H24   S    
C40   N12   S    
O8    V4    S    
C74   H26   S    
C20   H7    S    
C89   H62   S    
N14   H81   S    
O5    C1    A    
C95   H87   S    
C46   H10   S    
C75   H27   S    
C85   H46   S    
C14   C30   A    
C24   C28   A    
O8    C4    A    
C88   H60   S    
C48   C68   A    
C85   H47   S    
C21   C25   A    
C52   N16   S    
O9    C5    A    
C46   C66   A    
C26   C30   A    
C1    C67   S    
C84   H44   S    
C45   C65   A    
C70   H22   S    
C69   H21   S    
C14   N6    S    
O6    V2    S    
C73   H25   S    
C88   H58   S    
C86   H52   S    
C71   H23   S    
C60   C64   A    
N1    H29   S    
C70   C77   A    
C82   H36   S    
C27   C35   A    
C24   H3    S    
C57   H13   S    
C64   H20   S    
C29   C41   A    
C93   H79   S    
O16   V4    S    
C94   H84   S    
C44   N4    S    
C19   H8    S    
N14   C94   S    
C3    O13   A    
C18   H5    S    
C72   C76   A    
C75   C79   A    
C21   H2    S    
C73   C77   A    
O6    C2    A    
C16   N8    S    
C23   C27   A    
N2    H33   S    
N16   C96   S    
O11   V3    S    
C56   C79   S    
C30   C42   A    
C63   C67   A    
O12   V4    S    
C83   H39   S    
C22   C26   A    
C37   N9    S    
C8    C9    S    
C47   C67   A    
C9    C17   A    
O10   C6    A    
C82   H35   S    
C94   H83   S    
N10   H65   S    
C15   N7    S    
N8    H57   S    
C32   C44   A    
O2    C6    A    
C95   H88   S    
C47   H11   S    
N2    C82   S    
C46   C50   A    
C33   C34   A    
C25   C33   A    
C72   C79   A    
C62   C66   A    
C94   H82   S    
C60   H16   S    
O20   V2    S    
C92   H76   S    
C88   H59   S    
C12   C24   A    
C27   C31   A    
C51   N15   S    
C13   C17   A    
N15   C95   S    
N12   C92   S    
C23   H4    S    
N10   C90   S    
N6    H49   S    
C12   C20   A    
O14   V2    S    
C45   C49   A    
C91   H70   S    
C70   C74   A    
C37   C41   A    
C16   C20   A    
C69   C73   A    
C58   C62   A    
N5    C85   S    
N11   H69   S    
C62   H18   S    
C4    O14   A    
N1    C81   S    
C63   H19   S    
C90   H67   S    
C84   H42   S    
C82   H34   S    
C74   C78   A    
C41   N1    S    
C28   C32   A    
C38   N10   S    
C91   H71   S    
N7    C87   S    
