data_mof_unit_54698.cif
_audit_creation_date              2013-03-05T15:54:44-0500
_audit_creation_method            fapswitch 2.2
_symmetry_space_group_name_H-M    P1
_symmetry_Int_Tables_number       1
_space_group_crystal_system       triclinic
_cell_length_a                    12.477351
_cell_length_b                    13.224213
_cell_length_c                    15.034973
_cell_angle_alpha                 74.937008
_cell_angle_beta                  101.82922
_cell_angle_gamma                 116.910293
_cell_volume                      2125.15050258

loop_
_atom_site_label
_atom_site_type_symbol
_atom_site_description
_atom_site_fract_x
_atom_site_fract_y
_atom_site_fract_z
_atom_type_partial_charge
O1    O     O_R   0.972510 0.318130 0.526570 -0.518749
O2    O     O_R   0.806530 0.359650 0.490890 -0.584724
C1    C     C_R   0.855239 0.286860 0.505361 0.770130
O3    O     O_R   0.082980 0.479210 0.647590 -0.531868
O4    O     O_R   0.917000 0.520730 0.611900 -0.576858
C2    C     C_R   0.001236 0.500996 0.670342 0.830712
Cu1   Cu    Cu3+1 0.098270 0.475420 0.521130 1.058444
Cu2   Cu    Cu3+1 0.901730 0.524580 0.478870 1.018755
O5    O     O_R   0.193470 0.640350 0.509110 -0.530403
O6    O     O_R   0.027490 0.681870 0.473430 -0.556113
O7    O     O_R   0.083000 0.479270 0.388100 -0.596928
O8    O     O_R   0.917020 0.520790 0.352410 -0.543440
C3    C     C_R   0.144988 0.713208 0.494006 0.856814
C4    C     C_R   0.000953 0.501548 0.329237 0.847934
C5    C     C_R   0.042788 0.606668 0.169501 0.343264
C6    C     C_R   0.001702 0.501762 0.232685 -0.214188
C7    C     C_R   0.970320 0.397248 0.205474 0.058089
C8    C     C_R   0.955474 0.393879 0.110639 0.032278
C9    C     C_R   0.988553 0.498986 0.044918 -0.084507
C10   C     C_R   0.027349 0.605261 0.074111 -0.114825
C11   C     C_R   0.908905 0.287917 0.080224 0.328514
C12   C     C_R   0.907909 0.286695 0.987083 0.027630
C13   C     C_R   0.952356 0.391983 0.921967 0.067240
C14   C     C_R   0.987749 0.498539 0.950725 -0.064204
C15   C     C_R   0.024581 0.605180 0.885801 -0.016182
C16   C     C_R   0.049634 0.708511 0.914464 0.258818
C17   C     C_R   0.048759 0.707969 0.007407 0.238322
C18   C     C_R   0.961350 0.395164 0.828518 0.099822
C19   C     C_R   0.001142 0.500761 0.766794 -0.115363
C20   C     C_R   0.033412 0.605219 0.793762 0.089124
C21   C     C_R   0.266446 0.035812 0.437409 -0.053108
H1    H     H_    0.090635 0.898354 0.443572 0.232490
H2    H     H_    0.229123 0.096441 0.400475 0.224211
C22   C     C_R   0.228531 0.835812 0.496358 -0.180638
C23   C     C_R   0.810499 0.078722 0.562147 0.367236
C24   C     C_R   0.730298 0.984221 0.619702 0.091947
C25   C     C_R   0.609918 0.966150 0.610961 -0.205683
C26   C     C_R   0.562330 0.027026 0.534877 0.046550
C27   C     C_R   0.643933 0.130826 0.484443 -0.041495
C28   C     C_R   0.435824 0.988109 0.508805 -0.041799
C29   C     C_R   0.391726 0.068617 0.453615 -0.069769
C30   C     C_R   0.472438 0.175175 0.407223 0.328417
C31   C     C_R   0.595074 0.198561 0.413102 0.113790
C32   C     C_R   0.353341 0.869410 0.527217 0.326472
C33   C     C_R   0.186006 0.921003 0.460669 -0.140114
C34   C     C_R   0.770832 0.163238 0.509067 -0.240493
H3    H     H_    0.553547 0.900614 0.662271 0.202032
C35   C     C_R   0.335988 0.316678 0.643487 -0.281241
H4    H     H_    0.517905 0.270042 0.671203 0.158783
H5    H     H_    0.333257 0.246655 0.701223 0.171332
N1    N     N_R   0.246280 0.438190 0.553160 -0.193831
C36   C     C_R   0.755057 0.643627 0.370250 0.458118
C37   C     C_R   0.653206 0.663724 0.335299 -0.253605
C38   C     C_R   0.546692 0.602283 0.377404 0.151330
C39   C     C_R   0.544157 0.524239 0.462870 -0.003791
C40   C     C_R   0.648834 0.498165 0.495013 0.162498
C41   C     C_R   0.439730 0.467352 0.515533 0.032020
C42   C     C_R   0.433152 0.374853 0.589606 0.107693
C43   C     C_R   0.525509 0.341967 0.613814 -0.283575
C44   C     C_R   0.633126 0.403069 0.573788 0.189643
C45   C     C_R   0.341499 0.498701 0.500847 0.092438
C46   C     C_R   0.242899 0.350505 0.624609 0.399747
N2    N     N_R   0.754320 0.561190 0.447410 -0.269962
H6    H     H_    0.339521 0.572887 0.451519 0.205377
H7    H     H_    0.655684 0.724386 0.270583 0.200931
N3    N     N_R   0.123420 0.711326 0.203245 0.146712
O9    O     O_R   0.095048 0.742778 0.266758 -0.271333
O10   O     O_R   0.232316 0.768174 0.178005 -0.306553
N4    N     N_R   0.427997 0.252950 0.343725 0.114422
O11   O     O_R   0.437674 0.273991 0.255557 -0.276748
O12   O     O_R   0.376854 0.302307 0.374001 -0.404846
N5    N     N_R   0.397674 0.782312 0.565051 0.105210
O13   O     O_R   0.367282 0.714921 0.644649 -0.384213
O14   O     O_R   0.466742 0.769017 0.519137 -0.357179
N6    N     N_R   0.928861 0.088449 0.555599 0.136975
O15   O     O_R   0.978113 0.029705 0.618787 -0.299183
O16   O     O_R   0.978210 0.139944 0.478369 -0.345416
N7    N     N_3   0.769702 0.905896 0.686978 -0.451526
H8    H     H_    0.718310 0.822973 0.672171 0.261791
H9    H     H_    0.751602 0.905083 0.752171 0.239931
N8    N     N_3   0.662591 0.282593 0.339352 -0.472695
H10   H     H_    0.743419 0.278337 0.338527 0.218852
H11   H     H_    0.678912 0.365245 0.345891 0.262590
N9    N     N_3   0.145889 0.296274 0.681862 -0.498463
H12   H     H_    0.109729 0.207243 0.685758 0.259630
H13   H     H_    0.182237 0.311877 0.748661 0.210655
N10   N     N_3   0.970321 0.298485 0.274072 -0.458709
H14   H     H_    0.912330 0.278106 0.323270 0.229076
H15   H     H_    0.057752 0.318882 0.307308 0.269765
N11   N     N_R   0.855234 0.703089 0.316593 0.172775
O17   O     O_R   0.929512 0.807692 0.326730 -0.301687
O18   O     O_R   0.842498 0.675634 0.236787 -0.291441
N12   N     N_3   0.438715 0.609756 0.326755 -0.565081
H16   H     H_    0.387389 0.533368 0.301220 0.263518
H17   H     H_    0.458253 0.677786 0.269541 0.264396
N13   N     N_3   0.722019 0.363584 0.620838 -0.488487
H18   H     H_    0.687988 0.274647 0.623022 0.199135
H19   H     H_    0.737139 0.374176 0.689685 0.210004
N14   N     N_R   0.852174 0.179847 0.141695 0.140388
O19   O     O_R   0.899949 0.106070 0.165377 -0.282847
O20   O     O_R   0.752323 0.155245 0.174013 -0.304747
N15   N     N_3   0.855917 0.177027 0.958845 -0.591370
H20   H     H_    0.766995 0.130865 0.976097 0.268628
H21   H     H_    0.906262 0.130548 0.993391 0.290294
N16   N     N_3   0.932823 0.293826 0.793056 -0.579259
H22   H     H_    0.840335 0.240567 0.792675 0.243127
H23   H     H_    0.985241 0.250997 0.831423 0.269089
N17   N     N_3   0.080912 0.711717 0.728182 -0.496227
H24   H     H_    0.156087 0.717301 0.703216 0.225242
H25   H     H_    0.014897 0.712560 0.672896 0.246455
N18   N     N_R   0.065796 0.813324 0.848800 0.177643
O21   O     O_R   0.173869 0.894040 0.835699 -0.281740
O22   O     O_R   0.972065 0.829905 0.804891 -0.297856
N19   N     N_R   0.056588 0.809575 0.031649 0.178190
O23   O     O_R   0.967740 0.804528 0.067890 -0.248572
O24   O     O_R   0.148981 0.908369 0.013112 -0.229806

loop_
_geom_bond_atom_site_label_1
_geom_bond_atom_site_label_2
_geom_bond_distance
_ccdc_geom_bond_type
N3    O10   1.301466 A    
C39   C40   1.456220 A    
N12   H16   1.045536 S    
C8    C11   1.413292 A    
H1    C33   1.078799 S    
C36   N11   1.423199 S    
N18   O21   1.301243 A    
N1    C45   1.365976 A    
N10   H14   1.040512 S    
N19   O23   1.300808 A    
C41   C42   1.407773 A    
Cu1   Cu2   2.725746 S    
C37   C38   1.388288 A    
Cu1   O7    1.959314 S    
N16   H23   1.045038 S    
C23   N6    1.445121 S    
C16   C17   1.397818 A    
C19   C20   1.398366 A    
C18   C19   1.394817 A    
N9    H13   1.045552 S    
O4    C2    1.302040 A    
C11   N14   1.436538 S    
O7    C4    1.297721 A    
N7    H9    1.046384 S    
C5    C6    1.400275 A    
N17   H24   1.045663 S    
C8    C9    1.418716 A    
C29   C30   1.406754 A    
N4    O12   1.300375 A    
O5    C3    1.305131 A    
C38   N12   1.437206 S    
N11   O18   1.301089 A    
C23   C24   1.404596 A    
C6    C7    1.403306 A    
N13   H19   1.047872 S    
C13   C14   1.429225 A    
C21   H2    1.081022 S    
C32   N5    1.436450 S    
C25   H3    1.078949 S    
C37   H7    1.084161 S    
C35   H5    1.085321 S    
N3    O9    1.299418 A    
C43   C44   1.383662 A    
N12   H17   1.045923 S    
C7    N10   1.438536 S    
C11   C12   1.402108 A    
N4    O11   1.301046 A    
N1    C46   1.351743 A    
O3    Cu1   1.964902 S    
N8    H11   1.044977 S    
N8    H10   1.037931 S    
C5    C10   1.411268 A    
C22   C32   1.422124 A    
C14   C15   1.426394 A    
N5    O14   1.301644 A    
N7    H8    1.046472 S    
C27   C31   1.432247 A    
C42   C43   1.359777 A    
C5    N3    1.442348 S    
O6    C3    1.321936 A    
C30   N4    1.437214 S    
C40   C44   1.456213 A    
O1    C1    1.320321 A    
C45   H6    1.072075 S    
N6    O15   1.301104 A    
C25   C26   1.408807 A    
C35   C46   1.378018 A    
N14   O19   1.301112 A    
C18   N16   1.438283 S    
Cu2   O8    1.964902 S    
N13   H18   1.047957 S    
C7    C8    1.409462 A    
C40   N2    1.422123 A    
N18   O22   1.300767 A    
C22   C33   1.396004 A    
C13   C18   1.420586 A    
N9    H12   1.042748 S    
N15   H21   1.044970 S    
N6    O16   1.301437 A    
C27   C34   1.433758 A    
C44   N13   1.419101 S    
O3    C2    1.304069 A    
C28   C29   1.417269 A    
N14   O20   1.301262 A    
O8    C4    1.311401 A    
C39   C41   1.454899 A    
C31   N8    1.438476 S    
C4    C6    1.452873 S    
C30   C31   1.405447 A    
C36   C37   1.386040 A    
C15   C20   1.410377 A    
Cu1   O5    1.933570 S    
C46   N9    1.428627 S    
C38   C39   1.419557 A    
C24   C25   1.393182 A    
C21   C29   1.405705 A    
C20   N17   1.438468 S    
O1    Cu1   1.950701 S    
O2    Cu2   1.933571 S    
N5    O13   1.302319 A    
C36   N2    1.368338 A    
C12   N15   1.435225 S    
O4    Cu2   1.959316 S    
N19   O24   1.301037 A    
C35   C42   1.397280 A    
C41   C45   1.422767 A    
C10   C17   1.412571 A    
N16   H22   1.044749 S    
C1    C34   1.484287 S    
H4    C43   1.087888 S    
C9    C10   1.421214 A    
N10   H15   1.045339 S    
C9    C14   1.415691 A    
C15   C16   1.419451 A    
Cu1   N1    2.054275 S    
C3    C22   1.483715 S    
C24   N7    1.431869 S    
C26   C28   1.423341 A    
N11   O17   1.298793 A    
C26   C27   1.416451 A    
N17   H25   1.045135 S    
O2    C1    1.307584 A    
N15   H20   1.045726 S    
Cu2   N2    2.042407 S    
C17   N19   1.438377 S    
C28   C32   1.424231 A    
C2    C19   1.449581 S    
Cu2   O6    1.950700 S    
C21   C33   1.386847 A    
C12   C13   1.421196 A    
C23   C34   1.416404 A    
C16   N18   1.433149 S    
