data_mof_unit_39781.cif
_audit_creation_date              2012-12-10T17:01:28-0500
_audit_creation_method            fapswitch 2.2
_symmetry_space_group_name_H-M    P1
_symmetry_Int_Tables_number       1
_space_group_crystal_system       triclinic
_cell_length_a                    12.888328
_cell_length_b                    10.743593
_cell_length_c                    10.005657
_cell_angle_alpha                 89.91184
_cell_angle_beta                  97.182218
_cell_angle_gamma                 89.961833
_cell_volume                      1374.57978609

loop_
_atom_site_label
_atom_site_type_symbol
_atom_type_description
_atom_site_fract_x
_atom_site_fract_y
_atom_site_fract_z
_atom_type_partial_charge
C1    C     C_R   0.503201 0.262632 0.500492 0.934011
C2    C     C_2   0.515692 0.131310 0.502916 -0.328175
C3    C     C_2   0.567271 0.564002 0.934017 0.509544
C4    C     C_R   0.298173 0.501364 0.473517 0.913207
C5    C     C_2   0.575000 0.547278 0.086429 -0.292579
C6    C     C_R   0.498531 0.737398 0.499584 0.930566
C7    C     C_R   0.701832 0.500396 0.526393 0.917012
C8    C     C_R   0.813899 0.505280 0.541864 -0.149870
C9    C     C_R   0.186030 0.504708 0.457015 -0.151001
C10   C     C_R   0.020483 0.475697 0.320040 0.543467
C11   C     C_R   0.128846 0.478383 0.332238 -0.285622
C12   C     C_R   0.028813 0.525812 0.560774 -0.004433
C13   C     C_R   0.136261 0.531515 0.569414 -0.240979
C14   C     C_3   0.660574 0.749316 0.948904 0.067764
C15   C     C_3   0.699247 0.845934 0.855477 -0.809310
C16   C     C_3   0.946680 0.553385 0.119983 -0.290730
C17   C     C_3   0.031713 0.705128 0.819279 -0.393464
C18   C     C_R   0.970621 0.495301 0.435588 -0.009943
C19   C     C_R   0.863664 0.484488 0.428128 -0.250120
C20   C     C_R   0.870662 0.535901 0.665682 -0.284427
C21   C     C_R   0.978612 0.548476 0.675480 0.555671
C22   C     C_2   0.513161 0.932947 0.390323 -0.158457
C23   C     C_2   0.491182 0.869080 0.497815 -0.338781
C24   C     C_2   0.507081 0.066890 0.388149 -0.154474
H1    H     H_    0.818719 0.459686 0.333038 0.215314
H2    H     H_    0.464896 0.912143 0.585542 0.146952
H3    H     H_    0.495218 0.112344 0.290324 0.175181
H4    H     H_    0.723599 0.732785 0.033527 0.129415
H5    H     H_    0.590162 0.788419 0.988371 0.132853
H6    H     H_    0.636760 0.867500 0.771850 0.255715
H7    H     H_    0.720913 0.932738 0.912283 0.207776
H8    H     H_    0.768801 0.810107 0.812592 0.244341
H9    H     H_    0.021608 0.595374 0.098019 0.184375
H10   H     H_    0.900300 0.622598 0.170338 0.133510
H11   H     H_    0.900737 0.528878 0.022337 0.223501
H12   H     H_    0.534751 0.088768 0.601262 0.149164
H13   H     H_    0.951510 0.735547 0.834158 0.167641
H14   H     H_    0.059893 0.757821 0.734853 0.173232
H15   H     H_    0.084310 0.728331 0.912238 0.197627
H16   H     H_    0.455229 0.436391 0.892241 0.112315
H17   H     H_    0.645334 0.578757 0.147712 0.174296
H18   H     H_    0.431189 0.481467 0.091030 0.159109
H19   H     H_    0.831618 0.551929 0.753943 0.196474
H20   H     H_    0.167783 0.457671 0.244947 0.185332
H21   H     H_    0.181645 0.554606 0.664746 0.215361
H22   H     H_    0.533751 0.886724 0.300712 0.167290
N1    N     N_2   0.501130 0.501330 0.852280 -0.213563
N2    N     N_2   0.501160 0.501360 0.147950 -0.203759
O1    O     O_R   0.499980 0.319060 0.613040 -0.622781
O2    O     O_3   0.964353 0.444195 0.197841 -0.612321
O3    O     O_3   0.035389 0.575507 0.798587 -0.616875
O4    O     O_R   0.500020 0.319100 0.386900 -0.608891
O5    O     O_R   0.346340 0.499960 0.594380 -0.627190
O6    O     O_R   0.346380 0.500000 0.368250 -0.623628
O7    O     O_R   0.499980 0.680900 0.613100 -0.585096
O8    O     O_R   0.500020 0.680940 0.386960 -0.615636
O9    O     O_R   0.653620 0.500000 0.631750 -0.572330
O10   O     O_R   0.653660 0.500040 0.405620 -0.630626
O11   O     O_3   0.638330 0.637873 0.876290 -0.574027
Zn1   Zn    Zn3+2 0.499980 0.499970 0.650990 0.989693
Zn2   Zn    Zn3+2 0.500020 0.500030 0.349010 0.941378

loop_
_geom_bond_atom_site_label_1
_geom_bond_atom_site_label_2
_ccdc_geom_bond_type
H16   N1    S    
C15   H7    S    
O6    Zn2   S    
C16   H9    S    
C3    O11   S    
C7    O10   A    
C24   H3    S    
C6    O7    A    
C17   H14   S    
C14   H4    S    
C17   O3    S    
O10   Zn2   S    
N1    Zn1   S    
C15   H8    S    
C17   H13   S    
O7    Zn1   S    
C12   C13   A    
C13   H21   S    
C14   O11   S    
C9    C11   A    
N2    Zn2   S    
C8    C20   A    
O1    Zn1   S    
C10   C18   A    
C6    C23   S    
C3    N1    D    
C22   H22   S    
O5    Zn1   S    
C16   O2    S    
C1    C2    S    
C4    O6    A    
O4    Zn2   S    
C22   C23   D    
C16   H11   S    
C2    C24   D    
C5    N2    D    
C19   H1    S    
C1    O4    A    
C22   C24   S    
C4    O5    A    
C7    C8    S    
C10   C11   A    
C14   H5    S    
C2    H12   S    
C8    C19   A    
C11   H20   S    
C21   O3    S    
C20   H19   S    
H18   N2    S    
C20   C21   A    
C15   H6    S    
C18   C19   A    
C17   H15   S    
C23   H2    S    
C12   C18   A    
C9    C13   A    
O8    Zn2   S    
O9    Zn1   S    
C5    H17   S    
C16   H10   S    
C4    C9    S    
C14   C15   S    
C1    O1    A    
C12   C21   A    
C7    O9    A    
C6    O8    A    
C3    C5    S    
C10   O2    S    
