data_mof_unit_30808.cif
_audit_creation_date              2012-12-10T19:01:20-0500
_audit_creation_method            fapswitch 2.2
_symmetry_space_group_name_H-M    P1
_symmetry_Int_Tables_number       1
_space_group_crystal_system       triclinic
_cell_length_a                    9.560313
_cell_length_b                    10.797231
_cell_length_c                    15.538648
_cell_angle_alpha                 90.213188
_cell_angle_beta                  73.94786
_cell_angle_gamma                 89.818516
_cell_volume                      1541.41188178

loop_
_atom_site_label
_atom_site_type_symbol
_atom_type_description
_atom_site_fract_x
_atom_site_fract_y
_atom_site_fract_z
_atom_type_partial_charge
C1    C     C_R   0.999791 0.262440 0.500903 0.850059
C2    C     C_R   0.677487 0.531118 0.911016 -0.013212
C3    C     C_R   0.781683 0.510439 0.958797 0.088364
C4    C     C_R   0.531989 0.562358 0.958963 0.069100
C5    C     C_R   0.485388 0.544222 0.052938 0.063154
C6    C     C_R   0.591558 0.518259 0.098364 -0.225954
C7    C     C_R   0.737447 0.504723 0.051903 -0.195942
C8    C     C_R   0.433684 0.616186 0.916551 -0.165132
C9    C     C_R   0.288319 0.634509 0.962313 -0.247519
C10   C     C_R   0.236509 0.600104 0.051771 0.098085
C11   C     C_R   0.334450 0.554553 0.098029 0.088913
C12   C     C_R   0.917259 0.499248 0.672267 0.820091
C13   C     C_R   0.087536 0.610764 0.095426 -0.330406
C14   C     C_R   0.033007 0.575508 0.184958 0.487819
C15   C     C_R   0.277448 0.517198 0.187083 -0.340580
C16   C     C_R   0.124300 0.062890 0.463193 -0.088746
C17   C     C_R   0.998667 0.128994 0.506417 -0.215740
C18   C     C_R   0.874631 0.065154 0.557260 0.501634
C19   C     C_R   0.877948 0.934719 0.558112 -0.314793
C20   C     C_R   0.999045 0.870459 0.505181 -0.159904
C21   C     C_R   0.123452 0.935743 0.461328 -0.005684
C22   C     C_3   0.214472 0.926903 0.366031 0.865549
C23   C     C_R   0.999626 0.737381 0.500709 0.870992
C24   C     C_3   0.215065 0.070385 0.368019 0.216774
C25   C     C_R   0.567577 0.607502 0.512009 0.262648
C26   C     C_R   0.584828 0.396411 0.477338 -0.059398
C27   C     C_R   0.436179 0.396245 0.477919 -0.115308
C28   C     C_R   0.420331 0.607354 0.512151 0.319924
C29   C     C_3   0.377375 0.689231 0.592594 -0.499930
C30   C     C_3   0.536293 0.690174 0.592228 -0.519553
C31   C     C_R   0.082238 0.504514 0.328049 0.819440
C32   C     C_R   0.870098 0.501759 0.771026 -0.140072
C33   C     C_R   0.129097 0.528462 0.231194 -0.115607
C34   C     C_R   0.928695 0.493064 0.912824 -0.218263
C35   C     C_R   0.973256 0.494046 0.819703 -0.268319
C36   C     C_R   0.720588 0.511239 0.817334 0.402533
Cu1   Cu    Cu3+1 0.140670 0.499980 0.500000 0.959713
Cu2   Cu    Cu3+1 0.859330 0.500020 0.500000 0.984598
H1    H     H_    0.815498 0.485311 0.088919 0.189465
H2    H     H_    0.012995 0.646413 0.060081 0.152520
H3    H     H_    0.786993 0.883667 0.599271 0.153661
H4    H     H_    0.647052 0.311746 0.460878 0.157259
H5    H     H_    0.388640 0.311203 0.463181 0.202455
H6    H     H_    0.337567 0.781070 0.577090 0.216764
H7    H     H_    0.346688 0.476383 0.223369 0.162495
H8    H     H_    0.305419 0.641975 0.651857 0.207579
H9    H     H_    0.586817 0.782544 0.575848 0.189167
H10   H     H_    0.215657 0.673964 0.927014 0.149653
N1    N     N_R   0.648210 0.500930 0.499430 -0.181125
N2    N     N_R   0.352300 0.500890 0.499430 -0.197258
O1    O     O_R   0.118810 0.319640 0.500000 -0.581740
O2    O     O_R   0.881230 0.319680 0.499990 -0.564982
O3    O     O_R   0.055580 0.499970 0.629840 -0.599881
O4    O     O_R   0.818000 0.500010 0.629830 -0.522232
O5    O     O_R   0.118770 0.680320 0.500010 -0.563892
O6    O     O_R   0.881190 0.680360 0.500000 -0.598216
O7    O     O_R   0.182000 0.499990 0.370170 -0.588945
O8    O     O_R   0.944420 0.500030 0.370160 -0.542806
O9    O     O_3   0.757039 0.131980 0.609574 -0.585171
C37   C     C_3   0.625778 0.092808 0.593357 -0.324454
H11   H     H_    0.637464 0.075754 0.520888 0.169070
H12   H     H_    0.543445 0.167373 0.615569 0.182851
H13   H     H_    0.583211 0.009278 0.633396 0.162597
O10   O     O_3   0.348089 0.868385 0.364902 -0.568633
C38   C     C_3   0.436515 0.851033 0.276710 -0.233548
H14   H     H_    0.458933 0.939670 0.239661 0.153351
H15   H     H_    0.388729 0.781639 0.240136 0.193209
H16   H     H_    0.542742 0.813956 0.279906 0.152765
O11   O     O_3   0.134371 0.864240 0.314063 -0.635172
C39   C     C_3   0.141754 0.922585 0.231661 -0.484961
H17   H     H_    0.245836 0.971388 0.201997 0.157330
H18   H     H_    0.049058 0.988060 0.240416 0.181556
H19   H     H_    0.130743 0.850829 0.182771 0.216783
O12   O     O_3   0.354204 0.118408 0.364227 -0.551725
C40   C     C_3   0.397360 0.202744 0.292871 -0.363217
H20   H     H_    0.324017 0.284755 0.304933 0.179342
H21   H     H_    0.399848 0.158398 0.227736 0.147654
H22   H     H_    0.508868 0.235443 0.288808 0.190624
H23   H     H_    0.152838 0.118383 0.326666 0.032105
H24   H     H_    0.556761 0.644808 0.651630 0.252607
O13   O     O_3   0.884772 0.579142 0.224987 -0.592190
C41   C     C_3   0.845014 0.699965 0.257102 -0.287312
H25   H     H_    0.852193 0.765236 0.200829 0.145427
H26   H     H_    0.730760 0.697646 0.299055 0.177607
H27   H     H_    0.911211 0.733433 0.301104 0.212213
H28   H     H_    0.009524 0.479138 0.948873 0.156266
H29   H     H_    0.088118 0.484115 0.785869 0.178286
O14   O     O_3   0.616946 0.493078 0.771553 -0.605634
C42   C     C_3   0.575300 0.367469 0.778963 -0.260442
H30   H     H_    0.496805 0.352201 0.739119 0.183865
H31   H     H_    0.670195 0.305045 0.751478 0.198426
H32   H     H_    0.519884 0.342742 0.849590 0.149801
H33   H     H_    0.566429 0.512977 0.170287 0.158878
H34   H     H_    0.468481 0.649199 0.848466 0.190581

loop_
_geom_bond_atom_site_label_1
_geom_bond_atom_site_label_2
_ccdc_geom_bond_type
C16   C21   A    
C19   C20   A    
C4    C8    A    
C14   C33   A    
O13   C41   S    
C23   O6    A    
Cu2   N1    S    
C36   O14   S    
C25   C28   A    
C26   C27   A    
Cu1   Cu2   S    
C37   H13   S    
C32   C36   A    
C31   O8    A    
C28   C29   S    
C5    C11   A    
C3    C7    A    
C5    C6    A    
Cu1   O1    S    
Cu2   O2    S    
C35   H29   S    
C37   H12   S    
C34   C35   A    
C34   H28   S    
C13   H2    S    
Cu2   O8    S    
C11   C15   A    
C8    C9    A    
C38   H15   S    
C31   C33   S    
C39   H17   S    
C42   H31   S    
C9    C10   A    
C22   O11   S    
C12   O3    A    
C27   N2    A    
Cu1   O3    S    
C6    H33   S    
O9    C37   S    
C16   C24   S    
C21   C22   S    
C12   C32   S    
C28   N2    A    
C1    O2    A    
Cu1   O7    S    
O12   C40   S    
C32   C35   A    
C30   H9    S    
C8    H34   S    
C26   N1    A    
C18   C19   A    
C3    C34   A    
C37   H11   S    
C2    C4    A    
C40   H20   S    
C29   C30   S    
C1    O1    A    
C24   H23   S    
Cu2   O4    S    
C20   C23   S    
C38   H16   S    
C39   H19   S    
C17   C18   A    
C20   C21   A    
C42   H32   S    
C40   H21   S    
C38   H14   S    
C41   H26   S    
C29   H6    S    
C22   C24   S    
C15   H7    S    
C26   H4    S    
C2    C36   A    
C25   C30   S    
C4    C5    A    
C10   C13   A    
C23   O5    A    
C6    C7    A    
C41   H27   S    
C1    C17   S    
C29   H8    S    
O10   C38   S    
C31   O7    A    
C2    C3    A    
C30   H24   S    
Cu1   N2    S    
C24   O12   S    
C16   C17   A    
O11   C39   S    
C40   H22   S    
C25   N1    A    
C10   C11   A    
C22   O10   S    
Cu1   O5    S    
C27   H5    S    
C18   O9    S    
Cu2   O6    S    
O14   C42   S    
C9    H10   S    
C41   H25   S    
C7    H1    S    
C39   H18   S    
C14   O13   S    
C42   H30   S    
C13   C14   A    
C15   C33   A    
C12   O4    A    
C19   H3    S    
