data_mof_unit_33105.cif
_audit_creation_date              2013-03-05T15:53:17-0500
_audit_creation_method            fapswitch 2.2
_symmetry_space_group_name_H-M    P1
_symmetry_Int_Tables_number       1
_space_group_crystal_system       triclinic
_cell_length_a                    11.504631
_cell_length_b                    10.729727
_cell_length_c                    9.955487
_cell_angle_alpha                 89.032279
_cell_angle_beta                  88.111391
_cell_angle_gamma                 93.4253
_cell_volume                      1225.83990791

loop_
_atom_site_label
_atom_site_type_symbol
_atom_site_description
_atom_site_fract_x
_atom_site_fract_y
_atom_site_fract_z
_atom_type_partial_charge
O1    O     O_R   0.500000 0.316780 0.614690 -0.626432
O2    O     O_R   0.499990 0.316750 0.385360 -0.593715
C1    C     C_R   0.509255 0.260401 0.501436 0.922630
O3    O     O_R   0.334450 0.500030 0.614670 -0.506437
O4    O     O_R   0.334440 0.500000 0.385330 -0.679512
C2    C     C_R   0.282183 0.500557 0.501541 0.964444
Zn1   Zn    Zn3+2 0.500010 0.500020 0.653130 1.053610
Zn2   Zn    Zn3+2 0.499990 0.499980 0.346870 0.934687
O5    O     O_R   0.500010 0.683250 0.614640 -0.561799
O6    O     O_R   0.500000 0.683220 0.385310 -0.647773
O7    O     O_R   0.665560 0.500000 0.614670 -0.612785
O8    O     O_R   0.665550 0.499970 0.385330 -0.621639
C3    C     C_R   0.489723 0.738749 0.499356 0.916480
C4    C     C_R   0.717888 0.500653 0.498189 0.877723
C5    C     C_1   0.161605 0.501094 0.503765 -0.037671
C6    C     C_1   0.059369 0.501263 0.501566 0.035925
C7    C     C_1   0.940789 0.501133 0.497175 -0.008591
C8    C     C_1   0.838506 0.500900 0.495275 -0.190780
C9    C     C_R   0.530742 0.100466 0.756002 -0.213452
H1    H     H_    0.582511 0.186680 0.767855 0.172173
C10   C     C_R   0.505254 0.026379 0.871576 -0.307176
H2    H     H_    0.535408 0.057396 0.967870 0.189006
C11   C     C_R   0.437596 0.914236 0.863884 0.513093
C12   C     C_R   0.403414 0.872595 0.737192 0.307355
C13   C     C_R   0.454835 0.933423 0.619734 -0.053943
C14   C     C_R   0.500394 0.056423 0.627707 0.056346
C15   C     C_R   0.519294 0.126368 0.505375 -0.219738
C16   C     C_R   0.530477 0.064390 0.382140 0.449241
H3    H     H_    0.525779 0.890259 0.286303 0.190893
C17   C     C_R   0.509741 0.937211 0.380076 -0.316583
C18   C     C_R   0.475373 0.871156 0.498076 -0.130175
H4    H     H_    0.611671 0.659602 0.119572 0.157652
C19   C     C_R   0.365949 0.319684 0.155155 -0.092507
H5    H     H_    0.348032 0.327288 0.259545 0.226091
C20   C     C_R   0.313968 0.215802 0.098963 -0.397121
H6    H     H_    0.268909 0.145332 0.163727 0.163070
C21   C     C_R   0.307737 0.209811 0.961037 0.420907
C22   C     C_R   0.354233 0.310569 0.879738 0.305381
C23   C     C_R   0.430764 0.408133 0.934285 -0.120249
C24   C     C_R   0.433709 0.409492 0.078436 0.119725
N1    N     N_R   0.498930 0.498800 0.142780 -0.136950
C25   C     C_R   0.563034 0.587246 0.067387 -0.195215
C26   C     C_R   0.566001 0.586201 0.923214 0.614608
N2    N     N_R   0.498900 0.498720 0.857170 -0.136586
O9    O     O_3   0.562016 0.126959 0.262464 -0.595818
C27   C     C_3   0.684798 0.143412 0.252652 0.117429
H7    H     H_    0.723301 0.052289 0.233779 0.130720
H8    H     H_    0.721579 0.184480 0.345512 0.120124
C28   C     C_3   0.720237 0.232641 0.136003 -0.809238
H9    H     H_    0.682899 0.324400 0.152646 0.270138
H10   H     H_    0.816669 0.246518 0.128196 0.199565
H11   H     H_    0.688719 0.194156 0.040205 0.233988
O10   O     O_3   0.242258 0.113517 0.902685 -0.604007
C29   C     C_3   0.123650 0.114496 0.945063 0.104136
H12   H     H_    0.093256 0.211053 0.951769 0.177589
H13   H     H_    0.109535 0.066508 0.044605 0.112011
C30   C     C_3   0.049416 0.044298 0.844086 -0.753967
H14   H     H_    0.073245 0.945619 0.839262 0.259439
H15   H     H_    0.955925 0.046467 0.874776 0.187902
H16   H     H_    0.063159 0.088897 0.742873 0.288199
N3    N     N_R   0.282307 0.332051 0.770110 0.243278
O11   O     O_R   0.275619 0.250673 0.674612 -0.399987
O12   O     O_R   0.192612 0.398028 0.793772 -0.405869
O13   O     O_3   0.626608 0.679521 0.846578 -0.584123
C31   C     C_3   0.742247 0.703427 0.888097 0.088883
H17   H     H_    0.801585 0.697057 0.798491 0.185121
H18   H     H_    0.771886 0.635178 0.963506 0.104124
C32   C     C_3   0.757038 0.835765 0.940905 -0.859791
H19   H     H_    0.694826 0.848882 0.026363 0.256660
H20   H     H_    0.847142 0.853548 0.975612 0.214282
H21   H     H_    0.741044 0.904348 0.859757 0.263132
O14   O     O_3   0.420254 0.836416 0.975861 -0.599940
C33   C     C_3   0.324847 0.873889 0.054299 0.104963
H22   H     H_    0.249053 0.892313 0.991835 0.189615
H23   H     H_    0.351767 0.957839 0.111787 0.164685
C34   C     C_3   0.284979 0.769411 0.153379 -0.759760
H24   H     H_    0.212929 0.799889 0.219660 0.201560
H25   H     H_    0.253844 0.685162 0.098638 0.278281
H26   H     H_    0.358106 0.745000 0.216070 0.279046
N4    N     N_R   0.312611 0.774910 0.726468 0.204222
O15   O     O_R   0.243623 0.775811 0.625494 -0.446065
O16   O     O_R   0.293204 0.689649 0.820299 -0.344739

loop_
_geom_bond_atom_site_label_1
_geom_bond_atom_site_label_2
_geom_bond_distance
_ccdc_geom_bond_type
C13   C18   1.412962 A    
C33   H22   1.112801 S    
C4    C8    1.386859 S    
C20   H6    1.082053 S    
C34   H26   1.105144 S    
O10   C29   1.415622 S    
Zn1   O7    1.930299 S    
C27   C28   1.521862 S    
C14   C15   1.423345 A    
C21   C22   1.408121 A    
C9    C10   1.400281 A    
C34   H25   1.110526 S    
C22   C23   1.451401 A    
O7    C4    1.288566 A    
C30   H15   1.110103 S    
C5    C6    1.177209 T    
N1    C25   1.365169 A    
N3    O12   1.303214 A    
C9    C14   1.416549 A    
O5    C3    1.296199 A    
C2    C5    1.387011 S    
C29   H12   1.115426 S    
C12   N4    1.442766 S    
C9    H1    1.080205 S    
C6    C7    1.366279 S    
C28   H10   1.110498 S    
C32   H19   1.109877 S    
C11   C12   1.405649 A    
C22   N3    1.415211 S    
C21   O10   1.388729 S    
C28   H11   1.108953 S    
C10   H2    1.081213 S    
C33   H23   1.109327 S    
O3    Zn1   1.955149 S    
C26   O13   1.388008 S    
C7    C8    1.177363 T    
C27   H8    1.115846 S    
C34   H24   1.110432 S    
C29   H13   1.111628 S    
C16   O9    1.384652 S    
C19   C24   1.402051 A    
C12   C13   1.423309 A    
O3    C2    1.294178 A    
C23   C24   1.436915 A    
O14   C33   1.408208 S    
C30   H16   1.110620 S    
C31   H18   1.115472 S    
C13   C14   1.395136 A    
O9    C27   1.412996 S    
O1    C1    1.292811 A    
C26   N2    1.370045 A    
H3    C17   1.083978 S    
C17   C18   1.395158 A    
Zn2   O8    1.955147 S    
C31   C32   1.524418 S    
C19   H5    1.058270 S    
Zn1   N2    2.030744 S    
Zn2   N1    2.032502 S    
N4    O16   1.300906 A    
C24   N1    1.363115 A    
O8    C4    1.292034 A    
C28   H9    1.110252 S    
C10   C11   1.398105 A    
C33   C34   1.520343 S    
C25   C26   1.434837 A    
Zn1   O5    1.996640 S    
C27   H7    1.113517 S    
C20   C21   1.379729 A    
O1    Zn1   2.009341 S    
C11   O14   1.383388 S    
C3    C18   1.439904 S    
O2    Zn2   1.996640 S    
N4    O15   1.301425 A    
O6    C3    1.296337 A    
O4    Zn2   1.930301 S    
C23   N2    1.411618 A    
O13   C31   1.416202 S    
C1    C15   1.449602 S    
O2    C1    1.305575 A    
C30   H14   1.110870 S    
O4    C2    1.286388 A    
C32   H21   1.110818 S    
C16   C17   1.371792 A    
C19   C20   1.369830 A    
N3    O11   1.302714 A    
Zn2   O6    2.009341 S    
C31   H17   1.110848 S    
C15   C16   1.411157 A    
C32   H20   1.110209 S    
H4    C25   1.080102 S    
C29   C30   1.520718 S    
