data_mof_unit_53122.cif
_audit_creation_date              2012-10-26T19:46:10-0400
_audit_creation_method            fapswitch 2.2
_symmetry_space_group_name_H-M    P1
_symmetry_Int_Tables_number       1
_space_group_crystal_system       triclinic
_cell_length_a                    10.81611
_cell_length_b                    9.646591
_cell_length_c                    15.884814
_cell_angle_alpha                 90.058752
_cell_angle_beta                  92.833425
_cell_angle_gamma                 90.023617
_cell_volume                      1655.37181648

loop_
_atom_site_label
_atom_site_type_symbol
_atom_type_description
_atom_site_fract_x
_atom_site_fract_y
_atom_site_fract_z
_atom_type_partial_charge
C1    C     C_R   0.262444 0.499980 0.499665 0.533930
C2    C     C_R   0.935941 0.625916 0.497396 -0.145595
C3    C     C_R   0.871566 0.500001 0.499507 0.017739
C4    C     C_R   0.128373 0.499959 0.499263 0.018481
C5    C     C_R   0.420880 0.074235 0.445353 0.144421
C6    C     C_R   0.420938 0.925524 0.445304 0.144717
C7    C     C_R   0.499607 0.499903 0.340583 0.531161
C8    C     C_R   0.577606 0.926309 0.553820 -0.005786
C9    C     C_R   0.577614 0.073959 0.553821 -0.008740
C10   C     C_R   0.737541 0.500014 0.500000 0.546818
C11   C     C_R   0.500529 0.500032 0.659478 0.543730
C12   C     C_3   0.647981 0.444307 0.955542 0.564759
C13   C     C_3   0.479733 0.646851 0.048107 -0.118931
C14   C     C_3   0.410877 0.389265 0.043761 -0.122361
C15   C     C_3   0.412176 0.389916 0.945713 0.114086
C16   C     C_3   0.474575 0.639513 0.949468 0.118226
C17   C     C_1   0.504093 0.499564 0.749048 -0.035228
C18   C     C_3   0.509522 0.495930 0.083825 0.001538
C19   C     C_3   0.514703 0.491966 0.917082 0.056232
C20   C     C_3   0.364722 0.720941 0.081390 -0.441377
C21   C     C_3   0.277249 0.402350 0.073993 -0.441143
C22   C     C_3   0.320325 0.199446 0.876020 -0.039831
C23   C     C_3   0.648736 0.459783 0.056827 0.522574
C24   C     C_3   0.338332 0.048602 0.851740 -0.360638
C25   C     C_3   0.636057 0.808941 0.931219 -0.000037
C26   C     C_3   0.620166 0.951086 0.969445 -0.411175
C27   C     C_3   0.787149 0.576117 0.158420 0.012900
C28   C     C_3   0.795710 0.722920 0.193143 -0.417198
C29   C     C_3   0.645589 0.225820 0.118317 -0.026504
C30   C     C_3   0.734966 0.122028 0.159982 -0.387843
C31   C     C_3   0.863946 0.493182 0.940342 0.037303
C32   C     C_3   0.943826 0.622447 0.952412 -0.400825
C33   C     C_3   0.695208 0.274642 0.849226 0.014820
C34   C     C_1   0.508959 0.496671 0.824601 0.015295
C35   C     C_3   0.800984 0.170984 0.843052 -0.413951
C36   C     C_3   0.330241 0.145487 0.382981 -0.339993
C37   C     C_3   0.330786 0.854038 0.382562 -0.340732
C38   C     C_1   0.505025 0.497986 0.175970 -0.056934
C39   C     C_1   0.501615 0.499369 0.251273 -0.061954
C40   C     C_R   0.063979 0.374029 0.501020 -0.147798
C41   C     C_R   0.063797 0.625891 0.497313 -0.146728
C42   C     C_R   0.936124 0.374047 0.501162 -0.146035
Cu1   Cu    Cu3+1 0.500020 0.640660 0.500000 0.923586
Cu2   Cu    Cu3+1 0.500020 0.359340 0.500000 0.912705
H1    H     H_    0.374258 0.646322 0.930967 0.134870
H2    H     H_    0.887861 0.724432 0.495917 0.127277
H3    H     H_    0.276377 0.683200 0.052357 0.126458
H4    H     H_    0.361963 0.713424 0.150932 0.141111
H5    H     H_    0.368962 0.832948 0.065609 0.127194
H6    H     H_    0.275566 0.434404 0.140949 0.145830
H7    H     H_    0.219332 0.474143 0.034949 0.114970
H8    H     H_    0.230058 0.300101 0.068527 0.118958
H9    H     H_    0.295355 0.258993 0.817617 0.133322
H10   H     H_    0.242655 0.204513 0.919428 0.121384
H11   H     H_    0.356396 0.984973 0.909226 0.178478
H12   H     H_    0.322119 0.433051 0.919646 0.079420
H13   H     H_    0.253149 0.009163 0.817897 0.098049
H14   H     H_    0.416880 0.038822 0.809659 0.169243
H15   H     H_    0.693618 0.818792 0.875576 0.159756
H16   H     H_    0.688628 0.746111 0.977274 0.219990
H17   H     H_    0.558513 0.945669 0.023019 0.135228
H18   H     H_    0.711978 0.990905 0.992326 0.117334
H19   H     H_    0.579955 0.023353 0.921582 0.214514
H20   H     H_    0.882344 0.536174 0.151029 0.149998
H21   H     H_    0.742598 0.510563 0.205615 0.171151
H22   H     H_    0.701420 0.763028 0.203461 0.151181
H23   H     H_    0.640368 0.871656 0.597291 0.112325
H24   H     H_    0.850347 0.723303 0.254203 0.109363
H25   H     H_    0.841474 0.791779 0.148114 0.138437
H26   H     H_    0.602305 0.175882 0.061889 0.185756
H27   H     H_    0.577441 0.250444 0.165750 0.124346
H28   H     H_    0.777431 0.166543 0.219119 0.155102
H29   H     H_    0.684460 0.025805 0.175344 0.092218
H30   H     H_    0.809621 0.096019 0.117101 0.155592
H31   H     H_    0.899840 0.436396 0.886039 0.119957
H32   H     H_    0.876500 0.426520 0.997101 0.193492
H33   H     H_    0.915837 0.682873 0.007722 0.168756
H34   H     H_    0.640355 0.128823 0.597317 0.104655
H35   H     H_    0.042441 0.592350 0.962587 0.075502
H36   H     H_    0.934190 0.688992 0.895444 0.143627
H37   H     H_    0.719977 0.367583 0.812591 0.148332
H38   H     H_    0.611206 0.228852 0.817278 0.170507
H39   H     H_    0.768216 0.063978 0.853069 0.129023
H40   H     H_    0.838011 0.175593 0.779120 0.092872
H41   H     H_    0.877022 0.194194 0.890447 0.148660
H42   H     H_    0.327959 0.257390 0.382558 0.198497
H43   H     H_    0.350917 0.116223 0.317596 0.086128
H44   H     H_    0.234032 0.115234 0.395715 0.079881
H45   H     H_    0.434535 0.284268 0.064707 0.153407
H46   H     H_    0.327700 0.742145 0.382568 0.197531
H47   H     H_    0.234495 0.885053 0.394430 0.078048
H48   H     H_    0.352689 0.882378 0.317278 0.086267
H49   H     H_    0.554008 0.717092 0.071701 0.186331
H50   H     H_    0.112057 0.275529 0.502574 0.127718
H51   H     H_    0.111719 0.724390 0.495882 0.127489
H52   H     H_    0.888196 0.275537 0.502777 0.126604
N1    N     N_R   0.500030 0.852070 0.500020 -0.223756
N2    N     N_R   0.500030 0.147930 0.500020 -0.222860
O1    O     O_R   0.319660 0.618740 0.500000 -0.519817
O2    O     O_3   0.519758 0.754967 0.903804 -0.568853
O3    O     O_3   0.723269 0.578688 0.078148 -0.598606
O4    O     O_3   0.713118 0.342920 0.095184 -0.563206
O5    O     O_3   0.739184 0.533077 0.921168 -0.579771
O6    O     O_3   0.672275 0.301602 0.935365 -0.536842
O7    O     O_R   0.319660 0.381260 0.500000 -0.520505
O8    O     O_R   0.500020 0.618840 0.379440 -0.510765
O9    O     O_R   0.500020 0.381160 0.379440 -0.510231
O10   O     O_R   0.680370 0.618830 0.500010 -0.505734
O11   O     O_R   0.680370 0.381170 0.500010 -0.505871
O12   O     O_R   0.500010 0.618730 0.620560 -0.481504
O13   O     O_R   0.500010 0.381270 0.620560 -0.502106
O14   O     O_3   0.430752 0.252977 0.915180 -0.559393

loop_
_geom_bond_atom_site_label_1
_geom_bond_atom_site_label_2
_ccdc_geom_bond_type
C8    C9    A    
C3    C42   A    
C9    N2    A    
C33   O6    S    
C14   C18   S    
C10   O10   A    
C28   H25   S    
C26   H19   S    
C1    O1    A    
C22   H10   S    
C23   O3    S    
Cu2   O7    S    
C36   H44   S    
C24   H11   S    
C15   C19   S    
C12   C23   S    
C29   C30   S    
C13   C18   S    
C42   H52   S    
C14   C21   S    
C28   H24   S    
C26   H17   S    
Cu1   O1    S    
C12   O6    S    
C16   C19   S    
C5    C6    A    
C30   H30   S    
C23   O4    S    
C4    C41   A    
C2    C41   A    
C5    C36   S    
C10   O11   A    
C32   H33   S    
Cu2   N2    S    
C4    C40   A    
C24   H13   S    
C25   H16   S    
C33   H38   S    
C13   C20   S    
C9    H34   S    
Cu2   O11   S    
C40   C42   A    
C11   O12   A    
C21   H6    S    
C22   H9    S    
C36   H43   S    
C38   C39   T    
C7    O8    A    
C37   H47   S    
C11   O13   A    
C18   C23   S    
C6    N1    A    
C12   O5    S    
C30   H29   S    
C35   H39   S    
C16   O2    S    
C36   H42   S    
C25   C26   S    
C27   O3    S    
C2    H2    S    
C13   H49   S    
Cu1   O8    S    
C31   O5    S    
C28   H22   S    
Cu1   Cu2   S    
C14   H45   S    
C20   H5    S    
C27   H21   S    
C32   H36   S    
C25   O2    S    
C31   H31   S    
C31   C32   S    
C6    C37   S    
C20   H4    S    
C37   H46   S    
Cu1   O12   S    
C22   O14   S    
C7    O9    A    
C17   C34   T    
C21   H7    S    
C29   H26   S    
Cu2   O9    S    
C11   C17   S    
C37   H48   S    
C15   O14   S    
Cu1   N1    S    
C40   H50   S    
C19   C34   S    
C16   H1    S    
C30   H28   S    
C35   H40   S    
C1    C4    S    
C15   H12   S    
C2    C3    A    
C26   H18   S    
C3    C10   S    
C32   H35   S    
C35   H41   S    
C31   H32   S    
C41   H51   S    
C8    N1    A    
C12   C19   S    
C33   C35   S    
C29   O4    S    
C22   C24   S    
Cu1   O10   S    
C18   C38   S    
C20   H3    S    
C27   H20   S    
Cu2   O13   S    
C5    N2    A    
C8    H23   S    
C24   H14   S    
C13   C16   S    
C27   C28   S    
C7    C39   S    
C14   C15   S    
C25   H15   S    
C33   H37   S    
C21   H8    S    
C1    O7    A    
C29   H27   S    
