data_mof_unit_45727.cif
_audit_creation_date              2012-12-10T19:47:24-0500
_audit_creation_method            fapswitch 2.2
_symmetry_space_group_name_H-M    P1
_symmetry_Int_Tables_number       1
_space_group_crystal_system       triclinic
_cell_length_a                    10.940635
_cell_length_b                    10.952194
_cell_length_c                    12.682662
_cell_angle_alpha                 91.637976
_cell_angle_beta                  91.373276
_cell_angle_gamma                 89.750225
_cell_volume                      1518.61920854

loop_
_atom_site_label
_atom_site_type_symbol
_atom_type_description
_atom_site_fract_x
_atom_site_fract_y
_atom_site_fract_z
_atom_type_partial_charge
C1    C     C_R   0.262125 0.493894 0.502077 0.851935
C2    C     C_R   0.738370 0.494709 0.498802 0.872865
C3    C     C_R   0.500305 0.871742 0.496939 -0.283910
C4    C     C_R   0.497699 0.128254 0.503187 -0.279784
C5    C     C_R   0.481518 0.935879 0.402986 -0.069455
C6    C     C_R   0.515652 0.064020 0.597236 -0.074161
C7    C     C_R   0.161918 0.458193 0.882037 0.385034
C8    C     C_R   0.846135 0.528259 0.126373 0.445496
C9    C     C_R   0.144413 0.430087 0.774773 0.496262
C10   C     C_R   0.875270 0.545456 0.233609 0.571746
C11   C     C_R   0.124621 0.524146 0.703566 -0.047224
C12   C     C_R   0.877858 0.445262 0.300361 -0.093595
C13   C     C_R   0.134299 0.646249 0.739051 -0.423776
C14   C     C_R   0.848152 0.328648 0.259419 -0.405607
C15   C     C_R   0.160918 0.675215 0.846492 0.422794
C16   C     C_R   0.823783 0.310554 0.151233 0.451737
C17   C     C_R   0.169712 0.579748 0.917686 0.520792
C18   C     C_R   0.821031 0.411123 0.085045 0.408078
C19   C     C_R   0.937838 0.489636 0.597486 0.424760
C20   C     C_R   0.064131 0.446689 0.410889 0.449980
C21   C     C_R   0.872311 0.481568 0.499458 -0.266794
C22   C     C_R   0.129235 0.479020 0.505222 -0.258142
C23   C     C_R   0.499020 0.261816 0.501622 0.855281
C24   C     C_R   0.500233 0.738176 0.498420 0.891622
C25   C     C_R   0.936903 0.457879 0.406058 -0.008060
C26   C     C_R   0.065131 0.496307 0.599641 0.004312
C27   C     C_2   0.460601 0.473264 0.031803 -0.150021
C28   C     C_2   0.540739 0.526080 0.968150 -0.104142
C29   C     C_1   0.527448 0.522139 0.852649 0.289609
C30   C     C_1   0.473151 0.477589 0.147334 0.309196
C31   C     C_R   0.663193 0.173625 0.853287 -0.278504
C32   C     C_R   0.324701 0.816107 0.153856 -0.197992
C33   C     C_R   0.648224 0.136851 0.747680 -0.338668
C34   C     C_R   0.343984 0.855650 0.258459 -0.320026
C35   C     C_R   0.530793 0.122820 0.702928 0.052058
C36   C     C_R   0.463062 0.876342 0.297947 0.023268
C37   C     C_R   0.428134 0.144199 0.765219 0.556235
C38   C     C_R   0.562986 0.856925 0.231931 0.587710
C39   C     C_R   0.442234 0.176222 0.872638 0.259915
C40   C     C_R   0.543586 0.819600 0.126259 0.249907
C41   C     C_R   0.561292 0.194235 0.915752 0.484633
C42   C     C_R   0.423954 0.797574 0.087863 0.474858
C43   C     C_R   0.517853 0.937271 0.593226 0.559817
C44   C     C_R   0.479708 0.062680 0.406888 0.571118
Cu1   Cu    Cu3+1 0.492140 0.492110 0.395880 1.053138
Cu2   Cu    Cu3+1 0.507860 0.507890 0.604120 1.037689
H1    H     H_    0.113803 0.717627 0.684009 0.197805
H2    H     H_    0.851861 0.250657 0.310064 0.211920
H3    H     H_    0.618715 0.574118 0.002807 0.235490
H4    H     H_    0.383334 0.424435 0.997033 0.222344
H5    H     H_    0.754339 0.184024 0.887091 0.244099
H6    H     H_    0.232401 0.802569 0.123525 0.273581
H7    H     H_    0.728006 0.116352 0.701348 0.198160
H8    H     H_    0.266159 0.873333 0.307935 0.206010
N1    N     N_1   0.480320 0.480250 0.239400 -0.156744
N2    N     N_1   0.519680 0.519750 0.760600 -0.169508
O1    O     O_R   0.313000 0.493330 0.412070 -0.529195
O2    O     O_R   0.687000 0.506670 0.587930 -0.542237
O3    O     O_R   0.326280 0.506660 0.587930 -0.592202
O4    O     O_R   0.673720 0.493340 0.412070 -0.586704
O5    O     O_R   0.493370 0.312980 0.412070 -0.517061
O6    O     O_R   0.506630 0.687020 0.587930 -0.506955
O7    O     O_R   0.506650 0.326310 0.587930 -0.605985
O8    O     O_R   0.493350 0.673690 0.412070 -0.595321
F1    F     F_    0.579020 0.231014 0.017749 -0.636067
F2    F     F_    0.403989 0.760730 0.986097 -0.650804
O9    O     O_3   0.163967 0.794292 0.887456 -0.525439
C45   C     C_3   0.223787 0.873777 0.819981 -0.086211
H9    H     H_    0.307475 0.832017 0.785539 0.194562
H10   H     H_    0.253208 0.955594 0.867024 0.216901
H11   H     H_    0.159870 0.905408 0.757051 0.169848
O10   O     O_3   0.803565 0.194115 0.110358 -0.499303
C46   C     C_3   0.917004 0.143327 0.081391 -0.193954
H12   H     H_    0.979978 0.135063 0.151102 0.148764
H13   H     H_    0.960599 0.197455 0.019582 0.206155
H14   H     H_    0.901192 0.049996 0.047742 0.193607
O11   O     O_3   0.878198 0.503341 0.692553 -0.551252
C47   C     C_3   0.845222 0.387191 0.728790 -0.083331
H15   H     H_    0.913067 0.355528 0.788150 0.216566
H16   H     H_    0.832946 0.315656 0.665042 0.094034
H17   H     H_    0.756810 0.396601 0.769103 0.214685
O12   O     O_3   0.124289 0.413085 0.319364 -0.533556
C48   C     C_3   0.155077 0.287849 0.323222 -0.190969
H18   H     H_    0.222052 0.269749 0.388306 0.166635
H19   H     H_    0.198307 0.259941 0.247997 0.201626
H20   H     H_    0.072929 0.229950 0.331774 0.125545
F3    F     F_    0.314227 0.127201 0.722686 -0.615945
F4    F     F_    0.678527 0.879087 0.268889 -0.586331
O13   O     O_3   0.337436 0.194559 0.930614 -0.504302
C49   C     C_3   0.342922 0.131035 0.026057 -0.083925
H21   H     H_    0.380254 0.191033 0.090968 0.228115
H22   H     H_    0.396046 0.044226 0.020307 0.106672
H23   H     H_    0.248433 0.106752 0.047185 0.166601
O14   O     O_3   0.642562 0.800922 0.062162 -0.504306
C50   C     C_3   0.654389 0.903038 0.998100 -0.079584
H24   H     H_    0.663636 0.989082 0.046455 0.194760
H25   H     H_    0.576252 0.910010 0.940816 0.170478
H26   H     H_    0.738732 0.891840 0.951920 0.203461
F5    F     F_    0.537719 0.878762 0.685481 -0.651848
F6    F     F_    0.459118 0.121147 0.314725 -0.659018
F7    F     F_    0.183214 0.604810 0.022574 -0.585903
F8    F     F_    0.798041 0.394735 0.980222 -0.651718
F9    F     F_    0.162852 0.367747 0.952751 -0.592637
F10   F     F_    0.848317 0.624409 0.061406 -0.546426
F11   F     F_    0.133982 0.311543 0.741714 -0.587426
F12   F     F_    0.907014 0.658373 0.271552 -0.568242

loop_
_geom_bond_atom_site_label_1
_geom_bond_atom_site_label_2
_ccdc_geom_bond_type
Cu1   O4    S    
C20   O12   S    
Cu2   O3    S    
C11   C13   A    
C46   H12   S    
C50   H24   S    
C16   O10   S    
C50   H26   S    
C39   C41   A    
O11   C47   S    
Cu1   O1    S    
Cu2   O6    S    
C28   C29   S    
C19   C21   A    
C43   F5    S    
C1    O3    A    
C2    O4    A    
C23   O7    A    
C20   C25   A    
C9    F11   S    
C5    C36   S    
C6    C35   S    
C7    C9    A    
C18   F8    S    
C19   O11   S    
C19   C26   A    
C17   F7    S    
C32   H6    S    
C45   H9    S    
C7    C17   A    
C31   C33   A    
C34   C36   A    
C27   H4    S    
C40   C42   A    
C1    C22   S    
C24   O8    A    
C7    F9    S    
Cu2   O2    S    
C27   C30   S    
C46   H13   S    
C3    C24   S    
C3    C43   A    
C33   H7    S    
O9    C45   S    
C4    C6    A    
C40   O14   S    
C13   H1    S    
C4    C23   S    
C47   H15   S    
C41   F1    S    
C4    C44   A    
C11   C26   S    
Cu1   Cu2   S    
C8    C18   A    
C38   F4    S    
C32   C34   A    
C1    O1    A    
C8    F10   S    
C28   H3    S    
C49   H22   S    
C48   H18   S    
C15   O9    S    
C2    C21   S    
C50   H25   S    
C16   C18   A    
C9    C11   A    
C10   C12   A    
C8    C10   A    
C48   H19   S    
C5    C44   A    
C12   C14   A    
C34   H8    S    
C6    C43   A    
C13   C15   A    
C46   H14   S    
C14   C16   A    
C10   F12   S    
C20   C22   A    
C49   H23   S    
C15   C17   A    
C21   C25   A    
C24   O6    A    
C31   C41   A    
C35   C37   A    
C37   F3    S    
C31   H5    S    
O10   C46   S    
C3    C5    A    
C14   H2    S    
C2    O2    A    
C29   N2    T    
C30   N1    T    
C12   C25   S    
Cu1   O8    S    
Cu2   O7    S    
C36   C38   A    
C37   C39   A    
C38   C40   A    
C44   F6    S    
C47   H17   S    
C49   H21   S    
C45   H11   S    
Cu1   O5    S    
C33   C35   A    
C47   H16   S    
O14   C50   S    
C23   O5    A    
C48   H20   S    
Cu1   N1    S    
C45   H10   S    
O12   C48   S    
C22   C26   A    
Cu2   N2    S    
C27   C28   D    
C42   F2    S    
C32   C42   A    
O13   C49   S    
C39   O13   S    
