data_mof_unit_17474.cif
_audit_creation_date              2012-12-10T16:59:23-0500
_audit_creation_method            fapswitch 2.2
_symmetry_space_group_name_H-M    P1
_symmetry_Int_Tables_number       1
_space_group_crystal_system       triclinic
_cell_length_a                    7.728286
_cell_length_b                    8.566167
_cell_length_c                    27.661893
_cell_angle_alpha                 90.26456
_cell_angle_beta                  84.761895
_cell_angle_gamma                 94.024525
_cell_volume                      1819.11942557

loop_
_atom_site_label
_atom_site_type_symbol
_atom_type_description
_atom_site_fract_x
_atom_site_fract_y
_atom_site_fract_z
_atom_type_partial_charge
C1    C     C_R   0.546310 0.795071 0.498632 0.957658
C2    C     C_R   0.542606 0.672132 0.123570 -0.018484
C3    C     C_R   0.495918 0.471932 0.646443 -0.202225
C4    C     C_R   0.504079 0.528104 0.353558 -0.202277
C5    C     C_R   0.537190 0.649205 0.021370 0.063380
C6    C     C_R   0.462715 0.350901 0.978635 0.063385
C7    C     C_R   0.460607 0.363381 0.030052 -0.071552
C8    C     C_R   0.539301 0.636725 0.969953 -0.071559
C9    C     C_R   0.505064 0.512134 0.050686 0.015129
C10   C     C_R   0.494849 0.487971 0.949319 0.015130
C11   C     C_R   0.556782 0.795211 0.045211 -0.147835
C12   C     C_R   0.453689 0.204929 0.501368 0.957738
C13   C     C_R   0.443118 0.204894 0.954795 -0.147835
C14   C     C_R   0.562779 0.806074 0.094957 -0.177621
C15   C     C_R   0.437132 0.194029 0.905049 -0.177604
C16   C     C_R   0.499459 0.493854 0.593981 0.921380
C17   C     C_R   0.500541 0.506152 0.406019 0.921288
C18   C     C_R   0.589486 0.764925 0.937420 0.424418
C19   C     C_R   0.410426 0.235181 0.062586 0.424423
C20   C     C_2   0.570646 0.958703 0.497827 -0.385440
C21   C     C_2   0.429354 0.041297 0.502174 -0.385397
C22   C     C_R   0.502843 0.595151 0.818870 0.575207
C23   C     C_R   0.487696 0.475017 0.898286 -0.056515
C24   C     C_R   0.497122 0.404945 0.181133 0.575192
C25   C     C_R   0.456311 0.318004 0.825869 0.541354
C26   C     C_R   0.543635 0.682094 0.174136 0.541366
C27   C     C_R   0.338141 0.408745 0.724349 -0.306312
C28   C     C_R   0.661841 0.591323 0.275652 -0.306173
C29   C     C_R   0.339355 0.421964 0.674252 0.442750
C30   C     C_R   0.660640 0.578077 0.325748 0.442715
C31   C     C_R   0.651104 0.495612 0.668908 -0.443922
C32   C     C_R   0.348885 0.504451 0.331095 -0.443834
C33   C     C_R   0.649220 0.483192 0.719457 0.562674
C34   C     C_R   0.512231 0.525086 0.101719 -0.056513
C35   C     C_R   0.350758 0.516895 0.280548 0.562617
C36   C     C_R   0.490880 0.440881 0.746800 0.176994
C37   C     C_R   0.509094 0.559208 0.253203 0.176938
C38   C     C_3   0.895846 0.646638 0.729043 0.100831
C39   C     C_3   0.000521 0.705321 0.770321 -0.747385
C40   C     C_3   0.104153 0.353437 0.270953 0.100873
C41   C     C_3   0.999485 0.294776 0.229671 -0.747387
C42   C     C_3   0.838509 0.767145 0.356917 0.129990
C43   C     C_3   0.003470 0.797963 0.382565 -0.778922
C44   C     C_3   0.161409 0.232816 0.643150 0.129962
C45   C     C_R   0.513097 0.608966 0.868772 -0.104630
C46   C     C_3   0.996681 0.201998 0.617396 -0.778870
C47   C     C_3   0.850945 0.904783 0.938447 0.089344
C48   C     C_3   0.931472 0.070084 0.944227 -0.803611
C49   C     C_3   0.148958 0.095325 0.061571 0.089351
C50   C     C_3   0.068428 0.930022 0.055797 -0.803597
C51   C     C_R   0.486847 0.391134 0.131232 -0.104624
C52   C     C_R   0.560660 0.752372 0.888717 -0.254892
C53   C     C_R   0.439274 0.247729 0.111287 -0.254916
C54   C     C_R   0.457323 0.327969 0.876435 -0.018482
H1    H     H_    0.772554 0.526450 0.647300 0.195364
H2    H     H_    0.419283 0.079134 0.889018 0.194584
H3    H     H_    0.559902 0.905642 0.027271 0.241567
H4    H     H_    0.439987 0.094463 0.972735 0.241564
H5    H     H_    0.703738 0.010606 0.493663 0.178001
H6    H     H_    0.296262 0.989394 0.506338 0.178001
H7    H     H_    0.810949 0.740947 0.720338 0.164145
H8    H     H_    0.987991 0.625116 0.696863 0.181339
H9    H     H_    0.088123 0.615642 0.780183 0.252834
H10   H     H_    0.080602 0.813933 0.758992 0.225063
H11   H     H_    0.911087 0.731135 0.802676 0.251119
H12   H     H_    0.227435 0.473614 0.352703 0.195399
H13   H     H_    0.012007 0.374917 0.303136 0.181358
H14   H     H_    0.189069 0.259132 0.279649 0.164156
H15   H     H_    0.088923 0.269004 0.197313 0.251101
H16   H     H_    0.919427 0.186143 0.240991 0.225080
H17   H     H_    0.911863 0.384449 0.219819 0.252835
H18   H     H_    0.726944 0.806721 0.381232 0.125785
H19   H     H_    0.852650 0.837054 0.322738 0.148729
H20   H     H_    0.118290 0.764725 0.358644 0.259137
H21   H     H_    0.021317 0.924226 0.391535 0.190829
H22   H     H_    0.993945 0.728786 0.416682 0.266857
H23   H     H_    0.015175 0.383362 0.463514 0.193999
H24   H     H_    0.146890 0.163106 0.677372 0.148827
H25   H     H_    0.273102 0.192999 0.618931 0.125688
H26   H     H_    0.006638 0.270909 0.583216 0.266845
H27   H     H_    0.978708 0.075672 0.608516 0.190816
H28   H     H_    0.881733 0.235563 0.641208 0.259145
H29   H     H_    0.882235 0.869222 0.899988 0.148305
H30   H     H_    0.909762 0.824044 0.962586 0.148517
H31   H     H_    0.889460 0.115705 0.980702 0.253742
H32   H     H_    0.075645 0.070282 0.939741 0.218847
H33   H     H_    0.888037 0.148039 0.916411 0.261628
H34   H     H_    0.984825 0.616638 0.536486 0.194032
H35   H     H_    0.090118 0.176061 0.037436 0.148517
H36   H     H_    0.117695 0.130889 0.100031 0.148298
H37   H     H_    0.111883 0.852071 0.083612 0.261626
H38   H     H_    0.924253 0.929822 0.060290 0.218844
H39   H     H_    0.110417 0.884394 0.019321 0.253741
H40   H     H_    0.590967 0.854671 0.865764 0.214241
H41   H     H_    0.408973 0.145430 0.134240 0.214236
H42   H     H_    0.783090 0.622473 0.253951 0.192327
H43   H     H_    0.216889 0.377597 0.746050 0.192290
H44   H     H_    0.580627 0.920969 0.110988 0.194583
N1    N     N_R   0.481033 0.450841 0.798382 -0.325238
N2    N     N_R   0.518930 0.549254 0.201621 -0.325237
N3    N     N_2   0.950320 0.457960 0.486880 -0.181902
N4    N     N_2   0.049680 0.542040 0.513120 -0.181900
O1    O     O_R   0.389250 0.738570 0.503220 -0.615100
O2    O     O_2   0.482953 0.275361 0.209270 -0.566453
O3    O     O_2   0.566589 0.822732 0.195716 -0.552963
O4    O     O_2   0.433357 0.177365 0.804289 -0.552977
O5    O     O_3   0.799394 0.505427 0.743477 -0.607122
O6    O     O_3   0.200578 0.494672 0.256531 -0.607112
O7    O     O_3   0.815324 0.605730 0.346830 -0.599975
O8    O     O_3   0.184689 0.394277 0.653161 -0.599971
O9    O     O_3   0.670112 0.904182 0.951514 -0.659430
O10   O     O_3   0.329786 0.095928 0.048493 -0.659432
O11   O     O_R   0.610750 0.261430 0.496780 -0.615095
O12   O     O_R   0.678390 0.711630 0.494810 -0.637491
O13   O     O_R   0.321610 0.288370 0.505190 -0.637530
O14   O     O_R   0.355440 0.513440 0.575450 -0.569513
O15   O     O_R   0.644560 0.486560 0.424550 -0.569563
O16   O     O_R   0.644590 0.486500 0.567040 -0.636413
O17   O     O_R   0.355410 0.513500 0.432960 -0.636424
O18   O     O_2   0.517035 0.724733 0.790731 -0.566447
Zn1   Zn    Zn3+2 0.306940 0.517990 0.505620 0.942829
Zn2   Zn    Zn3+2 0.693060 0.482010 0.494380 0.942848

loop_
_geom_bond_atom_site_label_1
_geom_bond_atom_site_label_2
_ccdc_geom_bond_type
C51   C53   A    
N3    N4    D    
O13   Zn1   S    
C53   H41   S    
H23   N3    S    
C33   O5    S    
C49   H36   S    
C18   C52   A    
C19   O10   S    
C22   O18   S    
C39   H10   S    
C34   C51   A    
C23   C45   A    
C41   H15   S    
C35   C37   A    
C42   O7    S    
C5    C11   A    
C38   C39   S    
C11   C14   A    
C27   C29   A    
C33   C36   A    
O16   Zn2   S    
C38   O5    S    
C3    C29   A    
C35   O6    S    
C46   H28   S    
C25   N1    A    
O11   Zn2   S    
C1    C20   S    
C40   H13   S    
C31   C33   A    
C52   H40   S    
C47   H29   S    
N4    Zn1   S    
C1    O1    A    
C17   O15   A    
C41   H17   S    
C12   O13   A    
C2    C34   A    
C24   C51   A    
C39   H11   S    
C16   O14   A    
C26   O3    S    
C44   C46   S    
C25   O4    S    
C14   H44   S    
O17   Zn1   S    
C43   H21   S    
O14   Zn1   S    
C30   O7    S    
C32   C35   A    
C29   O8    S    
C18   O9    S    
C21   H6    S    
C13   H4    S    
C45   C52   A    
C12   C21   S    
C8    C18   A    
C24   O2    S    
O15   Zn2   S    
C15   C54   A    
C5    C9    A    
C16   O16   A    
C46   H27   S    
C47   C48   S    
C42   H18   S    
C48   H33   S    
C2    C26   A    
C47   H30   S    
C25   C54   A    
C20   H5    S    
C3    C31   A    
C4    C32   A    
C49   O10   S    
C4    C17   S    
C50   H38   S    
C40   C41   S    
C7    C19   A    
C13   C15   A    
C40   H14   S    
C9    C34   A    
C10   C23   A    
C48   H32   S    
C1    O12   A    
O1    Zn1   S    
C23   C54   A    
C32   H12   S    
C12   O11   A    
C43   H22   S    
C7    C9    A    
C27   H43   S    
C42   H19   S    
C22   N1    A    
C24   N2    A    
C44   H25   S    
C49   H35   S    
C6    C10   A    
C5    C8    A    
H34   N4    S    
C50   H39   S    
C6    C7    A    
C27   C36   A    
C39   H9    S    
N3    Zn2   S    
C40   O6    S    
C28   H42   S    
C15   H2    S    
C38   H7    S    
C44   H24   S    
C6    C13   A    
C46   H26   S    
C19   C53   A    
C28   C37   A    
C43   H20   S    
C47   O9    S    
C28   C30   A    
C36   N1    S    
C2    C14   A    
C17   O17   A    
O12   Zn2   S    
C50   H37   S    
C22   C45   A    
C20   C21   D    
C8    C10   A    
C49   C50   S    
C42   C43   S    
C48   H31   S    
C31   H1    S    
C11   H3    S    
C37   N2    S    
C4    C30   A    
C3    C16   S    
C26   N2    A    
C41   H16   S    
C38   H8    S    
C44   O8    S    
