data_mof_unit_6282.cif
_audit_creation_date              2012-12-10T17:15:11-0500
_audit_creation_method            fapswitch 2.2
_symmetry_space_group_name_H-M    P1
_symmetry_Int_Tables_number       1
_space_group_crystal_system       triclinic
_cell_length_a                    15.848981
_cell_length_b                    12.973875
_cell_length_c                    11.732029
_cell_angle_alpha                 101.42965
_cell_angle_beta                  93.803539
_cell_angle_gamma                 90.869806
_cell_volume                      2358.33320818

loop_
_atom_site_label
_atom_site_type_symbol
_atom_type_description
_atom_site_fract_x
_atom_site_fract_y
_atom_site_fract_z
_atom_type_partial_charge
C1    C     C_R   0.499651 0.298908 0.477491 0.811724
C2    C     C_R   0.500371 0.701088 0.522509 0.824578
C3    C     C_R   0.545866 0.015860 0.360072 0.136209
C4    C     C_R   0.455058 0.984687 0.641629 0.121621
C5    C     C_R   0.538596 0.124315 0.369298 -0.171867
C6    C     C_R   0.461932 0.875616 0.631344 -0.124636
C7    C     C_R   0.474106 0.138792 0.552742 -0.265096
C8    C     C_R   0.526053 0.861229 0.447559 -0.256201
C9    C     C_R   0.482070 0.031087 0.549277 0.076889
C10   C     C_R   0.518113 0.968745 0.451316 0.119828
C11   C     C_R   0.397130 0.444560 0.027219 0.291247
C12   C     C_R   0.602657 0.555873 0.973055 0.303807
C13   C     C_R   0.416365 0.426870 0.141601 0.518883
C14   C     C_R   0.583724 0.572944 0.858474 0.511555
C15   C     C_R   0.544723 0.525608 0.155635 0.032901
C16   C     C_R   0.455037 0.474895 0.844507 0.033322
C17   C     C_R   0.537772 0.519629 0.032457 -0.181187
C18   C     C_R   0.461898 0.481087 0.967765 -0.176134
C19   C     C_R   0.339841 0.500282 0.500293 0.836977
C20   C     C_R   0.660165 0.499874 0.499741 0.839633
C21   C     C_3   0.967530 0.407984 0.436835 -0.193634
C22   C     C_3   0.032489 0.592233 0.563246 -0.192817
C23   C     C_3   0.022178 0.488500 0.391122 0.186964
C24   C     C_3   0.977842 0.511716 0.608960 0.188159
C25   C     C_1   0.250193 0.500212 0.500752 -0.102310
C26   C     C_1   0.749818 0.499988 0.499307 -0.103408
C27   C     C_3   0.029477 0.419681 0.547267 -0.179740
C28   C     C_3   0.970542 0.580535 0.452813 -0.178072
C29   C     C_3   0.082960 0.500062 0.500316 0.099253
C30   C     C_3   0.917057 0.500155 0.499766 0.099736
C31   C     C_1   0.174642 0.500116 0.500716 -0.033213
C32   C     C_1   0.825372 0.500097 0.499356 -0.031262
C33   C     C_R   0.497518 0.814931 0.535788 -0.084559
C34   C     C_R   0.502580 0.185096 0.464354 -0.078978
Cu1   Cu    Cu3+1 0.506200 0.507730 0.615930 1.031320
Cu2   Cu    Cu3+1 0.493800 0.492270 0.384070 1.027650
H1    H     H_    0.939784 0.332941 0.384516 0.152514
H2    H     H_    0.060238 0.667275 0.615564 0.152467
H3    H     H_    0.945239 0.645869 0.413523 0.159191
H4    H     H_    0.054783 0.354347 0.586555 0.158434
H5    H     H_    0.553913 0.811470 0.375581 0.173754
H6    H     H_    0.445987 0.188628 0.624556 0.161083
H7    H     H_    0.437505 0.836035 0.695391 0.192449
H8    H     H_    0.563114 0.162055 0.303452 0.188774
H9    H     H_    0.401189 0.435392 0.791718 0.208344
H10   H     H_    0.598530 0.565159 0.208461 0.209099
N1    N     N_R   0.515540 0.519350 0.790140 -0.270637
N2    N     N_R   0.484460 0.480650 0.209860 -0.269510
O1    O     O_R   0.504400 0.354460 0.582000 -0.603850
O2    O     O_R   0.495600 0.645540 0.418000 -0.610205
O3    O     O_R   0.493920 0.341410 0.386200 -0.510856
O4    O     O_R   0.506080 0.658590 0.613800 -0.505503
O5    O     O_R   0.384320 0.506520 0.597880 -0.591466
O6    O     O_R   0.615680 0.493480 0.402120 -0.587634
O7    O     O_R   0.373840 0.493460 0.402080 -0.529205
O8    O     O_R   0.626160 0.506540 0.597920 -0.538452
C35   C     C_3   0.050026 0.475112 0.266939 -0.405597
C36   C     C_3   0.974225 0.466763 0.178053 -0.759894
H11   H     H_    0.932582 0.398317 0.182720 0.265723
H12   H     H_    0.937252 0.539631 0.194439 0.266511
H13   H     H_    0.996709 0.455842 0.088948 0.235534
H14   H     H_    0.091037 0.543639 0.260546 0.222887
H15   H     H_    0.087406 0.402784 0.247220 0.238420
C37   C     C_3   0.950008 0.525099 0.733151 -0.406962
C38   C     C_3   0.025819 0.533458 0.822022 -0.759196
H16   H     H_    0.062799 0.460597 0.805626 0.266867
H17   H     H_    0.067451 0.601912 0.817349 0.265378
H18   H     H_    0.003345 0.544373 0.911132 0.235302
H19   H     H_    0.912624 0.597421 0.752880 0.237972
H20   H     H_    0.909006 0.456565 0.739551 0.222761
C39   C     C_3   0.584496 0.954514 0.252880 -0.413027
C40   C     C_3   0.516660 0.894717 0.164766 -0.730529
H21   H     H_    0.480172 0.838154 0.203305 0.243210
H22   H     H_    0.472351 0.950880 0.134557 0.263535
H23   H     H_    0.547051 0.850239 0.088159 0.278439
H24   H     H_    0.619131 0.008577 0.208405 0.214658
H25   H     H_    0.632685 0.900146 0.277491 0.218389
C41   C     C_3   0.419219 0.052041 0.748831 -0.400621
C42   C     C_3   0.397668 0.995356 0.846356 -0.740977
H26   H     H_    0.345888 0.935726 0.815482 0.240760
H27   H     H_    0.454487 0.957674 0.878547 0.269964
H28   H     H_    0.375683 0.053376 0.920481 0.286462
H29   H     H_    0.466462 0.115551 0.787956 0.224108
H30   H     H_    0.360738 0.089070 0.720602 0.222801
S1    S     S_3+6 0.621172 0.696628 0.833485 0.050442
O9    O     O_2   0.668099 0.685598 0.725032 -0.272803
O10   O     O_2   0.545914 0.763926 0.823823 -0.353864
O11   O     O_3   0.685388 0.761545 0.945305 -0.474656
H31   H     H_    0.693618 0.832868 0.928827 0.366905
S2    S     S_3+6 0.380126 0.302172 0.165714 0.061671
O12   O     O_2   0.323205 0.244994 0.064842 -0.238366
O13   O     O_2   0.456160 0.235955 0.174635 -0.337985
O14   O     O_3   0.327051 0.311198 0.286282 -0.513558
H32   H     H_    0.323972 0.238633 0.300839 0.355057
S3    S     S_3+6 0.290949 0.432747 0.965457 0.014026
O15   O     O_2   0.271771 0.526498 0.911635 -0.316136
O16   O     O_2   0.279823 0.334562 0.872486 -0.286890
O17   O     O_3   0.223385 0.428013 0.069179 -0.496466
H33   H     H_    0.166349 0.423592 0.028211 0.365841
S4    S     S_3+6 0.708933 0.565699 0.034289 0.018417
O18   O     O_2   0.720885 0.662337 0.129266 -0.281492
O19   O     O_2   0.727366 0.470344 0.085581 -0.313586
O20   O     O_3   0.776527 0.571605 0.930896 -0.492719
H34   H     H_    0.833569 0.575009 0.971691 0.365355

loop_
_geom_bond_atom_site_label_1
_geom_bond_atom_site_label_2
_ccdc_geom_bond_type
C25   C31   T    
C11   C18   A    
C26   C32   T    
O14   H32   S    
C22   C29   S    
C13   S2    S    
C27   C29   S    
S3    O15   D    
C24   C27   S    
C20   O8    A    
Cu1   N1    S    
S2    O12   D    
S3    O17   S    
C35   H14   S    
S1    O9    D    
C23   C29   S    
C39   H24   S    
Cu1   O5    S    
C36   H12   S    
C22   H2    S    
C15   C17   A    
C7    H6    S    
C2    O2    A    
C41   H29   S    
Cu1   Cu2   S    
C38   H17   S    
C12   C17   A    
Cu1   O1    S    
C37   H20   S    
C9    C10   A    
C19   O5    A    
C36   H13   S    
C21   C27   S    
C24   C37   S    
C22   C28   S    
C20   O6    A    
C15   N2    A    
C40   H23   S    
C16   N1    A    
C1    C34   S    
C35   H15   S    
C7    C9    A    
S1    O10   D    
C8    H5    S    
C40   H22   S    
C42   H27   S    
C41   C42   S    
C28   H3    S    
C36   H11   S    
C23   C28   S    
S4    O20   S    
C3    C39   S    
C4    C41   S    
C42   H28   S    
S2    O13   D    
C27   H4    S    
C38   H18   S    
C5    C34   A    
S4    O19   D    
C17   C18   A    
C16   C18   A    
C37   H19   S    
C1    O3    A    
Cu2   O3    S    
C2    O4    A    
C2    C33   S    
C4    C6    A    
C5    H8    S    
C12   C14   A    
O17   H33   S    
C6    H7    S    
C21   C23   S    
C7    C34   A    
C22   C24   S    
C39   H25   S    
Cu2   O2    S    
S2    O14   S    
S1    O11   S    
C11   S3    S    
C23   C35   S    
Cu1   O4    S    
Cu1   O8    S    
C14   S1    S    
C40   H21   S    
C3    C5    A    
C16   H9    S    
C13   N2    A    
S3    O16   D    
C14   N1    A    
C19   O7    A    
C21   C30   S    
C6    C33   A    
C37   C38   S    
C28   C30   S    
C39   C40   S    
C29   C31   S    
Cu2   O7    S    
C30   C32   S    
C11   C13   A    
C35   C36   S    
C20   C26   S    
S4    O18   D    
Cu2   N2    S    
C8    C33   A    
C19   C25   S    
C24   C30   S    
C12   S4    S    
Cu2   O6    S    
C42   H26   S    
C41   H30   S    
C21   H1    S    
O11   H31   S    
C8    C10   A    
C38   H16   S    
O20   H34   S    
C3    C10   A    
C15   H10   S    
C4    C9    A    
C1    O1    A    
