data_mof_unit_29996.cif
_audit_creation_date              2012-12-11T17:07:57-0500
_audit_creation_method            fapswitch 2.2
_symmetry_space_group_name_H-M    P1
_symmetry_Int_Tables_number       1
_space_group_crystal_system       triclinic
_cell_length_a                    17.454694
_cell_length_b                    17.208817
_cell_length_c                    17.393319
_cell_angle_alpha                 89.93452
_cell_angle_beta                  89.704747
_cell_angle_gamma                 89.024166
_cell_volume                      5223.68185164

loop_
_atom_site_label
_atom_site_type_symbol
_atom_type_description
_atom_site_fract_x
_atom_site_fract_y
_atom_site_fract_z
_atom_type_partial_charge
C1    C     C_R   0.416159 0.322784 0.862652 -0.084417
C2    C     C_R   0.196539 0.890880 0.399671 -0.021668
C3    C     C_R   0.804645 0.839573 0.188386 -0.204499
C4    C     C_R   0.243657 0.284602 0.658525 -0.163474
C5    C     C_R   0.222119 0.868287 0.802141 -0.218710
C6    C     C_R   0.781012 0.686976 0.663563 -0.125015
C7    C     C_R   0.678295 0.223586 0.654516 -0.191470
C8    C     C_R   0.631776 0.271605 0.700773 -0.187824
C9    C     C_R   0.742720 0.650195 0.722651 -0.256819
C10   C     C_R   0.271785 0.822310 0.846577 -0.154063
C11   C     C_R   0.294069 0.327643 0.701492 -0.225696
C12   C     C_R   0.756575 0.795602 0.142208 -0.175103
C13   C     C_R   0.071882 0.162990 0.352865 -0.142525
C14   C     C_R   0.717819 0.367123 0.304731 -0.227638
C15   C     C_R   0.253346 0.197606 0.145319 -0.180286
C16   C     C_R   0.282569 0.632877 0.307239 -0.216888
C17   C     C_3   0.889537 0.307368 0.779610 0.171738
C18   C     C_3   0.962268 0.294841 0.826897 -0.225549
C19   C     C_3   0.949136 0.237796 0.892744 -1.026353
C20   C     C_3   0.748601 0.908809 0.796629 0.178053
C21   C     C_3   0.716350 0.963743 0.858749 -0.267882
C22   C     C_3   0.752533 0.948939 0.937082 -1.023546
C23   C     C_3   0.990148 0.743721 0.839239 0.207940
C24   C     C_R   0.803742 0.109320 0.399749 -0.035209
C25   C     C_3   0.910870 0.723478 0.868792 -0.270014
C26   C     C_3   0.880902 0.783364 0.926410 -1.057073
C27   C     C_3   0.116480 0.070921 0.812696 0.235124
C28   C     C_3   0.062178 0.026898 0.865621 -0.243263
C29   C     C_3   0.994977 0.994016 0.820935 -1.068507
C30   C     C_3   0.919753 0.651209 0.240611 0.185076
C31   C     C_3   0.979448 0.586678 0.226829 -0.290936
C32   C     C_3   0.011803 0.589549 0.145201 -0.949228
C33   C     C_3   0.771155 0.139382 0.201150 0.190631
C34   C     C_3   0.772795 0.102997 0.120977 -0.272277
C35   C     C_R   0.892210 0.195551 0.607053 -0.096629
C36   C     C_3   0.828593 0.144391 0.067682 -1.016263
C37   C     C_3   0.051746 0.307917 0.196505 0.185730
C38   C     C_3   0.980457 0.347033 0.162376 -0.274991
C39   C     C_3   0.968091 0.321355 0.079530 -0.964622
C40   C     C_3   0.232597 0.855222 0.196430 0.168852
C41   C     C_3   0.233056 0.889141 0.115120 -0.261125
C42   C     C_3   0.188534 0.838703 0.059286 -0.942145
C43   C     C_3   0.502764 0.794982 0.321772 0.169084
C44   C     C_3   0.583298 0.824655 0.335579 -0.256208
C45   C     C_3   0.618895 0.785911 0.406372 -0.923243
C46   C     C_R   0.188730 0.099637 0.620275 -0.125787
C47   C     C_3   0.291176 0.391282 0.360958 0.193584
C48   C     C_3   0.309689 0.447391 0.426149 -0.273733
C49   C     C_3   0.366043 0.411848 0.483576 -1.051175
C50   C     C_3   0.497425 0.200986 0.319035 0.174113
C51   C     C_3   0.414757 0.174589 0.326422 -0.263180
C52   C     C_3   0.379468 0.202309 0.402281 -0.948327
C53   C     C_3   0.632923 0.578183 0.293134 0.213036
C54   C     C_3   0.577382 0.536923 0.346856 -0.271154
C55   C     C_3   0.507456 0.508491 0.303490 -1.035448
C56   C     C_3   0.401219 0.136317 0.761770 0.197036
C57   C     C_R   0.076056 0.834381 0.646321 -0.120843
C58   C     C_3   0.438738 0.056483 0.748464 -0.266246
C59   C     C_3   0.471082 0.049028 0.667063 -0.961936
C60   C     C_3   0.236083 0.620732 0.703303 0.163969
C61   C     C_3   0.209055 0.578809 0.630934 -0.275359
C62   C     C_3   0.241688 0.614728 0.557867 -0.955139
C63   C     C_3   0.501048 0.784401 0.686264 0.182962
C64   C     C_3   0.418401 0.807589 0.668832 -0.271234
C65   C     C_3   0.384172 0.754778 0.608179 -1.003844
C66   C     C_3   0.691114 0.503315 0.628272 0.235771
C67   C     C_3   0.662252 0.458349 0.558199 -0.261477
C68   C     C_R   0.803517 0.892350 0.597379 -0.020974
C69   C     C_3   0.575706 0.468262 0.549342 -1.045058
C70   C     C_2   0.419131 0.772440 0.934772 0.586561
C71   C     C_2   0.239986 0.435300 0.862538 0.506518
C72   C     C_2   0.583771 0.235543 0.869211 0.463600
C73   C     C_2   0.768657 0.578403 0.888965 0.432713
C74   C     C_2   0.429363 0.225040 0.102140 0.522939
C75   C     C_2   0.240760 0.571108 0.138904 0.420129
C76   C     C_2   0.572913 0.775969 0.101072 0.486172
C77   C     C_2   0.759511 0.428014 0.137189 0.422656
C78   C     C_2   0.924575 0.273661 0.428524 0.528959
C79   C     C_3   0.843325 0.370537 0.665373 0.350070
C80   C     C_2   0.746822 0.941324 0.349890 0.462099
C81   C     C_2   0.074344 0.725745 0.416143 0.513100
C82   C     C_2   0.251771 0.055966 0.348009 0.450145
C83   C     C_2   0.927841 0.727248 0.571302 0.550148
C84   C     C_2   0.731005 0.063771 0.603667 0.421684
C85   C     C_2   0.066250 0.271305 0.613453 0.460995
C86   C     C_2   0.259532 0.928794 0.634730 0.407301
C87   C     C_3   0.657823 0.871090 0.698617 0.302309
C88   C     C_3   0.093325 0.693953 0.761971 0.252352
C89   C     C_R   0.668092 0.420882 0.854925 -0.062174
C90   C     C_3   0.237276 0.124399 0.807327 0.258093
C91   C     C_3   0.816152 0.672819 0.331072 0.395334
C92   C     C_3   0.664576 0.137680 0.290792 0.283170
C93   C     C_3   0.138277 0.326925 0.302128 0.303150
C94   C     C_3   0.335715 0.861974 0.288766 0.287222
C95   C     C_3   0.392555 0.812628 0.242150 0.284833
C96   C     C_3   0.198062 0.376351 0.261269 0.293451
C97   C     C_3   0.610198 0.186598 0.241470 0.292184
C98   C     C_3   0.754946 0.628987 0.286410 0.246100
C99   C     C_3   0.298731 0.168039 0.851462 0.367123
C100  C     C_R   0.586784 0.680669 0.865843 -0.160123
C101  C     C_3   0.148507 0.643456 0.809605 0.325621
C102  C     C_3   0.609812 0.826272 0.757285 0.251594
C103  C     C_3   0.785648 0.430287 0.698658 0.246553
C104  C     C_R   0.392617 0.699304 0.901359 -0.127317
C105  C     C_R   0.321403 0.411759 0.864482 -0.026522
C106  C     C_R   0.588627 0.321201 0.862695 -0.034392
C107  C     C_R   0.687172 0.598836 0.876730 -0.033882
C108  C     C_R   0.395328 0.303943 0.107669 -0.076976
C109  C     C_R   0.323920 0.585416 0.139606 0.030094
C110  C     C_R   0.605090 0.696356 0.106161 -0.061006
C111  C     C_R   0.303737 0.608536 0.898498 -0.043730
C112  C     C_R   0.676269 0.413971 0.138819 -0.007830
C113  C     C_R   0.892854 0.199654 0.401735 -0.118810
C114  C     C_R   0.827204 0.916367 0.358660 -0.000153
C115  C     C_R   0.106637 0.801531 0.397656 -0.091140
C116  C     C_R   0.170969 0.080047 0.356659 0.006504
C117  C     C_R   0.894651 0.801334 0.598536 -0.128064
C118  C     C_R   0.804107 0.103692 0.607589 -0.001546
C119  C     C_R   0.096204 0.191198 0.619363 -0.035138
C120  C     C_R   0.176629 0.913570 0.638099 -0.002684
C121  C     C_R   0.353748 0.350238 0.823942 -0.085395
C122  C     C_R   0.424425 0.664038 0.146871 -0.057798
C123  C     C_R   0.639601 0.359335 0.813982 -0.106157
C124  C     C_R   0.656673 0.660511 0.834266 -0.039298
C125  C     C_R   0.316691 0.685819 0.882478 0.005650
C126  C     C_R   0.361616 0.637776 0.187193 -0.124805
C127  C     C_R   0.678636 0.678710 0.127139 -0.071765
C128  C     C_R   0.638579 0.361346 0.186444 -0.119521
C129  C     C_R   0.321578 0.322077 0.130568 -0.064738
C130  C     C_R   0.863308 0.858563 0.315132 -0.082714
C131  C     C_R   0.183386 0.814283 0.382039 -0.050426
C132  C     C_R   0.132614 0.134095 0.310611 -0.065235
C133  C     C_R   0.694689 0.603595 0.107777 -0.122230
C134  C     C_R   0.816451 0.186738 0.384657 -0.000094
C135  C     C_R   0.815739 0.180929 0.624342 -0.055512
C136  C     C_R   0.165484 0.170266 0.648781 -0.072757
C137  C     C_R   0.139114 0.860923 0.686292 -0.078562
C138  C     C_R   0.817809 0.815838 0.613399 0.015471
C139  C     C_R   0.729566 0.364574 0.700854 -0.092310
C140  C     C_R   0.650218 0.754101 0.726951 -0.101926
C141  C     C_R   0.184583 0.717347 0.836634 -0.114367
C142  C     C_R   0.273479 0.240883 0.809522 -0.086278
C143  C     C_R   0.738240 0.705667 0.247627 -0.056165
C144  C     C_R   0.575839 0.335197 0.146646 -0.076661
C145  C     C_R   0.639856 0.256471 0.284235 -0.127997
C146  C     C_R   0.238363 0.300857 0.239086 -0.105547
C147  C     C_R   0.361115 0.742881 0.284639 -0.130716
C148  C     C_R   0.312587 0.788191 0.328813 -0.100972
C149  C     C_R   0.186028 0.257281 0.277379 -0.112746
C150  C     C_R   0.687613 0.212052 0.329986 -0.119798
C151  C     C_R   0.789674 0.745340 0.289849 -0.107501
C152  C     C_R   0.220761 0.201083 0.768854 -0.054527
C153  C     C_R   0.136902 0.762743 0.792046 -0.118452
C154  C     C_R   0.691207 0.793771 0.672868 -0.103307
C155  C     C_R   0.305660 0.396953 0.109307 -0.062233
C156  C     C_R   0.778342 0.314667 0.664415 -0.109017
C157  C     C_R   0.663964 0.336214 0.736479 0.084174
C158  C     C_R   0.683311 0.688829 0.761500 0.065215
C159  C     C_R   0.257221 0.742309 0.858168 0.114879
C160  C     C_R   0.312509 0.301854 0.775344 0.077641
C161  C     C_R   0.726788 0.726161 0.171446 0.025012
C162  C     C_R   0.662286 0.330250 0.260748 0.100968
C163  C     C_R   0.268778 0.273638 0.170060 0.047033
C164  C     C_R   0.337894 0.669268 0.261649 0.082064
C165  C     C_R   0.244289 0.759339 0.358649 0.111574
C166  C     C_R   0.923847 0.829847 0.356775 -0.074156
C167  C     C_R   0.169381 0.182029 0.254729 0.085821
C168  C     C_R   0.756343 0.241299 0.358298 0.112266
C169  C     C_R   0.824832 0.811205 0.261210 0.069360
C170  C     C_R   0.211072 0.218867 0.692044 0.023504
C171  C     C_R   0.162659 0.832890 0.762197 0.086785
C172  C     C_R   0.761316 0.764197 0.644863 0.094998
C173  C     C_R   0.757563 0.239556 0.645735 0.103525
C174  C     C_R   0.235412 0.677889 0.355854 -0.186486
C175  C     C_R   0.205214 0.150772 0.189235 -0.213977
C176  C     C_R   0.766816 0.322356 0.350865 -0.152847
H1    H     H_    0.445720 0.269087 0.852213 0.165315
H2    H     H_    0.252326 0.913366 0.410967 0.176906
H3    H     H_    0.207088 0.948555 0.116190 0.190198
H4    H     H_    0.293134 0.893545 0.094352 0.247806
H5    H     H_    0.215509 0.779885 0.055020 0.284593
H6    H     H_    0.188868 0.865790 0.001301 0.278938
H7    H     H_    0.128170 0.833272 0.078822 0.245006
H8    H     H_    0.507019 0.731216 0.311410 0.102871
H9    H     H_    0.467780 0.806965 0.374290 0.112692
H10   H     H_    0.619587 0.812158 0.284331 0.191547
H11   H     H_    0.580612 0.888590 0.344250 0.238070
H12   H     H_    0.616690 0.721725 0.401546 0.273467
H13   H     H_    0.031083 0.205928 0.333689 0.124042
H14   H     H_    0.587579 0.804490 0.459182 0.258015
H15   H     H_    0.679760 0.802410 0.411782 0.283632
H16   H     H_    0.344461 0.377341 0.328018 0.121636
H17   H     H_    0.268562 0.337427 0.387333 0.100130
H18   H     H_    0.334555 0.501193 0.402027 0.210946
H19   H     H_    0.255775 0.463066 0.457007 0.215873
H20   H     H_    0.341546 0.359215 0.510548 0.274319
H21   H     H_    0.377816 0.454692 0.529548 0.281459
H22   H     H_    0.420923 0.396210 0.454504 0.268662
H23   H     H_    0.496183 0.265539 0.314152 0.100956
H24   H     H_    0.748098 0.085308 0.407740 0.192428
H25   H     H_    0.529159 0.182909 0.371632 0.119851
H26   H     H_    0.380763 0.198840 0.277933 0.182075
H27   H     H_    0.413010 0.110148 0.323683 0.238583
H28   H     H_    0.391955 0.264379 0.411776 0.243829
H29   H     H_    0.403325 0.167849 0.450885 0.290191
H30   H     H_    0.316370 0.195836 0.401147 0.277996
H31   H     H_    0.652208 0.536053 0.248305 0.086400
H32   H     H_    0.602161 0.627849 0.265449 0.111022
H33   H     H_    0.607223 0.486358 0.373773 0.216589
H34   H     H_    0.558166 0.577455 0.393070 0.204553
H35   H     H_    0.917380 0.251672 0.605145 0.198767
H36   H     H_    0.475067 0.558571 0.278921 0.273697
H37   H     H_    0.469336 0.476931 0.343544 0.275250
H38   H     H_    0.525082 0.468430 0.256399 0.273187
H39   H     H_    0.444868 0.181434 0.751848 0.100841
H40   H     H_    0.356085 0.145913 0.718010 0.082145
H41   H     H_    0.486020 0.047455 0.790298 0.229080
H42   H     H_    0.395684 0.010543 0.757971 0.191884
H43   H     H_    0.424409 0.055377 0.624205 0.284422
H44   H     H_    0.498808 0.990947 0.659815 0.283221
H45   H     H_    0.514688 0.094142 0.656454 0.256505
H46   H     H_    0.245841 0.075500 0.623123 0.149596
H47   H     H_    0.298252 0.608294 0.710766 0.121375
H48   H     H_    0.230283 0.684650 0.695905 0.103003
H49   H     H_    0.226913 0.516542 0.633893 0.196921
H50   H     H_    0.145530 0.581447 0.627863 0.227183
H51   H     H_    0.226372 0.677556 0.554627 0.285327
H52   H     H_    0.216931 0.585593 0.507177 0.272755
H53   H     H_    0.304903 0.606803 0.555934 0.260674
H54   H     H_    0.502486 0.723437 0.707741 0.111913
H55   H     H_    0.534678 0.788684 0.631899 0.102134
H56   H     H_    0.383586 0.804214 0.722349 0.191474
H57   H     H_    0.032420 0.797018 0.668124 0.102444
H58   H     H_    0.416990 0.868388 0.647406 0.229592
H59   H     H_    0.386528 0.693483 0.628061 0.253538
H60   H     H_    0.416128 0.759803 0.553038 0.273216
H61   H     H_    0.323460 0.772006 0.598292 0.281083
H62   H     H_    0.683959 0.565777 0.613999 0.139155
H63   H     H_    0.655239 0.493463 0.680444 0.083904
H64   H     H_    0.691119 0.480137 0.505479 0.218484
H65   H     H_    0.676147 0.395481 0.563196 0.221081
H66   H     H_    0.545741 0.445771 0.601078 0.277109
H67   H     H_    0.556435 0.435012 0.498547 0.278445
H68   H     H_    0.747783 0.916522 0.585696 0.171091
H69   H     H_    0.560055 0.530537 0.541077 0.267808
H70   H     H_    0.473796 0.796381 0.918850 0.038756
H71   H     H_    0.208583 0.433140 0.808947 0.057743
H72   H     H_    0.611192 0.197384 0.827627 0.008272
H73   H     H_    0.812788 0.602720 0.853460 0.008212
H74   H     H_    0.405661 0.177374 0.134671 0.033846
H75   H     H_    0.205740 0.577322 0.189988 0.034304
H76   H     H_    0.601245 0.823681 0.129176 0.049861
H77   H     H_    0.794932 0.420368 0.187433 0.003135
H78   H     H_    0.980746 0.292036 0.410389 0.084281
H79   H     H_    0.863093 0.385302 0.606419 0.180868
H80   H     H_    0.721154 0.943648 0.293277 0.064543
H81   H     H_    0.056156 0.687574 0.370462 0.018075
H82   H     H_    0.277929 0.052141 0.291496 0.066669
H83   H     H_    0.979035 0.703066 0.597575 0.062520
H84   H     H_    0.698234 0.054184 0.655799 0.067931
H85   H     H_    0.072038 0.310968 0.661423 0.052527
H86   H     H_    0.296212 0.920811 0.683762 0.005175
H87   H     H_    0.622316 0.897652 0.652316 0.101826
H88   H     H_    0.098293 0.685518 0.699069 0.092291
H89   H     H_    0.710710 0.459307 0.834970 0.095460
H90   H     H_    0.259719 0.077140 0.769353 0.022926
H91   H     H_    0.803484 0.676697 0.393666 0.155344
H92   H     H_    0.633754 0.098750 0.331034 0.124461
H93   H     H_    0.137902 0.333869 0.365633 0.108036
H94   H     H_    0.364463 0.902351 0.328789 0.122343
H95   H     H_    0.380833 0.812633 0.179490 0.138319
H96   H     H_    0.174494 0.409143 0.211598 0.080814
H97   H     H_    0.625121 0.186483 0.179362 0.117129
H98   H     H_    0.777606 0.581392 0.248992 0.036123
H99   H     H_    0.285791 0.172863 0.913984 0.109104
H100  H     H_    0.546287 0.723692 0.846418 0.121750
H101  H     H_    0.119250 0.613501 0.857944 0.128420
H102  H     H_    0.621773 0.836637 0.818786 0.082553
H103  H     H_    0.804434 0.454954 0.754095 0.071086
H104  H     H_    0.189491 0.648707 0.384519 0.139143
H105  H     H_    0.195763 0.091161 0.172349 0.133591
H106  H     H_    0.815845 0.351775 0.372037 0.176181
H107  H     H_    0.826789 0.894075 0.167347 0.133228
H108  H     H_    0.232055 0.300557 0.599378 0.140321
H109  H     H_    0.236245 0.928285 0.791881 0.118186
H110  H     H_    0.830216 0.656578 0.640835 0.174657
H111  H     H_    0.248212 0.584430 0.907718 0.183951
H112  H     H_    0.650935 0.174246 0.630218 0.129993
H113  H     H_    0.573895 0.254068 0.713931 0.102587
H114  H     H_    0.762760 0.593488 0.739993 0.149102
H115  H     H_    0.324007 0.849431 0.863175 0.150608
H116  H     H_    0.319648 0.379177 0.677212 0.138080
H117  H     H_    0.743601 0.814679 0.084304 0.128616
H118  H     H_    0.730103 0.427893 0.296259 0.130030
H119  H     H_    0.277888 0.174856 0.092503 0.130256
H120  H     H_    0.270283 0.572195 0.299460 0.172045
H121  H     H_    0.869726 0.249278 0.761443 0.111908
H122  H     H_    0.467380 0.701223 0.169361 0.138118
H123  H     H_    0.845070 0.335988 0.816428 0.113100
H124  H     H_    0.008793 0.271271 0.789267 0.185851
H125  H     H_    0.980838 0.351376 0.850671 0.221166
H126  H     H_    0.933246 0.180050 0.869862 0.266780
H127  H     H_    0.902669 0.259716 0.931259 0.286663
H128  H     H_    0.002605 0.230730 0.926535 0.283213
H129  H     H_    0.810400 0.921303 0.788854 0.133570
H130  H     H_    0.746650 0.846791 0.814183 0.095716
H131  H     H_    0.727167 0.024823 0.841425 0.203575
H132  H     H_    0.653371 0.957164 0.863934 0.209458
H133  H     H_    0.750739 0.576740 0.107760 0.166121
H134  H     H_    0.742346 0.888298 0.955786 0.268810
H135  H     H_    0.726217 0.988954 0.980143 0.283210
H136  H     H_    0.814996 0.959881 0.934646 0.268447
H137  H     H_    0.986955 0.800924 0.809345 0.109302
H138  H     H_    0.028581 0.746994 0.890036 0.116613
H139  H     H_    0.870714 0.720675 0.819517 0.199828
H140  H     H_    0.914648 0.666070 0.897863 0.224264
H141  H     H_    0.879068 0.841690 0.899349 0.268837
H142  H     H_    0.918407 0.784816 0.977778 0.279867
H143  H     H_    0.822192 0.767732 0.945029 0.275215
H144  H     H_    0.533281 0.297523 0.169447 0.138515
H145  H     H_    0.137725 0.029870 0.767568 0.081335
H146  H     H_    0.083964 0.119441 0.784929 0.112047
H147  H     H_    0.094073 0.978291 0.893838 0.206042
H148  H     H_    0.039745 0.066771 0.910990 0.206031
H149  H     H_    0.961581 0.041676 0.792983 0.271850
H150  H     H_    0.956559 0.962609 0.860921 0.268573
H151  H     H_    0.015976 0.952674 0.776260 0.275241
H152  H     H_    0.947322 0.708138 0.231528 0.104390
H153  H     H_    0.874199 0.645316 0.196875 0.092272
H154  H     H_    0.027192 0.592510 0.268329 0.209635
H155  H     H_    0.249375 0.422800 0.105856 0.152966
H156  H     H_    0.952433 0.529450 0.236478 0.210896
H157  H     H_    0.965312 0.582099 0.102579 0.281614
H158  H     H_    0.054757 0.541852 0.137341 0.288923
H159  H     H_    0.040277 0.645876 0.134797 0.262929
H160  H     H_    0.829883 0.136478 0.225424 0.124143
H161  H     H_    0.755051 0.201806 0.195697 0.088332
H162  H     H_    0.790245 0.040725 0.125440 0.202484
H163  H     H_    0.714451 0.106316 0.095774 0.215916
H164  H     H_    0.812556 0.206933 0.062454 0.280328
H165  H     H_    0.827092 0.117616 0.009654 0.281250
H166  H     H_    0.960112 0.781289 0.341857 0.115252
H167  H     H_    0.887808 0.138735 0.090284 0.263242
H168  H     H_    0.041801 0.244415 0.198637 0.113652
H169  H     H_    0.101049 0.319254 0.157700 0.107104
H170  H     H_    0.929404 0.331979 0.197531 0.191500
H171  H     H_    0.986996 0.411066 0.163489 0.220844
H172  H     H_    0.016534 0.340046 0.042595 0.281550
H173  H     H_    0.914363 0.348063 0.057188 0.308408
H174  H     H_    0.963544 0.257199 0.076520 0.257503
H175  H     H_    0.172896 0.857010 0.218881 0.120723
H176  H     H_    0.250423 0.793155 0.193241 0.097864
N1    N     N_R   0.425360 0.368540 0.922560 -0.046817
N2    N     N_R   0.131460 0.925360 0.422560 -0.062984
N3    N     N_R   0.074640 0.131460 0.422560 -0.050209
N4    N     N_R   0.868540 0.074640 0.422560 -0.059123
N5    N     N_R   0.925360 0.131460 0.577440 -0.062901
N6    N     N_R   0.131460 0.074640 0.577440 -0.043320
N7    N     N_R   0.074640 0.868540 0.577440 -0.040800
N8    N     N_R   0.868540 0.925360 0.577440 -0.064114
N9    N     N_R   0.425340 0.631500 0.922560 -0.075068
N10   N     N_R   0.368500 0.425340 0.922560 -0.049697
N11   N     N_R   0.574660 0.368500 0.922560 -0.041418
N12   N     N_R   0.631460 0.425360 0.922560 -0.034298
N13   N     N_R   0.631500 0.574660 0.922560 -0.039605
N14   N     N_R   0.425340 0.368500 0.077440 -0.055686
N15   N     N_R   0.368500 0.574660 0.077440 -0.045885
N16   N     N_R   0.574660 0.631500 0.077440 -0.060193
N17   N     N_R   0.631500 0.425340 0.077440 -0.039969
N18   N     N_R   0.925340 0.131500 0.422560 -0.074512
N19   N     N_R   0.868500 0.925340 0.422560 -0.044798
N20   N     N_R   0.074660 0.868500 0.422560 -0.067361
N21   N     N_R   0.131500 0.074660 0.422560 -0.037889
N22   N     N_R   0.925340 0.868500 0.577440 -0.075272
N23   N     N_R   0.574640 0.631460 0.922560 -0.054863
N24   N     N_R   0.868500 0.074660 0.577440 -0.059050
N25   N     N_R   0.074660 0.131500 0.577440 -0.052991
N26   N     N_R   0.131500 0.925340 0.577440 -0.037843
N27   N     N_R   0.368540 0.574640 0.922560 -0.063399
N28   N     N_R   0.425360 0.631460 0.077440 -0.036025
N29   N     N_R   0.631460 0.574640 0.077440 -0.050893
N30   N     N_R   0.574640 0.368540 0.077440 -0.034109
N31   N     N_R   0.368540 0.425360 0.077440 -0.056851
N32   N     N_R   0.925360 0.868540 0.422560 -0.051203
Ni1   Ni    Ni4+2 0.500000 0.369720 0.000000 0.311551
Ni2   Ni    Ni4+2 0.630280 0.500000 0.000000 0.304353
Ni3   Ni    Ni4+2 0.500000 0.630280 0.000000 0.253083
Ni4   Ni    Ni4+2 0.369720 0.500000 0.000000 0.284017
Ni5   Ni    Ni4+2 0.000000 0.869720 0.500000 0.258050
Ni6   Ni    Ni4+2 0.130280 0.000000 0.500000 0.294735
Ni7   Ni    Ni4+2 1.000000 0.130280 0.500000 0.250630
Ni8   Ni    Ni4+2 0.869720 0.000000 0.500000 0.277128
O1    O     O_3   0.906850 0.353998 0.714775 -0.668257
O2    O     O_3   0.237009 0.427630 0.311664 -0.676730
O3    O     O_3   0.531549 0.167195 0.252680 -0.650802
O4    O     O_3   0.695183 0.605801 0.336246 -0.664519
O5    O     O_3   0.375855 0.141303 0.839479 -0.643219
O6    O     O_3   0.196945 0.590269 0.768107 -0.677884
O7    O     O_3   0.529555 0.834966 0.743143 -0.672862
O8    O     O_3   0.770340 0.487633 0.640842 -0.652928
O9    O     O_2   0.380230 0.805907 0.983495 -0.564504
O10   O     O_2   0.206084 0.452525 0.921810 -0.570802
O11   O     O_2   0.552171 0.205989 0.924266 -0.503488
O12   O     O_3   0.711657 0.925960 0.726231 -0.689650
O13   O     O_2   0.787345 0.534030 0.940533 -0.530176
O14   O     O_2   0.485137 0.212395 0.061462 -0.511815
O15   O     O_2   0.209048 0.556202 0.078422 -0.573507
O16   O     O_2   0.514703 0.789593 0.065186 -0.573672
O17   O     O_2   0.790995 0.444166 0.076634 -0.540765
O18   O     O_2   0.889739 0.313287 0.475621 -0.601371
O19   O     O_2   0.707037 0.954358 0.406390 -0.569781
O20   O     O_2   0.071578 0.703739 0.482673 -0.590567
O21   O     O_2   0.291165 0.044169 0.404736 -0.577905
O22   O     O_2   0.898265 0.692751 0.518142 -0.563802
O23   O     O_3   0.015994 0.685183 0.787573 -0.660253
O24   O     O_2   0.704836 0.044527 0.541877 -0.568936
O25   O     O_2   0.039747 0.295280 0.553101 -0.586144
O26   O     O_2   0.289073 0.947838 0.573922 -0.565769
O27   O     O_3   0.177039 0.101280 0.856611 -0.658695
O28   O     O_3   0.893063 0.646058 0.317768 -0.643890
O29   O     O_3   0.722407 0.095208 0.249335 -0.677324
O30   O     O_3   0.062579 0.336550 0.272047 -0.673712
O31   O     O_3   0.278331 0.901981 0.244778 -0.674088
O32   O     O_3   0.470330 0.832898 0.256921 -0.645315

loop_
_geom_bond_atom_site_label_1
_geom_bond_atom_site_label_2
_ccdc_geom_bond_type
C13   N3    A    
C166  N32   A    
C20   H129  S    
C27   H145  S    
C41   H4    S    
C68   C138  A    
C71   H71   S    
C55   H38   S    
C135  C173  S    
C15   C163  A    
C147  C164  A    
C58   H41   S    
C69   H66   S    
C122  N28   A    
C62   H51   S    
C67   H64   S    
C21   H131  S    
C80   O19   D    
C23   H137  S    
C56   H39   S    
C7    H112  S    
C144  H144  S    
C12   C161  A    
C45   H15   S    
C54   H33   S    
C68   N8    A    
C35   N5    A    
C124  C158  S    
C111  C125  A    
C30   H152  S    
N18   Ni7   S    
C36   H165  S    
C72   O11   D    
C77   O17   D    
C143  C151  A    
C21   C22   S    
C148  C165  A    
C114  C130  A    
C72   C106  S    
C107  C124  A    
C166  H166  S    
C91   H91   S    
C8    C157  A    
C47   O2    S    
C108  N14   A    
C42   H5    S    
C156  C173  A    
C51   C52   S    
C90   C152  S    
C63   O7    S    
C3    C169  A    
C122  H122  S    
C97   O3    S    
N28   Ni3   S    
N24   Ni8   S    
C77   C112  S    
C25   H139  S    
C43   C44   S    
C37   C38   S    
C53   O4    S    
C152  C170  A    
C37   H168  S    
N2    N20   A    
C150  C168  A    
C103  O8    S    
C128  C162  S    
C2    C131  A    
C77   H77   S    
C128  C144  A    
C63   H54   S    
C69   H69   S    
C11   H116  S    
C100  H100  S    
C78   C113  S    
C66   O8    S    
C76   H76   S    
N13   N23   A    
C24   C134  A    
C12   H117  S    
C39   H173  S    
C40   O31   S    
C80   H80   S    
C32   H157  S    
C97   C145  S    
C47   H17   S    
C86   O26   D    
C34   H162  S    
N2    Ni6   S    
C119  C136  A    
C46   H46   S    
C72   H72   S    
C25   C26   S    
N1    Ni1   S    
C107  N13   A    
C83   C117  S    
C30   C31   S    
C155  N31   A    
C9    C158  A    
C40   H176  S    
C13   C132  A    
C120  N26   A    
C36   H167  S    
C57   N7    A    
C92   H92   S    
C28   H147  S    
C93   H93   S    
C20   C21   S    
C139  C157  A    
C1    N1    A    
C19   H128  S    
C67   C69   S    
N7    N26   A    
C38   H171  S    
C86   H86   S    
C82   H82   S    
C65   H60   S    
C147  C148  A    
N11   Ni1   S    
C6    C9    A    
C7    C8    A    
N9    Ni3   S    
C70   O9    D    
C49   H21   S    
C53   C54   S    
C16   C164  A    
N10   Ni4   S    
C4    C170  A    
C38   C39   S    
N19   Ni8   S    
C43   H9    S    
C130  C169  S    
C39   H172  S    
N9    N27   A    
C29   H150  S    
C133  N29   A    
C47   H16   S    
C85   C119  S    
C176  H106  S    
N31   Ni4   S    
C98   H98   S    
C73   O13   D    
N29   Ni2   S    
C141  C159  A    
C94   O31   S    
C22   H135  S    
C105  N10   A    
C145  C150  A    
C51   H26   S    
C37   H169  S    
C90   O27   S    
C66   C67   S    
C26   H142  S    
C91   C98   S    
C66   H62   S    
C32   H159  S    
C79   C103  S    
C83   O22   D    
C36   H164  S    
C92   C97   S    
C73   H73   S    
C8    H113  S    
C94   C148  S    
C17   H121  S    
C154  C172  A    
C52   H29   S    
C95   C147  S    
C2    N2    A    
C35   C135  A    
N20   Ni5   S    
C123  C157  S    
C165  C174  A    
C33   H161  S    
N6    Ni6   S    
C64   H58   S    
C31   C32   S    
C116  C132  A    
C95   O32   S    
C17   C18   S    
C19   H126  S    
C57   C137  A    
C153  C171  A    
C43   O32   S    
N25   Ni7   S    
C46   N6    A    
C24   H24   S    
N16   N29   A    
N22   Ni5   S    
C136  C170  S    
C48   H19   S    
C134  C168  S    
C60   H47   S    
C87   H87   S    
C90   C99   S    
C116  N21   A    
C88   H88   S    
C63   H55   S    
C88   O23   S    
C16   C174  A    
C168  C176  A    
C54   C55   S    
C20   H130  S    
C41   H3    S    
C55   H37   S    
C50   H23   S    
C25   H140  S    
C96   C146  S    
C61   H50   S    
C151  C169  A    
N7    Ni5   S    
N32   Ni5   S    
C58   H42   S    
C141  C153  A    
C62   H52   S    
C112  N17   A    
C4    H108  S    
C56   C58   S    
C167  C175  A    
C5    H109  S    
N16   Ni3   S    
C61   C62   S    
C1    C121  A    
C56   H40   S    
C118  C135  A    
C44   H11   S    
C63   C64   S    
C45   H14   S    
C54   H34   S    
C131  C165  S    
C84   C118  S    
N13   Ni2   S    
C30   H153  S    
C86   C120  S    
C2    H2    S    
C98   O4    S    
C17   H123  S    
C18   H124  S    
N27   Ni4   S    
C41   C42   S    
C93   C149  S    
C117  C138  A    
C149  C167  A    
C132  C167  S    
C26   H143  S    
C42   H6    S    
C16   H120  S    
C101  H101  S    
C28   C29   S    
C59   H44   S    
C9    H114  S    
C98   C143  S    
C70   C104  S    
C73   C107  S    
N21   Ni6   S    
C94   H94   S    
C18   H125  S    
C53   H32   S    
C129  C163  S    
C18   C19   S    
C142  C152  A    
N26   Ni6   S    
C14   C176  A    
C55   H36   S    
C24   N4    A    
C104  C125  A    
C121  C160  S    
N11   N12   A    
C33   H160  S    
C83   H83   S    
C37   O30   S    
N12   Ni2   S    
C27   H146  S    
C75   H75   S    
C133  H133  S    
C51   H27   S    
C11   C160  A    
C118  N24   A    
N17   Ni2   S    
C138  C172  S    
C71   O10   D    
C79   O1    S    
C142  C160  A    
C129  C155  A    
C99   H99   S    
C69   H67   S    
C6    C172  A    
N17   N30   A    
N30   Ni1   S    
C58   C59   S    
C32   H158  S    
C21   H132  S    
N19   N32   A    
C60   C61   S    
C52   H28   S    
C14   C162  A    
C23   H138  S    
N3    N21   A    
C146  C149  A    
C130  C166  A    
C30   O28   S    
C114  N19   A    
C87   C154  S    
C102  C140  S    
C4    C11   A    
C81   O20   D    
C70   H70   S    
C48   C49   S    
C28   H148  S    
C113  C134  A    
C71   C105  S    
C92   C150  S    
C19   H127  S    
C106  N11   A    
C44   C45   S    
C5    C171  A    
C64   H56   S    
C50   H25   S    
N8    Ni8   S    
C27   O27   S    
N15   N28   A    
C65   H59   S    
C74   O14   D    
C127  C133  A    
C75   O15   D    
C17   O1    S    
C125  C159  S    
C95   H95   S    
C10   H115  S    
C49   H20   S    
C64   C65   S    
C82   C116  S    
C104  N9    A    
C34   C36   S    
C29   H149  S    
C119  N25   A    
C94   C95   S    
C112  C128  A    
C87   O12   S    
C74   C108  S    
C76   C110  S    
C102  O7    S    
C111  H111  S    
C22   H136  S    
C120  C137  A    
C100  C124  A    
C10   C159  A    
C34   H163  S    
C44   H10   S    
C174  H104  S    
C143  C161  A    
C39   H174  S    
C66   H63   S    
C14   H118  S    
C48   H18   S    
C101  O6    S    
C99   C142  S    
C103  H103  S    
C88   C101  S    
C67   H65   S    
C100  N23   A    
C115  C131  A    
C15   H119  S    
C52   H30   S    
C56   O5    S    
C6    H110  S    
C93   O30   S    
C113  N18   A    
C91   O28   S    
C145  C162  A    
C40   H175  S    
C43   H8    S    
C13   H13   S    
N14   Ni1   S    
C35   H35   S    
C3    C12   A    
C59   H45   S    
C79   C156  S    
C144  N30   A    
C99   O5    S    
C33   O29   S    
C106  C123  A    
N23   Ni3   S    
N6    N25   A    
C38   H170  S    
C89   H89   S    
C110  C127  A    
N3    Ni7   S    
C140  C158  A    
C3    H107  S    
C127  C161  S    
C117  N22   A    
C65   H61   S    
C31   H156  S    
C1    H1    S    
C102  H102  S    
C126  C164  S    
C60   H48   S    
C89   N12   A    
C74   H74   S    
C50   C51   S    
N8    N22   A    
C49   H22   S    
N5    Ni7   S    
C110  N16   A    
C75   C109  S    
C78   H78   S    
N4    N18   A    
C89   C123  A    
C111  N27   A    
C61   H49   S    
C29   H151  S    
C122  C126  A    
C103  C139  S    
C87   C102  S    
C85   O25   D    
N15   Ni4   S    
C47   C48   S    
C62   H53   S    
C81   C115  S    
C33   C34   S    
C84   O24   D    
C105  C121  A    
C22   H134  S    
C108  C129  A    
C109  C126  A    
C155  H155  S    
N1    N10   A    
C40   C41   S    
C26   H141  S    
C80   C114  S    
C93   C96   S    
C96   O2    S    
C76   O16   D    
C115  N20   A    
C90   H90   S    
C82   O21   D    
C60   O6    S    
N5    N24   A    
C101  C141  S    
C92   O29   S    
C84   H84   S    
C85   H85   S    
C23   O23   S    
C57   H57   S    
C20   O12   S    
C45   H12   S    
C42   H7    S    
C96   H96   S    
C146  C163  A    
N14   N31   A    
C81   H81   S    
C15   C175  A    
C88   C153  S    
C109  N15   A    
C5    C10   A    
C59   H43   S    
C91   C151  S    
C139  C156  A    
C68   H68   S    
C7    C173  A    
C53   H31   S    
C23   C25   S    
C137  C171  S    
C46   C136  A    
C27   C28   S    
C79   H79   S    
C50   O3    S    
C78   O18   D    
C31   H154  S    
C175  H105  S    
C97   H97   S    
N4    Ni8   S    
C140  C154  A    
