data_mof_unit_60026.cif
_audit_creation_date              2012-12-10T16:54:04-0500
_audit_creation_method            fapswitch 2.2
_symmetry_space_group_name_H-M    P1
_symmetry_Int_Tables_number       1
_space_group_crystal_system       triclinic
_cell_length_a                    18.527098
_cell_length_b                    18.514056
_cell_length_c                    42.970522
_cell_angle_alpha                 90.000064
_cell_angle_beta                  90.000055
_cell_angle_gamma                 90.013296
_cell_volume                      14739.3926886

loop_
_atom_site_label
_atom_site_type_symbol
_atom_type_description
_atom_site_fract_x
_atom_site_fract_y
_atom_site_fract_z
_atom_type_partial_charge
C1    C     C_R   0.500000 0.000000 0.584291 0.761618
C2    C     C_R   0.000000 0.500000 0.584065 0.758064
C3    C     C_R   1.000000 0.500000 0.084247 0.759909
C4    C     C_R   0.500000 0.000000 0.084240 0.759616
C5    C     C_R   0.000001 0.500000 0.718250 0.308312
C6    C     C_R   0.500002 0.999999 0.718571 0.292171
C7    C     C_R   0.500000 0.000000 0.218424 0.291520
C8    C     C_R   0.999999 0.500000 0.218427 0.291510
C9    C     C_R   0.500000 0.000000 0.281430 0.295780
C10   C     C_R   0.999999 0.500000 0.281431 0.295777
C11   C     C_R   0.000000 0.500000 0.781499 0.310201
C12   C     C_R   0.500001 0.999999 0.781560 0.296743
C13   C     C_R   0.969331 0.442282 0.667348 -0.171957
C14   C     C_R   0.461122 0.947697 0.668244 -0.172889
C15   C     C_R   0.030669 0.557717 0.667348 -0.171957
C16   C     C_R   0.538881 0.052303 0.668244 -0.172888
C17   C     C_R   0.450448 0.042369 0.168066 -0.174165
C18   C     C_R   0.957709 0.450351 0.168071 -0.174137
C19   C     C_R   0.549553 0.957631 0.168066 -0.174165
C20   C     C_R   0.042290 0.549649 0.168071 -0.174137
C21   C     C_R   0.969139 0.440941 0.634637 0.071310
C22   C     C_R   0.458514 0.947587 0.635550 0.069376
C23   C     C_R   0.030861 0.559059 0.634637 0.071311
C24   C     C_R   0.541486 0.052414 0.635550 0.069374
C25   C     C_R   0.450658 0.044981 0.135367 0.070350
C26   C     C_R   0.955099 0.450557 0.135373 0.070298
C27   C     C_R   0.549342 0.955019 0.135367 0.070349
C28   C     C_R   0.044900 0.549444 0.135373 0.070298
C29   C     C_R   1.000000 0.500000 0.618322 -0.067633
C30   C     C_R   0.500000 0.000000 0.618900 -0.090614
C31   C     C_R   0.500000 0.000000 0.118783 -0.086823
C32   C     C_R   1.000000 0.500000 0.118789 -0.086986
C33   C     C_R   0.000001 0.500000 0.683789 0.007073
C34   C     C_R   0.500001 0.999999 0.684425 0.015993
C35   C     C_R   0.500000 0.000000 0.184265 0.015814
C36   C     C_R   0.999999 0.500000 0.184270 0.015829
C37   C     C_R   0.500000 0.000000 0.415735 0.775832
C38   C     C_R   1.000000 0.500000 0.415729 0.776428
C39   C     C_R   1.000000 0.500000 0.915868 0.783560
C40   C     C_R   0.500000 1.000000 0.915753 0.777077
C41   C     C_R   0.361304 0.138520 0.500099 0.854425
C42   C     C_R   0.861555 0.361235 0.500132 0.852887
C43   C     C_R   0.638696 0.861480 0.500099 0.854424
C44   C     C_R   0.138445 0.638765 0.500132 0.852887
C45   C     C_R   0.638420 0.138789 0.499939 0.854697
C46   C     C_R   0.138818 0.361612 0.499898 0.855141
C47   C     C_R   0.361580 0.861211 0.499939 0.854696
C48   C     C_R   0.861182 0.638388 0.499898 0.855140
C49   C     C_R   0.861316 0.638526 0.000096 0.854760
C50   C     C_R   0.361485 0.861308 0.000085 0.854710
C51   C     C_R   0.138684 0.361474 0.000096 0.854759
C52   C     C_R   0.638515 0.138692 0.000085 0.854710
C53   C     C_R   0.138358 0.638837 0.999905 0.850815
C54   C     C_R   0.638784 0.861584 0.999924 0.854293
C55   C     C_R   0.861642 0.361163 0.999905 0.850816
C56   C     C_R   0.361216 0.138416 0.999924 0.854291
C57   C     C_2   0.193210 0.750703 0.481649 -0.156515
C58   C     C_2   0.249527 0.193353 0.481522 -0.157197
C59   C     C_2   0.806790 0.249297 0.481649 -0.156514
C60   C     C_2   0.750473 0.806647 0.481522 -0.157197
C61   C     C_2   0.807941 0.751843 0.482309 -0.176391
C62   C     C_2   0.751971 0.191840 0.482461 -0.175701
C63   C     C_2   0.192059 0.248157 0.482309 -0.176391
C64   C     C_2   0.248029 0.808159 0.482461 -0.175699
C65   C     C_2   0.693799 0.250109 0.981294 -0.161284
C66   C     C_2   0.749570 0.693397 0.981520 -0.157217
C67   C     C_2   0.306200 0.749891 0.981294 -0.161284
C68   C     C_2   0.250430 0.306603 0.981520 -0.157217
C69   C     C_2   0.307837 0.251733 0.982265 -0.175363
C70   C     C_2   0.251220 0.692559 0.981986 -0.166671
C71   C     C_2   0.692163 0.748267 0.982265 -0.175363
C72   C     C_2   0.748780 0.307441 0.981986 -0.166671
C73   C     C_2   0.193096 0.694733 0.501458 -0.297338
C74   C     C_2   0.305523 0.193370 0.501308 -0.295796
C75   C     C_2   0.806904 0.305267 0.501458 -0.297338
C76   C     C_2   0.694477 0.806630 0.501308 -0.295796
C77   C     C_2   0.803746 0.691555 0.499514 -0.299597
C78   C     C_2   0.691719 0.196123 0.499658 -0.302472
C79   C     C_2   0.196254 0.308444 0.499514 -0.299598
C80   C     C_2   0.308281 0.803877 0.499658 -0.302471
C81   C     C_2   0.693437 0.194405 0.001244 -0.296321
C82   C     C_2   0.805580 0.693411 0.001297 -0.296493
C83   C     C_2   0.306563 0.805595 0.001244 -0.296321
C84   C     C_2   0.194420 0.306588 0.001297 -0.296493
C85   C     C_2   0.303896 0.191694 0.999641 -0.302080
C86   C     C_2   0.191542 0.696255 0.999575 -0.303904
C87   C     C_2   0.696104 0.808305 0.999641 -0.302080
C88   C     C_2   0.808458 0.303745 0.999575 -0.303903
C89   C     C_R   0.450693 0.955327 0.364458 0.069999
C90   C     C_R   0.044692 0.450727 0.364457 0.069976
C91   C     C_R   0.549306 0.044673 0.364458 0.070000
C92   C     C_R   0.955306 0.549272 0.364457 0.069976
C93   C     C_R   0.963043 0.444848 0.865024 0.066593
C94   C     C_R   0.545321 0.951294 0.864553 0.069528
C95   C     C_R   0.036957 0.555152 0.865024 0.066593
C96   C     C_R   0.454680 0.048706 0.864553 0.069529
C97   C     C_R   0.450681 0.957449 0.331840 -0.201679
C98   C     C_R   0.042572 0.450709 0.331840 -0.201622
C99   C     C_R   0.549319 0.042551 0.331840 -0.201679
C100  C     C_R   0.957426 0.549291 0.331840 -0.201622
C101  C     C_R   0.963554 0.445864 0.832410 -0.198594
C102  C     C_R   0.543261 0.951290 0.831948 -0.201315
C103  C     C_R   0.036446 0.554137 0.832410 -0.198595
C104  C     C_R   0.456740 0.048709 0.831948 -0.201315
C105  C     C_R   0.500000 0.000000 0.315581 0.034536
C106  C     C_R   0.999999 0.500000 0.315581 0.034520
C107  C     C_R   0.000000 0.500000 0.815927 0.025668
C108  C     C_R   0.500001 1.000000 0.815696 0.034039
C109  C     C_R   0.500000 0.000000 0.381252 -0.049108
C110  C     C_R   0.999999 0.500000 0.381249 -0.049225
C111  C     C_R   1.000000 0.500000 0.881605 -0.037242
C112  C     C_R   0.500000 1.000000 0.881316 -0.048041
H1    H     H_    0.413387 0.923868 0.318851 0.146122
H2    H     H_    0.076170 0.413441 0.318851 0.146125
H3    H     H_    0.586612 0.076132 0.318851 0.146122
H4    H     H_    0.923827 0.586559 0.318851 0.146124
H5    H     H_    0.935570 0.403647 0.819795 0.152082
H6    H     H_    0.577385 0.914479 0.818973 0.146827
H7    H     H_    0.064430 0.596354 0.819795 0.152082
H8    H     H_    0.422617 0.085520 0.818973 0.146827
N1    N     N_R   0.563111 0.001323 0.265411 -0.176696
N2    N     N_R   0.998610 0.563154 0.265413 -0.176696
N3    N     N_R   0.436889 0.998678 0.265411 -0.176696
N4    N     N_R   0.001388 0.436847 0.265413 -0.176697
N5    N     N_R   0.033037 0.553686 0.765362 -0.182763
N6    N     N_R   0.496005 0.063040 0.765547 -0.176754
N7    N     N_R   0.966964 0.446314 0.765361 -0.182763
N8    N     N_R   0.503998 0.936959 0.765547 -0.176754
N9    N     N_R   0.033014 0.553696 0.734397 -0.184046
N10   N     N_R   0.496477 0.063069 0.734583 -0.176678
N11   N     N_R   0.966987 0.446304 0.734397 -0.184046
N12   N     N_R   0.503526 0.936929 0.734583 -0.176678
N13   N     N_R   0.563120 0.000824 0.234440 -0.176677
N14   N     N_R   0.999108 0.563163 0.234442 -0.176677
N15   N     N_R   0.436880 0.999176 0.234440 -0.176677
N16   N     N_R   0.000890 0.436837 0.234442 -0.176677
O1    O     O_3   0.500000 0.000000 0.500000 -0.473227
O2    O     O_3   1.000000 0.500000 0.500000 -0.475254
O3    O     O_3   0.000000 0.500000 0.000000 -0.473802
O4    O     O_3   0.500000 0.000000 0.000000 -0.473552
O5    O     O_R   0.500000 0.939850 0.569320 -0.649100
O6    O     O_R   0.060150 0.500000 0.569320 -0.643371
O7    O     O_R   0.500000 0.060150 0.569320 -0.649102
O8    O     O_R   0.939850 0.500000 0.569320 -0.643371
O9    O     O_R   0.000000 0.439850 0.069320 -0.647971
O10   O     O_R   0.560150 1.000000 0.069320 -0.647902
O11   O     O_R   0.000000 0.560150 0.069320 -0.647971
O12   O     O_R   0.439850 1.000000 0.069320 -0.647901
O13   O     O_R   0.439930 0.000000 0.430670 -0.648130
O14   O     O_R   0.000000 0.439930 0.430670 -0.648075
O15   O     O_R   0.560070 0.000000 0.430670 -0.648129
O16   O     O_R   0.000000 0.560070 0.430670 -0.648074
O17   O     O_R   0.939930 0.500000 0.930670 -0.649804
O18   O     O_R   0.500000 0.939930 0.930670 -0.648316
O19   O     O_R   0.060070 0.500000 0.930670 -0.649803
O20   O     O_R   0.500000 0.060070 0.930670 -0.648315
O21   O     O_R   0.415450 0.144560 0.518170 -0.643389
O22   O     O_R   0.855440 0.415450 0.518170 -0.646869
O23   O     O_R   0.584550 0.855440 0.518170 -0.643389
O24   O     O_R   0.144560 0.584550 0.518170 -0.646869
O25   O     O_R   0.584550 0.144560 0.518170 -0.646016
O26   O     O_R   0.144560 0.415450 0.518170 -0.640788
O27   O     O_R   0.415450 0.855440 0.518170 -0.646016
O28   O     O_R   0.855440 0.584550 0.518170 -0.640788
O29   O     O_R   0.915450 0.644560 0.018170 -0.643369
O30   O     O_R   0.355440 0.915450 0.018170 -0.643562
O31   O     O_R   0.084550 0.355440 0.018170 -0.643369
O32   O     O_R   0.644560 0.084550 0.018170 -0.643562
O33   O     O_R   0.084550 0.644560 0.018170 -0.645728
O34   O     O_R   0.644560 0.915450 0.018170 -0.645866
O35   O     O_R   0.915450 0.355440 0.018170 -0.645729
O36   O     O_R   0.355440 0.084550 0.018170 -0.645865
O37   O     O_R   0.644640 0.915430 0.481820 -0.644259
O38   O     O_R   0.084570 0.644640 0.481820 -0.643885
O39   O     O_R   0.355360 0.084570 0.481820 -0.644259
O40   O     O_R   0.915430 0.355360 0.481820 -0.643885
O41   O     O_R   0.355360 0.915430 0.481820 -0.646042
O42   O     O_R   0.915430 0.644640 0.481820 -0.647062
O43   O     O_R   0.644640 0.084570 0.481820 -0.646042
O44   O     O_R   0.084570 0.355360 0.481820 -0.647062
O45   O     O_R   0.144640 0.415430 0.981820 -0.644146
O46   O     O_R   0.584570 0.144640 0.981820 -0.644197
O47   O     O_R   0.855360 0.584570 0.981820 -0.644146
O48   O     O_R   0.415430 0.855360 0.981820 -0.644197
O49   O     O_R   0.855360 0.415430 0.981820 -0.645031
O50   O     O_R   0.415430 0.144640 0.981820 -0.646092
O51   O     O_R   0.144640 0.584570 0.981820 -0.645032
O52   O     O_R   0.584570 0.855360 0.981820 -0.646091
Zn1   Zn    Zn3+2 0.414160 0.000000 0.474030 0.952898
Zn2   Zn    Zn3+2 0.000000 0.414160 0.474030 0.952046
Zn3   Zn    Zn3+2 0.585840 0.000000 0.474030 0.952898
Zn4   Zn    Zn3+2 0.000000 0.585840 0.474030 0.952046
Zn5   Zn    Zn3+2 0.914160 0.500000 0.974030 0.955237
Zn6   Zn    Zn3+2 0.500000 0.914160 0.974030 0.952917
Zn7   Zn    Zn3+2 0.085840 0.500000 0.974030 0.955237
Zn8   Zn    Zn3+2 0.500000 0.085840 0.974030 0.952917
Zn9   Zn    Zn3+2 0.500000 0.085780 0.525960 0.959032
Zn10  Zn    Zn3+2 0.914220 0.500000 0.525960 0.962520
Zn11  Zn    Zn3+2 0.500000 0.914220 0.525960 0.959032
Zn12  Zn    Zn3+2 0.085780 0.500000 0.525960 0.962520
Zn13  Zn    Zn3+2 1.000000 0.585780 0.025960 0.959144
Zn14  Zn    Zn3+2 0.414220 0.000000 0.025960 0.958775
Zn15  Zn    Zn3+2 1.000000 0.414220 0.025960 0.959144
Zn16  Zn    Zn3+2 0.585780 0.000000 0.025960 0.958775
H9    H     H_    0.151035 0.755603 0.464212 0.172795
H10   H     H_    0.244528 0.150980 0.464165 0.172887
H11   H     H_    0.848965 0.244396 0.464212 0.172794
H12   H     H_    0.755472 0.849020 0.464166 0.172887
H13   H     H_    0.854919 0.761547 0.467765 0.172227
H14   H     H_    0.761549 0.144871 0.467881 0.172279
H15   H     H_    0.145082 0.238454 0.467765 0.172227
H16   H     H_    0.238451 0.855129 0.467880 0.172278
H17   H     H_    0.651669 0.254912 0.963831 0.173221
H18   H     H_    0.744564 0.651022 0.964165 0.173271
H19   H     H_    0.348330 0.745088 0.963831 0.173221
H20   H     H_    0.255435 0.348978 0.964165 0.173271
H21   H     H_    0.354557 0.261169 0.967536 0.172438
H22   H     H_    0.260366 0.646028 0.967097 0.173834
H23   H     H_    0.645443 0.738830 0.967536 0.172438
H24   H     H_    0.739634 0.353972 0.967097 0.173834
H25   H     H_    0.232810 0.688890 0.519716 0.148504
H26   H     H_    0.311518 0.233326 0.519468 0.150714
H27   H     H_    0.767190 0.311110 0.519716 0.148504
H28   H     H_    0.688482 0.766674 0.519468 0.150714
H29   H     H_    0.757066 0.678733 0.513557 0.153152
H30   H     H_    0.679022 0.242792 0.513747 0.151701
H31   H     H_    0.242934 0.321267 0.513558 0.153152
H32   H     H_    0.320978 0.757208 0.513747 0.151701
H33   H     H_    0.733219 0.188479 0.019464 0.149661
H34   H     H_    0.811684 0.733419 0.019426 0.149583
H35   H     H_    0.266782 0.811520 0.019464 0.149662
H36   H     H_    0.188316 0.266581 0.019426 0.149583
H37   H     H_    0.257534 0.179144 0.013920 0.151713
H38   H     H_    0.179238 0.742456 0.014005 0.151457
H39   H     H_    0.742465 0.820856 0.013920 0.151712
H40   H     H_    0.820762 0.257544 0.014005 0.151456
C113  C     C_3   0.398594 0.903149 0.380073 -0.407005
C114  C     C_3   0.438277 0.839238 0.395110 -0.334519
C115  C     C_3   0.385230 0.786996 0.410335 -0.869771
H41   H     H_    0.353526 0.815170 0.428586 0.271786
H42   H     H_    0.347767 0.764359 0.392665 0.258437
H43   H     H_    0.415331 0.741840 0.421318 0.247015
H44   H     H_    0.469517 0.809815 0.377019 0.221557
H45   H     H_    0.476646 0.858308 0.413147 0.212862
H46   H     H_    0.364271 0.931703 0.397236 0.231823
H47   H     H_    0.360093 0.880839 0.362678 0.190690
C116  C     C_3   0.096898 0.398686 0.380074 -0.407163
C117  C     C_3   0.160732 0.438518 0.395093 -0.334524
C118  C     C_3   0.213033 0.385534 0.410304 -0.869985
H48   H     H_    0.184946 0.353753 0.428560 0.271668
H49   H     H_    0.235687 0.348089 0.392628 0.258505
H50   H     H_    0.258128 0.415741 0.421277 0.247052
H51   H     H_    0.190064 0.469832 0.376993 0.221621
H52   H     H_    0.141645 0.476880 0.413133 0.212878
H53   H     H_    0.068415 0.364322 0.397252 0.231801
H54   H     H_    0.119216 0.360171 0.362685 0.190766
C119  C     C_3   0.601406 0.096851 0.380073 -0.407005
C120  C     C_3   0.561723 0.160762 0.395111 -0.334517
C121  C     C_3   0.614770 0.213004 0.410336 -0.869771
H55   H     H_    0.646475 0.184830 0.428586 0.271786
H56   H     H_    0.652232 0.235642 0.392665 0.258437
H57   H     H_    0.584669 0.258160 0.421319 0.247014
H58   H     H_    0.530483 0.190185 0.377020 0.221557
H59   H     H_    0.523355 0.141692 0.413148 0.212861
H60   H     H_    0.635729 0.068297 0.397236 0.231823
H61   H     H_    0.639907 0.119161 0.362679 0.190691
C122  C     C_3   0.903101 0.601313 0.380075 -0.407163
C123  C     C_3   0.839268 0.561481 0.395094 -0.334524
C124  C     C_3   0.786967 0.614465 0.410306 -0.869983
H62   H     H_    0.815055 0.646248 0.428560 0.271668
H63   H     H_    0.764310 0.651908 0.392629 0.258505
H64   H     H_    0.741874 0.584257 0.421280 0.247051
H65   H     H_    0.809935 0.530167 0.376994 0.221620
H66   H     H_    0.858356 0.523119 0.413134 0.212877
H67   H     H_    0.931584 0.635677 0.397253 0.231801
H68   H     H_    0.880781 0.639828 0.362685 0.190766
C125  C     C_3   0.923399 0.383588 0.881220 -0.422810
C126  C     C_3   0.975959 0.329267 0.895879 -0.339967
C127  C     C_3   0.935384 0.269908 0.913248 -0.872875
H69   H     H_    0.902636 0.293548 0.932365 0.263870
H70   H     H_    0.899354 0.240050 0.897076 0.261746
H71   H     H_    0.974607 0.231269 0.923469 0.247706
H72   H     H_    0.009433 0.304282 0.877299 0.225208
H73   H     H_    0.012698 0.356563 0.912539 0.215975
H74   H     H_    0.885756 0.405384 0.898950 0.230035
H75   H     H_    0.888877 0.353936 0.864318 0.195313
C128  C     C_3   0.598061 0.899842 0.880203 -0.407623
C129  C     C_3   0.661423 0.940368 0.895247 -0.334945
C130  C     C_3   0.714181 0.887967 0.910544 -0.869911
H76   H     H_    0.686353 0.856036 0.928827 0.271379
H77   H     H_    0.737231 0.850628 0.892922 0.258694
H78   H     H_    0.758964 0.918666 0.921501 0.247026
H79   H     H_    0.690523 0.971903 0.877149 0.221908
H80   H     H_    0.641870 0.978605 0.913244 0.212799
H81   H     H_    0.569906 0.865211 0.897382 0.231886
H82   H     H_    0.620829 0.861550 0.862831 0.191147
C131  C     C_3   0.076603 0.616412 0.881220 -0.422807
C132  C     C_3   0.024045 0.670733 0.895880 -0.339966
C133  C     C_3   0.064622 0.730088 0.913251 -0.872870
H83   H     H_    0.097368 0.706442 0.932368 0.263870
H84   H     H_    0.100654 0.759946 0.897080 0.261745
H85   H     H_    0.025400 0.768727 0.923473 0.247704
H86   H     H_    0.990573 0.695723 0.877301 0.225206
H87   H     H_    0.987303 0.643437 0.912539 0.215974
H88   H     H_    0.114246 0.594614 0.898950 0.230037
H89   H     H_    0.111125 0.646063 0.864319 0.195310
C134  C     C_3   0.401940 0.100158 0.880202 -0.407623
C135  C     C_3   0.338577 0.059633 0.895246 -0.334946
C136  C     C_3   0.285821 0.112034 0.910544 -0.869909
H90   H     H_    0.313650 0.143962 0.928828 0.271379
H91   H     H_    0.262773 0.149376 0.892922 0.258693
H92   H     H_    0.241037 0.081336 0.921500 0.247025
H93   H     H_    0.309477 0.028099 0.877148 0.221908
H94   H     H_    0.358129 0.021394 0.913243 0.212799
H95   H     H_    0.430095 0.134789 0.897382 0.231887
H96   H     H_    0.379173 0.138450 0.862830 0.191146
H97   H     H_    0.945876 0.398300 0.680374 0.148446
H98   H     H_    0.431589 0.908241 0.681692 0.143280
H99   H     H_    0.054125 0.601700 0.680374 0.148446
H100  H     H_    0.568414 0.091758 0.681692 0.143279
H101  H     H_    0.413009 0.074527 0.181464 0.143403
H102  H     H_    0.925610 0.412841 0.181469 0.143396
H103  H     H_    0.586991 0.925473 0.181464 0.143403
H104  H     H_    0.074388 0.587159 0.181470 0.143397
C137  C     C_3   0.937780 0.377277 0.616451 -0.398741
C138  C     C_3   0.913557 0.311701 0.635754 -0.368722
C139  C     C_3   0.888071 0.250336 0.614700 -0.882960
H105  H     H_    0.842288 0.268525 0.599958 0.265029
H106  H     H_    0.932850 0.231788 0.599481 0.263751
H107  H     H_    0.869850 0.204117 0.629176 0.254240
H108  H     H_    0.959310 0.291701 0.650105 0.230140
H109  H     H_    0.868125 0.327321 0.651255 0.224399
H110  H     H_    0.890516 0.396779 0.602931 0.225116
H111  H     H_    0.979462 0.358410 0.599685 0.192888
C140  C     C_3   0.411186 0.893067 0.618208 -0.372114
C141  C     C_3   0.357374 0.849762 0.638104 -0.385001
C142  C     C_3   0.308787 0.802729 0.617776 -0.878039
H112  H     H_    0.275529 0.836916 0.602100 0.262264
H113  H     H_    0.341747 0.764997 0.603562 0.265742
H114  H     H_    0.272209 0.770546 0.632830 0.256836
H115  H     H_    0.387196 0.813659 0.654284 0.226944
H116  H     H_    0.322828 0.887276 0.651755 0.229662
H117  H     H_    0.379341 0.922904 0.600424 0.201737
H118  H     H_    0.446876 0.853770 0.606171 0.231546
C143  C     C_3   0.062218 0.622724 0.616451 -0.398741
C144  C     C_3   0.086439 0.688301 0.635754 -0.368723
C145  C     C_3   0.111922 0.749667 0.614700 -0.882961
H119  H     H_    0.157705 0.731480 0.599957 0.265030
H120  H     H_    0.067142 0.768213 0.599482 0.263751
H121  H     H_    0.130142 0.795886 0.629176 0.254238
H122  H     H_    0.040686 0.708299 0.650106 0.230140
H123  H     H_    0.131872 0.672682 0.651254 0.224399
H124  H     H_    0.109483 0.603223 0.602931 0.225115
H125  H     H_    0.020536 0.641590 0.599685 0.192888
C146  C     C_3   0.588813 0.106935 0.618208 -0.372114
C147  C     C_3   0.642622 0.150243 0.638104 -0.384999
C148  C     C_3   0.691205 0.197280 0.617776 -0.878041
H126  H     H_    0.724466 0.163096 0.602100 0.262265
H127  H     H_    0.658241 0.235009 0.603562 0.265742
H128  H     H_    0.727779 0.229467 0.632830 0.256836
H129  H     H_    0.612798 0.186344 0.654284 0.226944
H130  H     H_    0.677171 0.112732 0.651755 0.229660
H131  H     H_    0.620660 0.077099 0.600425 0.201737
H132  H     H_    0.553121 0.146229 0.606170 0.231549
C149  C     C_3   0.399852 0.095858 0.117856 -0.376394
C150  C     C_3   0.361735 0.153879 0.137508 -0.387249
C151  C     C_3   0.319323 0.206012 0.116913 -0.860146
H133  H     H_    0.356226 0.234720 0.100716 0.259305
H134  H     H_    0.278021 0.176267 0.103230 0.262888
H135  H     H_    0.291609 0.246652 0.131687 0.252315
H136  H     H_    0.323196 0.127874 0.153864 0.226299
H137  H     H_    0.402298 0.185247 0.150967 0.230067
H138  H     H_    0.431817 0.124515 0.099749 0.199143
H139  H     H_    0.357692 0.062988 0.106121 0.229767
C152  C     C_3   0.904308 0.399640 0.117862 -0.376352
C153  C     C_3   0.846381 0.361392 0.137516 -0.387207
C154  C     C_3   0.794332 0.318866 0.116922 -0.860231
H140  H     H_    0.765595 0.355749 0.100727 0.259280
H141  H     H_    0.824103 0.277586 0.103236 0.262889
H142  H     H_    0.753757 0.291062 0.131697 0.252325
H143  H     H_    0.872420 0.322868 0.153869 0.226300
H144  H     H_    0.814988 0.401928 0.150977 0.230057
H145  H     H_    0.875627 0.431589 0.099760 0.199189
H146  H     H_    0.937199 0.357507 0.106121 0.229758
C155  C     C_3   0.600148 0.904142 0.117856 -0.376394
C156  C     C_3   0.638266 0.846122 0.137508 -0.387248
C157  C     C_3   0.680678 0.793989 0.116913 -0.860147
H147  H     H_    0.643775 0.765280 0.100717 0.259306
H148  H     H_    0.721980 0.823734 0.103229 0.262888
H149  H     H_    0.708393 0.753349 0.131688 0.252315
H150  H     H_    0.676805 0.872127 0.153864 0.226299
H151  H     H_    0.597703 0.814754 0.150967 0.230066
H152  H     H_    0.568183 0.875485 0.099749 0.199143
H153  H     H_    0.642308 0.937013 0.106121 0.229767
C158  C     C_3   0.095692 0.600359 0.117862 -0.376353
C159  C     C_3   0.153620 0.638606 0.137516 -0.387208
C160  C     C_3   0.205671 0.681131 0.116923 -0.860232
H154  H     H_    0.234407 0.644247 0.100728 0.259280
H155  H     H_    0.175901 0.722411 0.103237 0.262889
H156  H     H_    0.246246 0.708933 0.131698 0.252325
H157  H     H_    0.127582 0.677131 0.153869 0.226300
H158  H     H_    0.185012 0.598069 0.150978 0.230059
H159  H     H_    0.124372 0.568411 0.099760 0.199190
H160  H     H_    0.062801 0.642493 0.106122 0.229756

loop_
_geom_bond_atom_site_label_1
_geom_bond_atom_site_label_2
_ccdc_geom_bond_type
C101  C107  A    
C78   H30   S    
C148  H126  S    
C156  H150  S    
C157  H149  S    
C142  H112  S    
C149  H138  S    
C76   H28   S    
C122  H67   S    
C42   C75   S    
C70   H22   S    
C2    C29   S    
C85   H37   S    
C52   O46   A    
C7    N13   A    
C10   N4    A    
C160  H155  S    
C46   C79   S    
C153  H144  S    
C98   H2    S    
C12   N6    A    
C4    O12   A    
O26   Zn12  S    
C87   H39   S    
O30   Zn14  S    
C38   O16   A    
C55   C88   S    
C45   O25   A    
C154  H142  S    
C41   C74   S    
O1    Zn3   S    
C155  H153  S    
C18   C26   A    
C9    N1    A    
C45   C78   S    
C129  H80   S    
O34   Zn16  S    
C97   C105  A    
C39   C111  S    
C81   H33   S    
C95   C131  S    
C88   H40   S    
O3    Zn7   S    
C50   C83   S    
O7    Zn9   S    
C50   O48   A    
C27   C31   A    
C28   C32   A    
C119  H60   S    
C6    N12   A    
C159  H158  S    
C12   C108  S    
C20   C28   A    
C10   N2    A    
C21   C29   A    
O37   Zn3   S    
C143  H124  S    
C49   C82   S    
C65   H17   S    
O4    Zn14  S    
O14   Zn2   S    
C24   C146  S    
C146  C147  S    
C90   C116  S    
C113  H46   S    
C12   N8    A    
O1    Zn9   S    
C22   C140  S    
C148  H128  S    
C96   C104  A    
C132  C133  S    
C157  H147  S    
C142  H114  S    
C44   C73   S    
O20   Zn8   S    
C100  C106  A    
C120  H59   S    
C90   C98   A    
C141  C142  S    
C121  H56   S    
C152  C153  S    
O3    Zn15  S    
C94   C128  S    
C48   O28   A    
C25   C149  S    
C39   O19   A    
O13   Zn1   S    
C98   C106  A    
C73   H25   S    
C17   C25   A    
O16   Zn4   S    
C42   O40   A    
C149  C150  S    
C43   O37   A    
O22   Zn10  S    
C128  H81   S    
C151  H135  S    
C127  H70   S    
C84   H36   S    
N7    N11   A    
C135  H93   S    
C140  C141  S    
N5    N9    A    
O43   Zn3   S    
C26   C152  S    
C94   C102  A    
C123  H66   S    
N6    N10   A    
C64   H16   S    
C103  C107  A    
O5    Zn11  S    
C150  H136  S    
O3    Zn5   S    
C25   C31   A    
C3    O11   A    
C2    O8    A    
C51   O31   A    
C6    N10   A    
C48   O42   A    
O12   Zn14  S    
C144  H122  S    
C40   C112  S    
C158  H159  S    
C118  H48   S    
C23   C29   A    
O50   Zn8   S    
C44   O38   A    
C43   O23   A    
O4    Zn16  S    
C27   C155  S    
C9    C105  S    
C119  C120  S    
C57   C73   D    
C19   C35   A    
N2    N14   A    
O10   Zn16  S    
C9    N3    A    
O1    Zn11  S    
C61   C77   D    
C5    C33   S    
C17   H101  S    
C116  H54   S    
O27   Zn11  S    
C125  C126  S    
C137  H111  S    
C3    C32   S    
C47   C80   S    
O45   Zn7   S    
C131  H88   S    
C95   C103  A    
C136  H91   S    
C72   H24   S    
C8    N14   A    
O11   Zn13  S    
C1    O5    A    
C140  H117  S    
C139  H106  S    
C117  H51   S    
C16   H100  S    
C125  H74   S    
C114  H44   S    
O32   Zn16  S    
N3    N15   A    
C48   C77   S    
C11   N7    A    
O42   Zn4   S    
C130  H76   S    
C62   H14   S    
C115  H42   S    
O36   Zn14  S    
C138  C139  S    
C3    O9    A    
C126  H72   S    
C138  H109  S    
C2    O6    A    
C10   C106  S    
C134  H95   S    
C69   C85   D    
C58   C74   D    
C59   H11   S    
C118  H50   S    
C22   C30   A    
C37   C109  S    
C62   C78   D    
C156  H151  S    
C63   H15   S    
C157  H148  S    
C14   C34   A    
C122  C123  S    
C65   C72   S    
C67   C70   S    
C14   C22   A    
C120  C121  S    
C160  H154  S    
C145  H121  S    
C92   C110  A    
C18   C36   A    
O48   Zn6   S    
C5    N9    A    
C132  H86   S    
C41   O39   A    
C52   C81   S    
C133  H85   S    
C154  H141  S    
C155  H152  S    
C126  C127  S    
C91   C99   A    
C26   C32   A    
O38   Zn4   S    
C14   H98   S    
C77   H29   S    
C8    N16   A    
C54   O34   A    
C115  H41   S    
C100  H4    S    
C153  C154  S    
C114  H45   S    
C67   C83   D    
C146  H132  S    
C86   H38   S    
C39   O17   A    
C69   H21   S    
C11   N5    A    
C96   C134  S    
C99   H3    S    
C58   H10   S    
C130  H78   S    
C71   H23   S    
C8    C36   S    
O29   Zn13  S    
C150  C151  S    
C49   O47   A    
C67   H19   S    
C151  H133  S    
C68   C69   S    
C50   O30   A    
C127  H69   S    
O31   Zn15  S    
C38   C110  S    
C53   O33   A    
C47   O27   A    
C152  H146  S    
O23   Zn11  S    
C82   H34   S    
C148  H127  S    
C54   O52   A    
C124  H62   S    
C56   O36   A    
C64   C80   D    
C42   O22   A    
C55   O35   A    
C142  H113  S    
O28   Zn10  S    
C149  H139  S    
C93   C125  S    
C103  H7    S    
C122  H68   S    
N4    N16   A    
C134  C135  S    
C68   C84   D    
C89   C113  S    
C13   H97   S    
C159  C160  S    
C160  H156  S    
C145  H119  S    
C15   H99   S    
C153  H143  S    
C60   H12   S    
C6    C34   S    
C60   C61   S    
C66   H18   S    
C133  H83   S    
C49   O29   A    
C91   C119  S    
C46   O44   A    
O40   Zn2   S    
C128  C129  S    
C147  H129  S    
C151  H134  S    
C61   H13   S    
C129  H79   S    
C80   H32   S    
C135  H94   S    
C93   C111  A    
C41   O21   A    
C56   O50   A    
C44   O24   A    
C93   C101  A    
C150  H137  S    
C104  C108  A    
C117  C118  S    
O9    Zn15  S    
C155  C156  S    
C43   C76   S    
C114  C115  S    
O6    Zn12  S    
O2    Zn4   S    
C119  H61   S    
C37   O13   A    
C159  H157  S    
C158  C159  S    
C23   C143  S    
C144  H123  S    
C74   H26   S    
C147  H130  S    
O25   Zn9   S    
C143  H125  S    
C101  H5    S    
C156  C157  S    
C139  H105  S    
O44   Zn2   S    
C56   C85   S    
C28   C158  S    
C1    C30   S    
O47   Zn5   S    
C60   C76   D    
C113  H47   S    
O21   Zn9   S    
O35   Zn15  S    
C137  C138  S    
C68   H20   S    
C4    C31   S    
O19   Zn7   S    
O33   Zn13  S    
C20   C36   A    
C5    N11   A    
C123  C124  S    
C124  H64   S    
C17   C35   A    
O4    Zn6   S    
C51   C84   S    
C104  H8    S    
O2    Zn12  S    
C57   H9    S    
C131  C132  S    
C137  H110  S    
C120  H58   S    
C121  H57   S    
O24   Zn12  S    
C63   C79   D    
C136  H90   S    
C13   C33   A    
C96   C112  A    
C83   H35   S    
C54   C87   S    
C117  H52   S    
C66   C82   D    
C89   C109  A    
C128  H82   S    
C127  H71   S    
C94   C112  A    
C92   C122  S    
C65   C81   D    
C20   H104  S    
C66   C71   S    
C123  H65   S    
C141  H116  S    
C102  C108  A    
C53   C86   S    
C18   H102  S    
C19   C27   A    
C102  H6    S    
C16   C34   A    
C15   C23   A    
O52   Zn6   S    
C16   C24   A    
C126  H73   S    
C40   O18   A    
O2    Zn2   S    
C37   O15   A    
N8    N12   A    
C79   H31   S    
C140  H118  S    
C72   C88   D    
C99   C105  A    
C158  H160  S    
C118  H49   S    
O41   Zn1   S    
C13   C21   A    
O3    Zn13  S    
O4    Zn8   S    
C89   C97   A    
C7    N15   A    
C141  H115  S    
C1    O7    A    
C145  H120  S    
C116  H53   S    
C4    O10   A    
O17   Zn5   S    
C132  H87   S    
C133  H84   S    
C154  H140  S    
O1    Zn1   S    
O2    Zn10  S    
C11   C107  S    
C71   C87   D    
O46   Zn8   S    
C90   C110  A    
C97   H1    S    
C121  H55   S    
C70   C86   D    
C59   C75   D    
C131  H89   S    
C135  C136  S    
C92   C100  A    
C57   C64   S    
C136  H92   S    
C58   C63   S    
C59   C62   S    
O51   Zn7   S    
C7    C35   S    
C51   O45   A    
O49   Zn5   S    
O39   Zn1   S    
C139  H107  S    
C116  C117  S    
C19   H103  S    
C146  H131  S    
C125  H75   S    
C129  C130  S    
C91   C109  A    
C124  H63   S    
C53   O51   A    
C47   O41   A    
C95   C111  A    
C52   O32   A    
C144  C145  S    
O15   Zn3   S    
C147  C148  S    
C130  H77   S    
C15   C33   A    
C115  H43   S    
C55   O49   A    
C24   C30   A    
C45   O43   A    
C75   H27   S    
O18   Zn6   S    
O8    Zn10  S    
C46   O26   A    
C138  H108  S    
C40   O20   A    
C134  H96   S    
N1    N13   A    
C143  C144  S    
C113  C114  S    
C38   O14   A    
C21   C137  S    
C152  H145  S    
