data_mof_unit_53316.cif
_audit_creation_date              2012-12-10T17:21:39-0500
_audit_creation_method            fapswitch 2.2
_symmetry_space_group_name_H-M    P1
_symmetry_Int_Tables_number       1
_space_group_crystal_system       triclinic
_cell_length_a                    10.761958
_cell_length_b                    10.793403
_cell_length_c                    9.610088
_cell_angle_alpha                 90.158664
_cell_angle_beta                  90.333048
_cell_angle_gamma                 93.111046
_cell_volume                      1114.62073205

loop_
_atom_site_label
_atom_site_type_symbol
_atom_type_description
_atom_site_fract_x
_atom_site_fract_y
_atom_site_fract_z
_atom_type_partial_charge
C1    C     C_R   0.494453 0.262560 0.499953 0.825291
C2    C     C_3   0.878470 0.499995 0.500954 0.028473
C3    C     C_3   0.936701 0.600796 0.603058 0.278008
C4    C     C_3   0.929572 0.530685 0.352570 -0.563397
C5    C     C_R   0.309301 0.119513 0.666311 -0.165931
C6    C     C_R   0.224597 0.050590 0.748152 -0.158838
C7    C     C_R   0.225842 0.921975 0.750038 -0.116238
C8    C     C_R   0.311658 0.861595 0.669895 -0.195393
C9    C     C_R   0.399589 0.929449 0.586976 0.103450
C10   C     C_R   0.398748 0.060526 0.585742 0.114864
C11   C     C_R   0.484680 0.128273 0.499968 -0.094007
C12   C     C_R   0.260217 0.500382 0.499373 0.841996
C13   C     C_R   0.564247 0.067289 0.412133 -0.177064
C14   C     C_R   0.564338 0.939584 0.412464 -0.190785
C15   C     C_R   0.485493 0.870412 0.501130 -0.084549
C16   C     C_R   0.664493 0.667309 0.144816 -0.304413
C17   C     C_R   0.744439 0.752057 0.073844 0.283653
C18   C     C_R   0.742055 0.752882 0.928501 0.440816
C19   C     C_R   0.662090 0.668651 0.857751 -0.137872
C20   C     C_R   0.580017 0.582776 0.926181 0.104571
C21   C     C_R   0.580541 0.582455 0.075196 0.098446
C22   C     C_R   0.422315 0.421368 0.073808 0.508482
C23   C     C_R   0.495043 0.737013 0.500310 0.747624
C24   C     C_R   0.423066 0.421835 0.924890 -0.144761
C25   C     C_R   0.740125 0.500959 0.500297 0.805814
C26   C     C_3   0.065891 0.373206 0.552413 0.157961
C27   C     C_3   0.921410 0.368772 0.539456 0.180313
C28   C     C_3   0.080237 0.606554 0.592473 -0.569539
C29   C     C_3   0.071529 0.522711 0.349159 -0.346508
C30   C     C_3   0.122373 0.500072 0.498129 0.055678
Cu1   Cu    Cu3+1 0.499990 0.499990 0.640660 0.962843
Cu2   Cu    Cu3+1 0.500010 0.500010 0.359340 0.988333
H1    H     H_    0.905069 0.625638 0.322003 0.193188
H2    H     H_    0.112533 0.697432 0.547262 0.166920
H3    H     H_    0.903913 0.692679 0.571196 0.134572
H4    H     H_    0.629023 0.119072 0.345314 0.160781
H5    H     H_    0.301002 0.218695 0.664374 0.154930
H6    H     H_    0.158787 0.868529 0.812231 0.159723
H7    H     H_    0.305851 0.761629 0.671990 0.157193
H8    H     H_    0.628737 0.894535 0.345502 0.152492
H9    H     H_    0.123364 0.602015 0.697730 0.193288
H10   H     H_    0.095764 0.446016 0.278282 0.241084
N1    N     N_R   0.501200 0.501210 0.147910 -0.188780
N2    N     N_R   0.501250 0.501290 0.852040 -0.191315
O1    O     O_R   0.499990 0.319640 0.618810 -0.577961
O2    O     O_R   0.500000 0.319660 0.381240 -0.523993
O3    O     O_R   0.317680 0.499970 0.618790 -0.622018
O4    O     O_R   0.317700 0.499990 0.381210 -0.531475
O5    O     O_R   0.500000 0.680340 0.618760 -0.615044
O6    O     O_R   0.500010 0.680360 0.381190 -0.599001
O7    O     O_R   0.682300 0.500010 0.618790 -0.511945
O8    O     O_R   0.682320 0.500030 0.381210 -0.629608
H11   H     H_    0.093502 0.363669 0.663877 0.114096
H12   H     H_    0.156483 0.097184 0.808703 0.137101
O9    O     O_3   0.342498 0.341043 0.145984 -0.684929
H13   H     H_    0.291741 0.289983 0.078552 0.294786
O10   O     O_3   0.113203 0.275238 0.475783 -0.747034
H14   H     H_    0.086196 0.197377 0.524307 0.321810
H15   H     H_    0.671803 0.671513 0.254543 0.206911
O11   O     O_3   0.825699 0.834038 0.144332 -0.748676
H16   H     H_    0.817669 0.820517 0.245901 0.306157
O12   O     O_3   0.817656 0.833253 0.850373 -0.723640
H17   H     H_    0.870339 0.887480 0.912599 0.368008
H18   H     H_    0.670131 0.673304 0.748030 0.232820
H19   H     H_    0.360412 0.358423 0.867604 0.121595
H20   H     H_    0.890763 0.304070 0.453395 0.128379
O13   O     O_3   0.866088 0.325131 0.663443 -0.730014
H21   H     H_    0.880171 0.235109 0.668699 0.319217
O14   O     O_3   0.898228 0.581116 0.741495 -0.683564
H22   H     H_    0.945547 0.513759 0.782496 0.364180
H23   H     H_    0.114316 0.610500 0.305848 0.182542
H24   H     H_    0.887441 0.465055 0.273692 0.219902

loop_
_geom_bond_atom_site_label_1
_geom_bond_atom_site_label_2
_ccdc_geom_bond_type
C2    C4    S    
O9    H13   S    
C25   O7    A    
Cu1   O1    S    
C6    C7    A    
C8    H7    S    
C5    H5    S    
C29   H10   S    
C29   C30   S    
C11   C13   A    
C9    C10   A    
C19   C20   A    
C22   N1    A    
C1    C11   S    
C3    H3    S    
C19   H18   S    
C12   O4    A    
C2    C27   S    
Cu2   O6    S    
O12   H17   S    
C15   C23   S    
C17   C18   A    
C26   C27   S    
C22   O9    S    
C28   H2    S    
C5    C10   A    
C27   H20   S    
Cu1   O3    S    
C13   C14   A    
Cu2   O4    S    
C1    O1    A    
O10   H14   S    
C16   C21   A    
Cu2   O2    S    
C24   H19   S    
C6    H12   S    
C12   O3    A    
C5    C6    A    
C28   C30   S    
C3    C28   S    
C3    O14   S    
C7    H6    S    
Cu1   O5    S    
C26   C30   S    
C2    C25   S    
C2    C3    S    
C9    C15   A    
O14   H22   S    
C24   N2    A    
C26   O10   S    
C22   C24   A    
C1    O2    A    
C25   O8    A    
C23   O5    A    
C10   C11   A    
C17   O11   S    
C14   H8    S    
O13   H21   S    
C26   H11   S    
C28   H9    S    
C4    H24   S    
C27   O13   S    
C20   C21   A    
C13   H4    S    
C18   C19   A    
Cu1   N2    S    
C7    C8    A    
C4    H1    S    
Cu2   O8    S    
C23   O6    A    
C18   O12   S    
O11   H16   S    
C20   N2    A    
C14   C15   A    
C12   C30   S    
Cu2   N1    S    
Cu1   Cu2   S    
C21   N1    A    
C4    C29   S    
C16   C17   A    
Cu1   O7    S    
C8    C9    A    
C29   H23   S    
C16   H15   S    
