data_mof_unit_49058.cif
_audit_creation_date              2012-12-10T16:52:39-0500
_audit_creation_method            fapswitch 2.2
_symmetry_space_group_name_H-M    P1
_symmetry_Int_Tables_number       1
_space_group_crystal_system       triclinic
_cell_length_a                    7.771948
_cell_length_b                    8.572183
_cell_length_c                    14.422229
_cell_angle_alpha                 93.468538
_cell_angle_beta                  95.648188
_cell_angle_gamma                 93.966079
_cell_volume                      951.696139699

loop_
_atom_site_label
_atom_site_type_symbol
_atom_type_description
_atom_site_fract_x
_atom_site_fract_y
_atom_site_fract_z
_atom_type_partial_charge
C1    C     C_R   0.044638 0.794590 0.496582 0.952308
C2    C     C_R   0.931166 0.491736 0.319399 0.884773
C3    C     C_R   0.124919 0.596388 0.774616 -0.090545
C4    C     C_R   0.888345 0.494164 0.218179 -0.096955
C5    C     C_R   0.064232 0.722134 0.922127 -0.191338
C6    C     C_R   0.967664 0.422184 0.064325 -0.202158
C7    C     C_R   0.005505 0.655617 0.832355 -0.240921
C8    C     C_R   0.010323 0.442710 0.159946 -0.249848
C9    C     C_R   0.302703 0.617969 0.806700 0.096789
C10   C     C_R   0.725705 0.541866 0.178454 0.074508
C11   C     C_R   0.347162 0.629842 0.902231 0.043029
C12   C     C_R   0.954807 0.205233 0.502139 0.979435
C13   C     C_R   0.701823 0.552703 0.080499 0.029952
C14   C     C_R   0.236095 0.706336 0.958275 0.149053
C15   C     C_R   0.810658 0.469921 0.024775 0.148328
C16   C     C_R   0.503267 0.576727 0.942010 0.052001
C17   C     C_R   0.559887 0.624069 0.035452 0.066110
C18   C     C_3   0.565387 0.541678 0.233492 -0.344812
C19   C     C_3   0.556842 0.692455 0.296360 -0.776451
C20   C     C_3   0.439580 0.680011 0.746518 -0.391231
C21   C     C_3   0.390429 0.831440 0.703347 -0.832953
C22   C     C_R   0.472736 0.742312 0.079850 -0.235344
C23   C     C_R   0.598499 0.471941 0.891991 -0.266534
C24   C     C_R   0.304389 0.771810 0.046021 -0.228588
C25   C     C_R   0.755907 0.427411 0.931282 -0.211453
C26   C     C_2   0.068207 0.958011 0.494957 -0.389196
C27   C     C_2   0.930806 0.041642 0.502768 -0.389083
C28   C     C_R   0.071509 0.531066 0.678993 0.878908
H1    H     H_    0.230737 0.848282 0.086732 0.146793
H2    H     H_    0.801014 0.990593 0.509781 0.175678
H3    H     H_    0.486823 0.364228 0.438073 0.185909
H4    H     H_    0.514578 0.642697 0.554879 0.193202
H5    H     H_    0.559591 0.667478 0.370419 0.276255
H6    H     H_    0.667127 0.779367 0.289707 0.234440
H7    H     H_    0.432678 0.746140 0.278831 0.222399
H8    H     H_    0.443410 0.520925 0.186260 0.191235
H9    H     H_    0.556380 0.436109 0.274113 0.197614
H10   H     H_    0.264305 0.814082 0.660184 0.260120
H11   H     H_    0.380940 0.924175 0.759456 0.255810
H12   H     H_    0.831732 0.354610 0.889480 0.152915
H13   H     H_    0.491294 0.872410 0.659123 0.232089
H14   H     H_    0.565663 0.712174 0.788764 0.200912
H15   H     H_    0.467620 0.588137 0.694797 0.219821
H16   H     H_    0.133489 0.405310 0.188851 0.165808
H17   H     H_    0.870208 0.657249 0.806706 0.171889
H18   H     H_    0.974862 0.777983 0.964207 0.150029
H19   H     H_    0.056276 0.366922 0.021403 0.147558
H20   H     H_    0.532489 0.808818 0.141437 0.176387
H21   H     H_    0.553724 0.425775 0.821651 0.161568
H22   H     H_    0.197995 0.008993 0.487909 0.179503
N1    N     N_2   0.440860 0.456490 0.474790 -0.186347
N2    N     N_2   0.559140 0.543510 0.525210 -0.202320
O1    O     O_R   0.891570 0.738930 0.506190 -0.618263
O2    O     O_R   0.108430 0.261070 0.493810 -0.609696
O3    O     O_R   0.174650 0.711050 0.490030 -0.634351
O4    O     O_R   0.825350 0.288950 0.509970 -0.628182
O5    O     O_R   0.909850 0.521900 0.644940 -0.622142
O6    O     O_R   0.090150 0.478100 0.355060 -0.620627
O7    O     O_R   0.192930 0.494020 0.628780 -0.615671
O8    O     O_R   0.807070 0.505980 0.371220 -0.619812
Zn1   Zn    Zn3+2 0.810990 0.518620 0.510790 0.915735
Zn2   Zn    Zn3+2 0.189010 0.481380 0.489210 0.925957

loop_
_geom_bond_atom_site_label_1
_geom_bond_atom_site_label_2
_ccdc_geom_bond_type
O6    Zn2   S    
C20   H14   S    
C2    O6    A    
O5    Zn1   S    
C3    C9    A    
H3    N1    S    
C5    H18   S    
C9    C20   S    
C2    C4    S    
C17   C22   A    
C21   H11   S    
C13   C17   A    
C4    C8    A    
C20   H15   S    
C13   C15   A    
C1    O3    A    
C19   H7    S    
C28   O5    A    
C27   H2    S    
C9    C11   A    
C5    C14   A    
C12   O4    A    
N1    Zn2   S    
O1    Zn1   S    
C10   C18   S    
C21   H13   S    
C7    H17   S    
C3    C28   S    
C18   H9    S    
C22   H20   S    
C16   C23   A    
C3    C7    A    
N2    Zn1   S    
C26   H22   S    
C25   H12   S    
C26   C27   D    
C1    C26   S    
C11   C14   A    
C22   C24   A    
C15   C25   A    
C23   H21   S    
C6    H19   S    
C12   C27   S    
C4    C10   A    
N1    N2    D    
O3    Zn2   S    
C23   C25   A    
C20   C21   S    
C18   C19   S    
C11   C16   A    
C28   O7    A    
C14   C24   A    
C5    C7    A    
C1    O1    A    
C24   H1    S    
H4    N2    S    
O7    Zn2   S    
C6    C8    A    
O2    Zn2   S    
C6    C15   A    
O4    Zn1   S    
C18   H8    S    
C10   C13   A    
C12   O2    A    
C21   H10   S    
C8    H16   S    
C16   C17   A    
C19   H5    S    
O8    Zn1   S    
C2    O8    A    
C19   H6    S    
