data_mof_unit_48327.cif
_audit_creation_date              2012-12-10T17:16:35-0500
_audit_creation_method            fapswitch 2.2
_symmetry_space_group_name_H-M    P1
_symmetry_Int_Tables_number       1
_space_group_crystal_system       triclinic
_cell_length_a                    10.205551
_cell_length_b                    10.55132
_cell_length_c                    10.873824
_cell_angle_alpha                 90.916911
_cell_angle_beta                  95.397404
_cell_angle_gamma                 78.524592
_cell_volume                      1142.41690107

loop_
_atom_site_label
_atom_site_type_symbol
_atom_type_description
_atom_site_fract_x
_atom_site_fract_y
_atom_site_fract_z
_atom_type_partial_charge
C1    C     C_R   0.443850 0.506774 0.267714 0.924981
C2    C     C_R   0.491754 0.741738 0.486613 0.872035
C3    C     C_R   0.741987 0.057586 0.437433 -0.196017
C4    C     C_R   0.257122 0.939147 0.563451 -0.162084
C5    C     C_R   0.816936 0.983134 0.350552 0.101183
C6    C     C_R   0.184367 0.009176 0.653300 0.100082
C7    C     C_R   0.761279 0.891023 0.282293 -0.165561
C8    C     C_R   0.237262 0.105371 0.718468 -0.191255
C9    C     C_R   0.639958 0.861506 0.310136 0.093161
C10   C     C_R   0.356005 0.138569 0.687566 0.106664
C11   C     C_R   0.573604 0.925454 0.410336 0.037824
C12   C     C_R   0.556180 0.492592 0.732308 0.929819
C13   C     C_R   0.422678 0.074980 0.587139 0.035503
C14   C     C_R   0.614013 0.035687 0.460546 0.042777
C15   C     C_R   0.383170 0.963959 0.537582 0.028756
C16   C     C_R   0.472301 0.880490 0.465411 -0.223372
C17   C     C_R   0.525272 0.119402 0.532855 -0.222153
C18   C     C_3   0.870543 0.709548 0.599182 0.118570
C19   C     C_3   0.791068 0.782913 0.698801 -0.750122
C20   C     C_3   0.131410 0.297398 0.391936 0.125888
C21   C     C_3   0.215762 0.228807 0.293126 -0.747884
C22   C     C_2   0.411802 0.510597 0.136198 -0.369242
C23   C     C_2   0.588306 0.486143 0.863825 -0.370620
C24   C     C_2   0.513317 0.491865 0.065374 -0.141776
C25   C     C_2   0.486904 0.500504 0.934578 -0.140247
C26   C     C_2   0.072057 0.496212 0.483052 0.344055
C27   C     C_2   0.927152 0.507112 0.514300 0.348239
C28   C     C_R   0.507828 0.258148 0.512877 0.868677
H1    H     H_    0.186593 0.154700 0.794105 0.147069
H2    H     H_    0.132312 0.581182 0.637819 0.147899
H3    H     H_    0.015220 0.915433 0.346242 0.170557
H4    H     H_    0.977926 0.069504 0.390004 0.160108
H5    H     H_    0.019949 0.035453 0.752428 0.185540
H6    H     H_    0.992622 0.994606 0.604221 0.160060
H7    H     H_    0.484410 0.771649 0.246810 0.173037
H8    H     H_    0.642653 0.683298 0.239891 0.210147
H9    H     H_    0.351564 0.317904 0.755531 0.210515
H10   H     H_    0.510575 0.229846 0.750898 0.172033
H11   H     H_    0.818800 0.740441 0.507125 0.160214
H12   H     H_    0.813943 0.839987 0.208531 0.155937
H13   H     H_    0.968407 0.740317 0.604952 0.113344
H14   H     H_    0.847257 0.760632 0.790916 0.241999
H15   H     H_    0.775333 0.888597 0.681821 0.199060
H16   H     H_    0.691828 0.755085 0.698928 0.258912
H17   H     H_    0.034836 0.264933 0.380711 0.095283
H18   H     H_    0.179937 0.264206 0.484673 0.156794
H19   H     H_    0.313565 0.259978 0.296401 0.258847
H20   H     H_    0.234509 0.122567 0.307938 0.199836
H21   H     H_    0.161659 0.251706 0.200235 0.239349
H22   H     H_    0.787296 0.127981 0.490133 0.159199
H23   H     H_    0.211508 0.867958 0.512331 0.165935
H24   H     H_    0.382423 0.518917 0.896285 0.186924
H25   H     H_    0.617805 0.471580 0.103666 0.186866
H26   H     H_    0.692515 0.468463 0.902575 0.161076
H27   H     H_    0.307563 0.530204 0.097477 0.162638
H28   H     H_    0.866965 0.417492 0.362437 0.143755
N1    N     N_2   0.157300 0.551390 0.551120 -0.232897
N2    N     N_2   0.842700 0.448610 0.448880 -0.233256
N3    N     N_3   0.947559 0.002706 0.327416 -0.455202
N4    N     N_3   0.061166 0.975767 0.682372 -0.467079
N5    N     N_3   0.582130 0.775176 0.228349 -0.447318
N6    N     N_3   0.412580 0.226411 0.768465 -0.447764
O1    O     O_R   0.568940 0.489660 0.307530 -0.639791
O2    O     O_3   0.113315 0.433101 0.376112 -0.589353
O3    O     O_R   0.431060 0.510340 0.692470 -0.638939
O4    O     O_R   0.348880 0.522640 0.340350 -0.553503
O5    O     O_R   0.651120 0.477360 0.659650 -0.554999
O6    O     O_R   0.610030 0.300280 0.483580 -0.618195
O7    O     O_R   0.389970 0.699720 0.516420 -0.618795
O8    O     O_R   0.389970 0.333270 0.516400 -0.603527
O9    O     O_R   0.610030 0.666730 0.483600 -0.598549
O10   O     O_3   0.885080 0.574641 0.618882 -0.589287
Zn1   Zn    Zn3+2 0.646940 0.477980 0.478080 0.953632
Zn2   Zn    Zn3+2 0.353060 0.522020 0.521920 0.954005

loop_
_geom_bond_atom_site_label_1
_geom_bond_atom_site_label_2
_ccdc_geom_bond_type
N1    Zn2   S    
O8    Zn2   S    
C7    H12   S    
C27   O10   S    
C24   C25   S    
C20   O2    S    
C22   H27   S    
O5    Zn1   S    
H10   N6    S    
C2    O7    A    
C2    C16   S    
C11   C16   A    
C20   H17   S    
C14   C17   A    
C19   H14   S    
C13   C17   A    
C18   H11   S    
C21   H20   S    
C3    C5    A    
C4    C15   A    
C21   H21   S    
H9    N6    S    
C24   H25   S    
C25   H24   S    
C1    C22   S    
H7    N5    S    
C2    O9    A    
C19   H16   S    
H6    N4    S    
C9    C11   A    
C12   C23   S    
C26   C27   S    
C10   N6    S    
C3    C14   A    
C9    N5    S    
C8    H1    S    
C1    O1    A    
C8    C10   A    
C26   N1    D    
C3    H22   S    
C19   H15   S    
C1    O4    A    
H5    N4    S    
C7    C9    A    
C13   C15   A    
C18   O10   S    
C12   O5    A    
C22   C24   D    
C20   H18   S    
C5    N3    S    
C4    H23   S    
H3    N3    S    
C15   C16   A    
O4    Zn2   S    
H2    N1    S    
C6    N4    S    
O7    Zn2   S    
C23   C25   D    
C20   C21   S    
C23   H26   S    
C4    C6    A    
C18   C19   S    
C12   O3    A    
C18   H13   S    
O9    Zn1   S    
C11   C14   A    
C5    C7    A    
C26   O2    S    
C6    C8    A    
O1    Zn1   S    
H4    N3    S    
C28   O6    A    
O6    Zn1   S    
C17   C28   S    
C10   C13   A    
C28   O8    A    
O3    Zn2   S    
H8    N5    S    
N2    Zn1   S    
H28   N2    S    
C21   H19   S    
C27   N2    D    
