data_mof_unit_58578.cif
_audit_creation_date              2013-03-05T15:40:30-0500
_audit_creation_method            fapswitch 2.2
_symmetry_space_group_name_H-M    P1
_symmetry_Int_Tables_number       1
_space_group_crystal_system       monoclinic
_cell_length_a                    7.146145
_cell_length_b                    11.222298
_cell_length_c                    18.743922
_cell_angle_alpha                 90.0
_cell_angle_beta                  93.030923
_cell_angle_gamma                 90.0
_cell_volume                      1501.08798296

loop_
_atom_site_label
_atom_site_type_symbol
_atom_site_description
_atom_site_fract_x
_atom_site_fract_y
_atom_site_fract_z
_atom_type_partial_charge
O1    O     O_R   0.330540 0.606360 0.598870 -0.541248
O2    O     O_R   0.669460 0.106360 0.401130 -0.541248
O3    O     O_R   0.026770 0.620470 0.750430 -0.508695
O4    O     O_R   0.973230 0.120470 0.249570 -0.508696
O5    O     O_R   0.856460 0.393640 0.750930 -0.525343
O6    O     O_R   0.143540 0.893640 0.249070 -0.525344
C1    C     C_R   0.198292 0.648091 0.774158 0.721848
C2    C     C_R   0.801708 0.148091 0.225842 0.721848
O7    O     O_R   0.000920 0.620350 0.599420 -0.551001
O8    O     O_R   0.999080 0.120350 0.400580 -0.551001
O9    O     O_R   0.830430 0.393520 0.598850 -0.546620
O10   O     O_R   0.169570 0.893520 0.401150 -0.546620
C3    C     C_R   0.166737 0.647483 0.574911 0.737027
C4    C     C_R   0.833263 0.147483 0.425089 0.737027
O11   O     O_R   0.356570 0.606480 0.750960 -0.511276
O12   O     O_R   0.643430 0.106480 0.249040 -0.511276
O13   O     O_3   0.176990 0.425580 0.674890 -0.395675
O14   O     O_3   0.823010 0.925580 0.325110 -0.395675
V1    V     V_3+5 0.902170 0.513810 0.674910 1.540008
V2    V     V_3+5 0.097830 0.013810 0.325090 1.540006
O15   O     O_R   0.500800 0.379530 0.599380 -0.555887
O16   O     O_R   0.499200 0.879530 0.400620 -0.555887
C5    C     C_R   0.666630 0.352386 0.574889 0.721808
C6    C     C_R   0.333370 0.852386 0.425111 0.721809
O17   O     O_R   0.526650 0.379650 0.750390 -0.533067
O18   O     O_R   0.473350 0.879650 0.249610 -0.533066
C7    C     C_R   0.698785 0.350307 0.772984 0.797837
C8    C     C_R   0.301215 0.850307 0.227016 0.797838
V3    V     V_3+5 0.402160 0.486190 0.674900 1.509902
V4    V     V_3+5 0.597840 0.986190 0.325100 1.509903
O19   O     O_3   0.677210 0.574420 0.674910 -0.361193
O20   O     O_3   0.322790 0.074420 0.325090 -0.361193
C9    C     C_R   0.747453 0.068695 0.880706 0.528285
C10   C     C_R   0.252546 0.568695 0.119294 0.528283
H1    H     H_    0.709105 0.114118 0.769276 0.161071
H2    H     H_    0.290895 0.614118 0.230724 0.161071
H3    H     H_    0.843336 0.942909 0.999640 0.181729
H4    H     H_    0.156664 0.442909 0.000360 0.181727
C11   C     C_R   0.719366 0.270309 0.834673 -0.160479
C12   C     C_R   0.280634 0.770309 0.165327 -0.160478
C13   C     C_R   0.772332 0.354752 0.182540 -0.055016
C14   C     C_R   0.227668 0.854752 0.817460 -0.055016
C15   C     C_R   0.777299 0.440695 0.128701 0.551691
C16   C     C_R   0.222701 0.940695 0.871299 0.551692
C17   C     C_R   0.798582 0.404645 0.058051 -0.099167
C18   C     C_R   0.201418 0.904645 0.941949 -0.099168
C19   C     C_R   0.792355 0.282341 0.037709 0.055276
C20   C     C_R   0.207645 0.782341 0.962291 0.055276
C21   C     C_R   0.800988 0.196832 0.094141 0.071120
C22   C     C_R   0.199012 0.696832 0.905859 0.071118
C23   C     C_R   0.773664 0.241106 0.964405 -0.009122
C24   C     C_R   0.226336 0.741106 0.035595 -0.009121
C25   C     C_R   0.783448 0.115013 0.950927 -0.009407
C26   C     C_R   0.216552 0.615013 0.049073 -0.009406
C27   C     C_R   0.822759 0.037116 0.008002 -0.048735
C28   C     C_R   0.177240 0.537115 0.991998 -0.048735
C29   C     C_R   0.826854 0.076469 0.077955 0.009527
C30   C     C_R   0.173146 0.576469 0.922045 0.009528
C31   C     C_R   0.734237 0.317694 0.904132 0.369455
C32   C     C_R   0.265763 0.817694 0.095868 0.369455
C33   C     C_R   0.724189 0.147896 0.823415 -0.101306
C34   C     C_R   0.275811 0.647896 0.176585 -0.101305
C35   C     C_R   0.787465 0.233551 0.166222 -0.091596
C36   C     C_R   0.212535 0.733551 0.833778 -0.091599
H5    H     H_    0.762870 0.382299 0.237634 0.146237
H6    H     H_    0.237130 0.882299 0.762366 0.146238
H7    H     H_    0.820818 0.475396 0.021264 0.181093
H8    H     H_    0.179182 0.975396 0.978736 0.181093
H9    H     H_    0.845405 0.009949 0.119579 0.137935
H10   H     H_    0.154595 0.509949 0.880421 0.137935
C37   C     C_2   0.830252 0.233756 0.484843 -0.325188
C38   C     C_2   0.169748 0.733756 0.515157 -0.325189
H11   H     H_    0.963551 0.270990 0.504457 0.149008
H12   H     H_    0.036449 0.770990 0.495543 0.149008
C39   C     C_2   0.669656 0.266093 0.515147 -0.315557
C40   C     C_2   0.330344 0.766092 0.484853 -0.315557
H13   H     H_    0.536358 0.228857 0.495534 0.151069
H14   H     H_    0.463642 0.728857 0.504466 0.151069
S1    S     S_3+6 0.699345 0.915401 0.862268 -0.016826
O21   O     O_2   0.593683 0.903249 0.791377 -0.332067
O22   O     O_2   0.872594 0.844262 0.857916 -0.386229
O23   O     O_3   0.580362 0.854081 0.927522 -0.497172
H15   H     H_    0.604158 0.767282 0.924527 0.400314
S2    S     S_3+6 0.300655 0.415401 0.137732 -0.016826
O24   O     O_2   0.406316 0.403249 0.208623 -0.332067
O25   O     O_2   0.127406 0.344262 0.142084 -0.386230
O26   O     O_3   0.419639 0.354081 0.072478 -0.497172
H16   H     H_    0.395839 0.267282 0.075472 0.400315
N1    N     N_R   0.681204 0.439768 0.911885 0.034435
O27   O     O_R   0.770287 0.524528 0.880662 -0.397839
O28   O     O_R   0.527253 0.464650 0.942206 -0.360890
N2    N     N_R   0.318796 0.939768 0.088115 0.034435
O29   O     O_R   0.229713 0.024528 0.119338 -0.397839
O30   O     O_R   0.472747 0.964650 0.057794 -0.360890
S3    S     S_3+6 0.737058 0.592542 0.148048 -0.025541
O31   O     O_2   0.911342 0.664527 0.149539 -0.402000
O32   O     O_2   0.610367 0.644662 0.090036 -0.326319
O33   O     O_3   0.645915 0.604978 0.228597 -0.520622
H17   H     H_    0.693726 0.681472 0.248587 0.354411
S4    S     S_3+6 0.262942 0.092541 0.851952 -0.025541
O34   O     O_2   0.088658 0.164527 0.850461 -0.401999
O35   O     O_2   0.389633 0.144662 0.909964 -0.326320
O36   O     O_3   0.354085 0.104978 0.771403 -0.520623
H18   H     H_    0.306280 0.181474 0.751414 0.354412

loop_
_geom_bond_atom_site_label_1
_geom_bond_atom_site_label_2
_geom_bond_distance
_ccdc_geom_bond_type
V4    O20   2.200846 S    
O26   H16   0.990919 S    
C21   C35   1.420699 A    
C22   C36   1.420697 A    
C4    C37   1.481501 S    
S3    O31   1.483536 D    
S2    O26   1.674070 S    
O4    C2    1.318573 A    
V1    O19   1.745571 S    
S3    O33   1.681433 S    
C21   C29   1.398810 A    
C19   C21   1.427094 A    
O9    V1    2.010066 S    
C10   S2    1.784529 S    
C12   C32   1.405156 A    
C40   H14   1.086331 S    
O3    C1    1.318574 A    
C8    C12   1.465140 S    
O12   V4    2.002520 S    
O33   H17   0.990211 S    
C10   C34   1.397107 A    
C12   C34   1.390571 A    
C31   N1    1.430849 S    
C17   C19   1.424583 A    
O9    C5    1.315054 A    
O7    C3    1.328695 A    
S4    O34   1.483537 D    
C24   C32   1.435551 A    
O5    C7    1.313863 A    
O7    V1    2.008795 S    
O6    C8    1.313865 A    
C7    C11   1.465142 S    
C17   H7    1.068974 S    
C15   S3    1.768916 S    
O3    V1    2.023864 S    
O14   V4    1.746944 S    
N1    O28   1.295158 A    
C38   C40   1.356600 D    
C20   C22   1.427095 A    
C2    O12   1.318519 A    
O17   V3    2.022372 S    
C13   C15   1.397747 A    
C14   C16   1.397745 A    
H2    C34   1.083297 S    
O1    V3    2.008583 S    
C24   C26   1.439776 A    
C30   H10   1.082859 S    
O11   V3    2.002520 S    
C18   C20   1.424583 A    
C25   C27   1.398519 A    
C9    C25   1.425818 A    
C11   C33   1.390572 A    
C26   C28   1.398519 A    
C22   C30   1.398811 A    
S2    O24   1.499431 D    
C38   H12   1.086332 S    
O8    C4    1.328694 A    
O8    V2    2.008795 S    
S1    O22   1.479015 D    
C9    S1    1.784529 S    
C19   C23   1.449286 A    
C16   C18   1.400622 A    
O15   V3    2.009697 S    
S4    O36   1.681432 S    
C23   C25   1.439776 A    
H3    C27   1.079966 S    
C18   H8    1.068973 S    
C39   H13   1.086331 S    
C11   C31   1.405156 A    
O10   V2    2.010063 S    
S4    O35   1.496675 D    
H4    C28   1.079965 S    
H1    C33   1.083297 S    
C15   C17   1.400620 A    
C10   C26   1.425820 A    
O15   C5    1.328684 A    
O16   C6    1.328682 A    
O1    C3    1.315016 A    
C13   C35   1.399557 A    
C14   C36   1.399558 A    
C37   H11   1.086332 S    
V2    O20   1.745571 S    
O16   V4    2.009700 S    
C6    C40   1.481480 S    
C5    C39   1.481480 S    
S1    O23   1.674069 S    
C13   H5    1.083481 S    
S3    O32   1.496675 D    
O18   V4    2.022372 S    
O5    V1    2.001244 S    
C3    C38   1.481501 S    
O17   C7    1.321304 A    
O6    V2    2.001244 S    
O10   C6    1.315055 A    
O18   C8    1.321303 A    
O2    V4    2.008585 S    
C27   C29   1.382423 A    
V3    O19   2.200846 S    
O13   V3    1.746943 S    
C37   C39   1.356600 D    
C16   S4    1.768915 S    
N2    O30   1.295158 A    
C1    O11   1.318521 A    
N2    O29   1.300755 A    
O13   V1    2.199404 S    
C28   C30   1.382421 A    
O14   V2    2.199405 S    
O2    C4    1.315017 A    
C1    C36   1.472045 S    
C2    C35   1.472045 S    
S1    O21   1.499432 D    
O4    V2    2.023867 S    
C20   C24   1.449285 A    
C23   C31   1.435549 A    
C9    C33   1.397109 A    
O23   H15   0.990918 S    
O36   H18   0.990208 S    
C14   H6    1.083481 S    
S2    O25   1.479016 D    
C29   H9    1.082858 S    
N1    O27   1.300755 A    
C32   N2    1.430849 S    
