data_mof_unit_52297.cif
_audit_creation_date              2012-10-26T20:03:22-0400
_audit_creation_method            fapswitch 2.2
_symmetry_space_group_name_H-M    P1
_symmetry_Int_Tables_number       1
_space_group_crystal_system       triclinic
_cell_length_a                    10.605753
_cell_length_b                    12.316286
_cell_length_c                    13.274812
_cell_angle_alpha                 117.088465
_cell_angle_beta                  77.235681
_cell_angle_gamma                 101.94155
_cell_volume                      1494.31216262

loop_
_atom_site_label
_atom_site_type_symbol
_atom_type_description
_atom_site_fract_x
_atom_site_fract_y
_atom_site_fract_z
_atom_type_partial_charge
C1    C     C_R   0.515006 0.854587 0.286804 0.540582
C2    C     C_R   0.499674 0.570876 0.004867 0.042598
C3    C     C_R   0.460599 0.654630 0.119140 -0.001351
C4    C     C_R   0.740620 0.999828 0.499416 0.567218
C5    C     C_R   0.449017 0.444581 0.970003 0.036928
C6    C     C_R   0.337664 0.411183 0.036770 0.006176
C7    C     C_R   0.286498 0.500045 0.141018 -0.132737
C8    C     C_R   0.349301 0.619303 0.183432 -0.107841
C9    C     C_R   0.511504 0.348860 0.876648 0.271513
C10   C     C_R   0.331234 0.199021 0.896009 -0.178549
C11   C     C_R   0.531270 0.773145 0.164429 0.007189
C12   C     C_3   0.013121 0.900315 0.513596 -0.112990
C13   C     C_R   0.710649 0.349188 0.331862 -0.140892
C14   C     C_R   0.321976 0.758366 0.643289 0.052616
C15   C     C_R   0.274270 0.655868 0.668243 0.255893
C16   C     C_R   0.480930 0.145709 0.713339 0.586538
C17   C     C_R   0.340029 0.551821 0.609427 -0.076813
C18   C     C_R   0.450595 0.546858 0.526629 -0.036009
C19   C     C_R   0.490987 0.651434 0.502332 0.175447
C20   C     C_R   0.523922 0.443138 0.468654 0.011977
C21   C     C_R   0.634144 0.446235 0.386750 0.046748
C22   C     C_R   0.668571 0.546812 0.360940 -0.167753
C23   C     C_3   0.955310 0.893161 0.413021 -0.134087
C24   C     C_R   0.598811 0.646904 0.417379 -0.073601
C25   C     C_R   0.495995 0.337481 0.490754 0.085058
C26   C     C_R   0.679681 0.249874 0.359504 0.053644
C27   C     C_R   0.259754 0.998608 0.498538 0.563940
C28   C     C_3   0.987939 0.095063 0.481482 -0.124873
C29   C     C_3   0.067241 0.988911 0.396789 0.090857
C30   C     C_3   0.122981 0.996278 0.496886 0.035107
C31   C     C_3   0.045528 0.102024 0.582141 -0.149589
C32   C     C_3   0.933731 0.006292 0.598284 0.086660
C33   C     C_3   0.724871 0.373501 0.897641 0.014882
C34   C     C_3   0.877802 0.999340 0.498386 0.032458
C35   C     C_3   0.858381 0.438584 0.870643 -0.231644
C36   C     C_3   0.907053 0.387327 0.742399 -0.362725
C37   C     C_3   0.083629 0.740184 0.788165 -0.004485
C38   C     C_3   0.120365 0.852232 0.896900 -0.260247
C39   C     C_3   0.034647 0.953054 0.933980 -0.470206
C40   C     C_R   0.280075 0.288652 0.999435 -0.140625
C41   C     C_R   0.445509 0.229431 0.833129 0.018552
C42   C     C_R   0.626902 0.812445 0.092710 -0.150438
C43   C     C_R   0.649310 0.737866 0.976793 -0.127082
C44   C     C_R   0.584203 0.619332 0.931346 0.144923
Cu1   Cu    Cu3+1 0.529830 0.098270 0.475420 0.986985
Cu2   Cu    Cu3+1 0.470170 0.901730 0.524580 0.935970
H1    H     H_    0.682158 0.902856 0.125870 0.134818
H2    H     H_    0.302539 0.475834 0.631416 0.128570
H3    H     H_    0.634140 0.719194 0.391701 0.175696
H4    H     H_    0.086920 0.186244 0.651214 0.117470
H5    H     H_    0.025850 0.820874 0.527115 0.133076
H6    H     H_    0.915529 0.808003 0.343791 0.112286
H7    H     H_    0.279642 0.106992 0.863465 0.127594
H8    H     H_    0.200572 0.476198 0.192162 0.110736
H9    H     H_    0.193182 0.262989 0.048469 0.125289
H10   H     H_    0.691258 0.424266 0.991016 0.099370
H11   H     H_    0.735336 0.278248 0.879825 0.167365
H12   H     H_    0.715145 0.774169 0.921353 0.147857
H13   H     H_    0.852625 0.538523 0.904413 0.163051
H14   H     H_    0.929359 0.427141 0.914397 0.124316
H15   H     H_    0.891933 0.285615 0.703603 0.171269
H16   H     H_    0.012363 0.419117 0.727366 0.150569
H17   H     H_    0.853365 0.419475 0.700147 0.210144
H18   H     H_    0.984648 0.697845 0.810081 0.162925
H19   H     H_    0.074179 0.765054 0.719593 0.122131
H20   H     H_    0.108722 0.823323 0.966792 0.206707
H21   H     H_    0.223854 0.889975 0.882949 0.176464
H22   H     H_    0.048786 0.986326 0.866867 0.172550
H23   H     H_    0.306577 0.684292 0.265371 0.155640
H24   H     H_    0.061865 0.031425 0.014171 0.165313
H25   H     H_    0.930472 0.918073 0.949750 0.163612
H26   H     H_    0.738943 0.175132 0.318001 0.120549
H27   H     H_    0.751926 0.549175 0.297367 0.098554
H28   H     H_    0.794886 0.350878 0.268927 0.091694
H29   H     H_    0.414076 0.327054 0.551445 0.126957
H30   H     H_    0.277297 0.842216 0.687757 0.118509
H31   H     H_    0.975480 0.174726 0.468199 0.135414
I1    I     I_    0.175869 0.973446 0.235757 -0.438093
I2    I     I_    0.589511 0.545872 0.752186 -0.372561
I3    I     I_    0.824833 0.016606 0.757602 -0.462193
N1    N     N_R   0.575030 0.246270 0.438190 -0.226684
N2    N     N_R   0.425760 0.754330 0.561190 -0.260195
O1    O     O_R   0.537510 0.972500 0.318130 -0.488851
O2    O     O_3   0.169802 0.651502 0.752099 -0.581220
O3    O     O_R   0.487140 0.806530 0.359650 -0.539487
O4    O     O_R   0.708330 0.082950 0.479220 -0.509749
O5    O     O_R   0.657960 0.916980 0.520740 -0.492654
O6    O     O_R   0.512860 0.193470 0.640350 -0.455384
O7    O     O_R   0.462490 0.027500 0.681870 -0.502121
O8    O     O_R   0.342040 0.083020 0.479260 -0.491760
O9    O     O_R   0.291670 0.917050 0.520780 -0.528706
O10   O     O_3   0.638312 0.369638 0.828648 -0.532756

loop_
_geom_bond_atom_site_label_1
_geom_bond_atom_site_label_2
_ccdc_geom_bond_type
C26   H26   S    
C39   H22   S    
C35   C36   S    
C1    C11   S    
C17   H2    S    
C12   H5    S    
Cu1   O4    S    
C7    C8    A    
Cu2   O7    S    
Cu1   Cu2   S    
C12   C23   S    
C8    H23   S    
C37   C38   S    
C27   O8    A    
C23   C29   S    
C35   H13   S    
C28   C29   S    
C38   C39   S    
C4    O4    A    
C20   C25   A    
C11   C42   A    
C10   C40   A    
C18   C19   A    
C10   H7    S    
C43   H12   S    
Cu2   N2    S    
C29   I1    S    
C38   H20   S    
C2    C44   A    
C37   H19   S    
C37   O2    S    
C27   O9    A    
C36   H17   S    
C18   C20   A    
Cu2   O3    S    
C40   H9    S    
C33   H10   S    
C28   C34   S    
C16   O7    A    
C21   C22   A    
C12   C32   S    
C27   C30   S    
C25   N1    A    
Cu1   O1    S    
C36   H16   S    
C9    O10   S    
C28   C31   S    
C1    O3    A    
C4    C34   S    
Cu1   O6    S    
C38   H21   S    
C3    C8    A    
C33   O10   S    
C4    O5    A    
Cu2   O9    S    
C35   H14   S    
C25   H29   S    
C32   C34   S    
C43   C44   A    
C5    C9    A    
C29   C30   S    
C28   H31   S    
C32   I3    S    
C31   C32   S    
C30   C31   S    
C23   C34   S    
C17   C18   A    
C13   C21   A    
C20   C21   A    
Cu1   O8    S    
C6    C7    A    
C26   N1    A    
C22   C24   A    
C13   C26   A    
C2    C5    A    
C42   C43   A    
C14   N2    A    
C31   H4    S    
C36   H15   S    
C19   N2    A    
C37   H18   S    
Cu2   O5    S    
C24   H3    S    
C15   C17   A    
C33   H11   S    
C12   C30   S    
C44   I2    S    
Cu1   N1    S    
C15   O2    S    
C1    O1    A    
C9    C41   A    
C22   H27   S    
C19   C24   A    
C23   H6    S    
C5    C6    A    
C33   C35   S    
C39   H24   S    
C2    C3    A    
C6    C40   A    
C42   H1    S    
C3    C11   A    
C13   H28   S    
C16   O6    A    
C39   H25   S    
C14   C15   A    
C7    H8    S    
C16   C41   S    
C14   H30   S    
C10   C41   A    
