data_mof_unit_29648.cif
_audit_creation_date              2012-12-11T15:25:59-0500
_audit_creation_method            fapswitch 2.2
_symmetry_space_group_name_H-M    P1
_symmetry_Int_Tables_number       1
_space_group_crystal_system       triclinic
_cell_length_a                    24.399725
_cell_length_b                    17.00506
_cell_length_c                    15.550706
_cell_angle_alpha                 90.36208
_cell_angle_beta                  51.279946
_cell_angle_gamma                 89.929735
_cell_volume                      5033.93180066

loop_
_atom_site_label
_atom_site_type_symbol
_atom_type_description
_atom_site_fract_x
_atom_site_fract_y
_atom_site_fract_z
_atom_type_partial_charge
C1    C     C_R   0.349530 0.141467 0.757748 0.453934
C2    C     C_2   0.323057 0.791494 0.928667 0.570356
C3    C     C_2   0.356553 0.268087 0.837768 0.328583
C4    C     C_2   0.698383 0.837404 0.019313 0.539422
C5    C     C_2   0.186712 0.703794 0.062671 0.538932
C6    C     C_2   0.822748 0.294029 0.930975 0.562957
C7    C     C_2   0.878713 0.773519 0.794036 0.508180
C8    C     C_2   0.200077 0.374585 0.010787 0.543870
C9    C     C_2   0.751462 0.174007 0.981250 0.341475
C10   C     C_2   0.308609 0.724677 0.898131 0.196847
C11   C     C_2   0.299181 0.297800 0.855609 0.307092
C12   C     C_R   0.666359 0.887563 0.200438 0.415693
C13   C     C_2   0.758539 0.797523 0.980618 0.191753
C14   C     C_2   0.250477 0.672660 0.981462 0.337723
C15   C     C_2   0.809271 0.227032 0.899186 0.202613
C16   C     C_2   0.826311 0.822362 0.871773 0.357495
C17   C     C_2   0.236631 0.306899 0.971481 0.423994
C18   C     C_R   0.616799 0.095469 0.591712 -0.019952
C19   C     C_R   0.414807 0.851223 0.409551 -0.040873
C20   C     C_R   0.382633 0.095168 0.409284 0.079530
C21   C     C_R   0.585732 0.850911 0.588316 0.000550
C22   C     C_R   0.118240 0.590784 0.590406 0.143026
C23   C     C_R   0.661902 0.123943 0.216143 0.482830
C24   C     C_R   0.915564 0.350863 0.409585 -0.030286
C25   C     C_R   0.882870 0.594093 0.408562 0.107806
C26   C     C_R   0.085285 0.351334 0.589393 -0.008005
C27   C     C_R   0.688709 0.102657 0.411728 -0.150609
C28   C     C_R   0.337096 0.855673 0.591207 -0.094338
C29   C     C_R   0.310793 0.102179 0.589161 -0.074489
C30   C     C_R   0.662502 0.854559 0.407086 -0.191292
C31   C     C_R   0.189167 0.601214 0.411367 -0.158496
C32   C     C_R   0.837768 0.355245 0.591287 -0.118750
C33   C     C_R   0.810489 0.600353 0.588251 -0.116292
C34   C     C_R   0.335911 0.883456 0.793827 0.454352
C35   C     C_R   0.160392 0.353249 0.407432 -0.195292
C36   C     C_R   0.572931 0.128543 0.212237 0.369689
C37   C     C_R   0.425418 0.882415 0.796133 0.344566
C38   C     C_R   0.439395 0.143754 0.760395 0.314913
C39   C     C_R   0.577647 0.889398 0.196879 0.376877
C40   C     C_R   0.072695 0.628919 0.212715 0.366844
C41   C     C_R   0.925130 0.384708 0.797451 0.350577
C42   C     C_R   0.936503 0.642218 0.765890 0.395748
C43   C     C_R   0.078844 0.398470 0.192923 0.370332
C44   C     C_R   0.383289 0.189440 0.783509 -0.251843
C45   C     C_R   0.847655 0.640977 0.763767 0.469444
C46   C     C_R   0.646833 0.861200 0.138645 -0.088053
C47   C     C_R   0.639943 0.157941 0.163436 -0.269855
C48   C     C_R   0.358923 0.853289 0.847369 -0.031405
C49   C     C_R   0.877472 0.685761 0.798622 -0.340632
C50   C     C_R   0.149446 0.382431 0.130097 -0.081839
C51   C     C_R   0.139393 0.658805 0.164584 -0.264902
C52   C     C_R   0.858062 0.356548 0.850507 -0.026613
C53   C     C_R   0.685147 0.112258 0.503748 0.114559
C54   C     C_R   0.363477 0.807222 0.500617 0.155028
C55   C     C_R   0.314437 0.113701 0.497360 0.112617
C56   C     C_R   0.168134 0.397832 0.194980 0.437991
C57   C     C_R   0.636214 0.806064 0.496548 0.132903
C58   C     C_R   0.186303 0.608336 0.502802 0.089772
C59   C     C_R   0.864508 0.306746 0.500650 0.154209
C60   C     C_R   0.814122 0.610344 0.496175 0.085228
C61   C     C_R   0.134128 0.305288 0.497671 0.136700
C62   C     C_R   0.186446 0.138702 0.590221 0.325078
C63   C     C_R   0.720632 0.693670 0.393418 0.293439
C64   C     C_R   0.813377 0.135673 0.409207 0.313581
C65   C     C_R   0.278925 0.696843 0.603086 0.290805
C66   C     C_R   0.685878 0.635526 0.588778 0.316961
C67   C     C_R   0.161500 0.624784 0.217050 0.496250
C68   C     C_R   0.219063 0.194070 0.395180 0.296820
C69   C     C_R   0.314037 0.634125 0.408540 0.315951
C70   C     C_R   0.779893 0.196856 0.603113 0.301003
C71   C     C_R   0.639934 0.688467 0.592345 0.469140
C72   C     C_R   0.271436 0.156351 0.392121 0.441231
C73   C     C_R   0.358692 0.689564 0.404044 0.423901
C74   C     C_R   0.728799 0.154416 0.607535 0.350735
C75   C     C_R   0.138746 0.189126 0.593943 0.360069
C76   C     C_R   0.771065 0.650757 0.390323 0.491596
C77   C     C_R   0.858964 0.189826 0.404239 0.424866
C78   C     C_R   0.835495 0.385109 0.795444 0.456297
C79   C     C_R   0.228959 0.652246 0.606940 0.370137
C80   C     C_R   0.662899 0.726567 0.494573 -0.253256
C81   C     C_R   0.256852 0.134833 0.492779 -0.164279
C82   C     C_R   0.335610 0.728967 0.501943 -0.138357
C83   C     C_R   0.743251 0.130465 0.507770 -0.212842
C84   C     C_R   0.160278 0.225607 0.496082 -0.201711
C85   C     C_R   0.756327 0.629186 0.490960 -0.265659
C86   C     C_R   0.836692 0.228616 0.501969 -0.139205
C87   C     C_R   0.244119 0.627457 0.507022 -0.217816
C88   C     C_2   0.687112 0.203960 0.062334 0.537107
H1    H     H_    0.599917 0.076828 0.670087 0.251767
H2    H     H_    0.293987 0.843681 0.675216 0.220397
H3    H     H_    0.263416 0.099731 0.672632 0.212303
H4    H     H_    0.704550 0.840907 0.322428 0.205894
H5    H     H_    0.236337 0.602699 0.327773 0.193078
H6    H     H_    0.795052 0.342868 0.675448 0.220289
H7    H     H_    0.762768 0.597271 0.671231 0.180708
H8    H     H_    0.200366 0.338256 0.322269 0.196794
H9    H     H_    0.263635 0.090594 0.812041 0.316290
H10   H     H_    0.734884 0.937081 0.205857 0.307089
H11   H     H_    0.737657 0.069207 0.194642 0.323060
H12   H     H_    0.448214 0.830938 0.326273 0.215192
H13   H     H_    0.263436 0.936326 0.801719 0.303392
H14   H     H_    0.761430 0.598816 0.809845 0.320775
H15   H     H_    0.234337 0.439222 0.211471 0.302706
H16   H     H_    0.237943 0.570495 0.193841 0.330363
H17   H     H_    0.763596 0.437094 0.800931 0.300655
H18   H     H_    0.484754 0.263586 0.263302 0.334445
H19   H     H_    0.425478 0.944275 0.020093 0.410686
H20   H     H_    0.544222 0.234691 0.714112 0.301835
H21   H     H_    0.569007 0.966216 0.987829 0.414105
H22   H     H_    0.982535 0.762565 0.263617 0.340899
H23   H     H_    0.398472 0.074216 0.332155 0.239780
H24   H     H_    0.923531 0.460628 0.017686 0.408740
H25   H     H_    0.034749 0.775024 0.731721 0.379095
H26   H     H_    0.057732 0.454743 0.988929 0.409477
H27   H     H_    0.115044 0.080917 0.722341 0.356221
H28   H     H_    0.682108 0.711049 0.317864 0.347808
H29   H     H_    0.811204 0.039786 0.344339 0.333014
H30   H     H_    0.244402 0.668248 0.750163 0.354140
H31   H     H_    0.687035 0.540177 0.654024 0.327709
H32   H     H_    0.180187 0.207499 0.319494 0.347595
H33   H     H_    0.312618 0.538596 0.342083 0.331121
H34   H     H_    0.553489 0.830289 0.670298 0.209934
H35   H     H_    0.746123 0.166694 0.749213 0.355478
H36   H     H_    0.565063 0.674480 0.750595 0.398785
H37   H     H_    0.340839 0.166509 0.231499 0.417807
H38   H     H_    0.432059 0.676213 0.244779 0.400982
H39   H     H_    0.653477 0.180780 0.761442 0.384735
H40   H     H_    0.072885 0.198249 0.753472 0.364913
H41   H     H_    0.839524 0.655340 0.228998 0.411272
H42   H     H_    0.931736 0.176456 0.244903 0.401906
H43   H     H_    0.152266 0.678504 0.760194 0.385969
H44   H     H_    0.330783 0.656307 0.779536 0.356607
H45   H     H_    0.102106 0.568726 0.667240 0.227654
H46   H     H_    0.814445 0.083863 0.919423 0.349723
H47   H     H_    0.807692 0.732902 0.014837 0.376810
H48   H     H_    0.337456 0.293832 0.702453 0.317722
H49   H     H_    0.833007 0.159167 0.779144 0.366092
H50   H     H_    0.312466 0.581566 0.920402 0.346034
H51   H     H_    0.244780 0.198311 0.003134 0.369106
H52   H     H_    0.802853 0.932581 0.916641 0.358364
H53   H     H_    0.287751 0.757470 0.074210 0.338672
H54   H     H_    0.624937 0.294437 0.129535 0.336872
H55   H     H_    0.720502 0.841422 0.875221 0.337715
H56   H     H_    0.949585 0.330371 0.326438 0.220825
H57   H     H_    0.429006 0.302527 0.841921 0.358147
H58   H     H_    0.786613 0.259349 0.076692 0.336233
H59   H     H_    0.125605 0.795187 0.128853 0.340338
H60   H     H_    0.250235 0.428818 0.868802 0.338952
H61   H     H_    0.968961 0.768227 0.645908 0.305148
H62   H     H_    0.900241 0.574536 0.330087 0.238883
H63   H     H_    0.054318 0.332950 0.672688 0.209170
H64   H     H_    0.736031 0.103591 0.328242 0.189807
N1    N     N_R   0.388930 0.078160 0.705470 -0.135830
N2    N     N_R   0.419500 0.922160 0.443350 -0.056875
N3    N     N_R   0.419500 0.077840 0.443350 -0.084458
N4    N     N_R   0.580500 0.922160 0.556650 -0.054254
N5    N     N_R   0.080500 0.577840 0.556650 -0.087901
N6    N     N_R   0.919500 0.422160 0.443350 -0.058344
N7    N     N_R   0.919500 0.577840 0.443350 -0.081851
N8    N     N_R   0.080500 0.422160 0.556650 -0.061489
N9    N     N_R   0.626210 0.077590 0.443410 -0.067364
N10   N     N_R   0.373790 0.922410 0.556590 -0.082039
N11   N     N_R   0.373790 0.077590 0.556590 -0.090222
N12   N     N_R   0.611070 0.921840 0.294530 -0.143463
N13   N     N_R   0.626210 0.922410 0.443410 -0.065552
N14   N     N_R   0.126210 0.577590 0.443410 -0.073095
N15   N     N_R   0.873790 0.422410 0.556590 -0.083576
N16   N     N_R   0.873790 0.577590 0.556590 -0.072664
N17   N     N_R   0.126210 0.422410 0.443410 -0.068847
N18   N     N_R   0.554800 0.077270 0.294580 -0.120071
N19   N     N_R   0.445200 0.922730 0.705420 -0.130790
N20   N     N_R   0.445200 0.077270 0.705420 -0.105691
N21   N     N_R   0.554800 0.922730 0.294580 -0.135961
N22   N     N_R   0.054800 0.577270 0.294580 -0.123983
N23   N     N_R   0.611070 0.078160 0.294530 -0.136676
N24   N     N_R   0.945200 0.422730 0.705420 -0.130593
N25   N     N_R   0.945200 0.577270 0.705420 -0.118031
N26   N     N_R   0.054800 0.422730 0.294580 -0.136583
N27   N     N_R   0.388930 0.921840 0.705470 -0.147345
N28   N     N_R   0.888930 0.578160 0.705470 -0.135477
N29   N     N_R   0.111070 0.421840 0.294530 -0.146171
N30   N     N_R   0.111070 0.578160 0.294530 -0.137077
N31   N     N_R   0.888930 0.421840 0.705470 -0.144205
N32   N     N_R   0.580500 0.077840 0.556650 -0.082551
Ni1   Ni    Ni4+2 0.382710 0.000000 0.629850 0.196184
Ni2   Ni    Ni4+2 0.617290 0.000000 0.370150 0.192584
Ni3   Ni    Ni4+2 0.882710 0.500000 0.629850 0.191704
Ni4   Ni    Ni4+2 0.117290 0.500000 0.370150 0.196994
Ni5   Ni    Ni4+2 0.513020 0.000000 0.629850 0.306261
Ni6   Ni    Ni4+2 0.486980 0.000000 0.370150 0.305324
Ni7   Ni    Ni4+2 0.013020 0.500000 0.629850 0.306200
Ni8   Ni    Ni4+2 0.986980 0.500000 0.370150 0.306000
O1    O     O_3   0.279211 0.145320 0.807320 -0.700561
O2    O     O_2   0.494343 0.087243 0.150437 -0.167329
O3    O     O_3   0.460555 0.219575 0.257698 -0.511224
O4    O     O_2   0.466927 0.810204 0.898532 -0.242676
O5    O     O_2   0.531788 0.928969 0.796961 -0.280920
O6    O     O_3   0.404961 0.944747 0.981681 -0.415688
O7    O     O_2   0.409086 0.177561 0.954733 -0.144634
O8    O     O_2   0.494120 0.074151 0.847234 -0.189421
O9    O     O_3   0.533956 0.218024 0.783753 -0.489814
O10   O     O_2   0.534947 0.829303 0.088942 -0.224776
O11   O     O_2   0.465131 0.939273 0.214711 -0.301364
O12   O     O_3   0.735185 0.901549 0.154938 -0.707198
O13   O     O_3   0.586847 0.969818 0.030061 -0.407701
O14   O     O_2   0.072276 0.698326 0.057315 -0.213984
O15   O     O_2   0.996641 0.586288 0.146895 -0.165698
O16   O     O_3   0.959437 0.717742 0.257050 -0.515023
O17   O     O_2   0.969252 0.322588 0.901801 -0.245840
O18   O     O_2   0.029010 0.442142 0.795705 -0.303681
O19   O     O_3   0.902241 0.455387 0.980711 -0.431749
O20   O     O_2   0.934086 0.716539 0.920478 -0.256287
O21   O     O_2   0.001387 0.595460 0.847785 -0.174288
O22   O     O_3   0.052782 0.721361 0.725462 -0.533286
O23   O     O_3   0.730175 0.121931 0.177177 -0.738987
O24   O     O_2   0.027593 0.325113 0.105820 -0.246175
O25   O     O_2   0.962617 0.441951 0.217856 -0.301312
O26   O     O_3   0.081362 0.461111 0.022096 -0.418820
O27   O     O_3   0.165632 0.092942 0.678907 -0.736901
O28   O     O_3   0.729193 0.702609 0.297493 -0.696179
O29   O     O_3   0.838415 0.089337 0.318131 -0.722786
O30   O     O_3   0.272679 0.710632 0.696387 -0.716726
O31   O     O_3   0.660582 0.590639 0.680157 -0.726690
O32   O     O_3   0.227423 0.200754 0.299164 -0.691721
O33   O     O_3   0.339614 0.588287 0.316798 -0.721944
O34   O     O_3   0.266107 0.893823 0.842373 -0.673630
O35   O     O_3   0.774523 0.209266 0.695875 -0.716020
O36   O     O_3   0.572109 0.700814 0.687797 -0.715477
O37   O     O_3   0.336240 0.140255 0.292369 -0.664346
O38   O     O_3   0.425240 0.703615 0.307214 -0.719812
O39   O     O_3   0.664559 0.139202 0.707620 -0.688166
O40   O     O_3   0.072093 0.203276 0.690825 -0.719849
O41   O     O_3   0.833835 0.628944 0.290692 -0.674434
O42   O     O_3   0.925604 0.203111 0.307212 -0.707191
O43   O     O_3   0.164834 0.635942 0.706697 -0.679475
O44   O     O_3   0.347106 0.707280 0.787041 -0.725666
O45   O     O_3   0.780675 0.652232 0.799878 -0.734356
O46   O     O_3   0.763409 0.093906 0.976585 -0.718028
O47   O     O_3   0.758927 0.750485 0.052322 -0.671700
O48   O     O_3   0.290366 0.297567 0.775890 -0.708984
O49   O     O_3   0.848567 0.210300 0.787760 -0.719824
O50   O     O_3   0.261699 0.592528 0.978534 -0.683177
O51   O     O_3   0.216560 0.245874 0.044701 -0.712546
O52   O     O_3   0.838260 0.902010 0.848809 -0.649578
O53   O     O_3   0.298751 0.807651 0.034619 -0.667738
O54   O     O_3   0.671231 0.281301 0.058318 -0.687186
O55   O     O_3   0.690374 0.870239 0.946627 -0.668866
O56   O     O_3   0.236171 0.413040 0.152731 -0.680936
O57   O     O_3   0.377109 0.302267 0.893830 -0.647580
O58   O     O_3   0.797740 0.309709 0.037401 -0.670000
O59   O     O_3   0.171612 0.781271 0.057608 -0.684129
O60   O     O_3   0.215249 0.440982 0.948279 -0.665883
O61   O     O_3   0.937146 0.809176 0.701202 -0.673029
O62   O     O_3   0.229757 0.623477 0.178140 -0.738674
O63   O     O_3   0.765825 0.395663 0.843281 -0.676612
O64   O     O_2   0.572028 0.197450 0.057199 -0.213068
S1    S     S_3+6 0.524994 0.156505 0.166162 0.028243
S2    S     S_3+6 0.460804 0.890951 0.866398 0.034691
S3    S     S_3+6 0.468975 0.151746 0.839275 0.043747
S4    S     S_3+6 0.538030 0.906063 0.134205 0.032660
S5    S     S_3+6 0.025340 0.656154 0.165293 0.027007
S6    S     S_3+6 0.959782 0.400527 0.867416 0.016860
S7    S     S_3+6 0.981399 0.667411 0.817740 0.015517
S8    S     S_3+6 0.034457 0.406335 0.136705 0.013283

loop_
_geom_bond_atom_site_label_1
_geom_bond_atom_site_label_2
_ccdc_geom_bond_type
O18   S6    D    
N24   N31   A    
C32   H6    S    
C15   O49   S    
C43   N26   A    
C27   H64   S    
C65   C79   A    
C20   N3    A    
C27   N9    A    
H30   O30   S    
O26   S8    S    
C64   C77   A    
C29   N11   A    
H29   O29   S    
C54   C82   S    
C74   C83   A    
C39   N21   A    
H27   O27   S    
C38   S3    S    
N22   N30   A    
C66   C85   A    
C79   C87   A    
C65   C82   A    
C64   C83   A    
H33   O33   S    
O17   S6    D    
C13   O47   S    
C23   O23   S    
C35   H8    S    
N13   Ni2   S    
C21   C57   A    
C56   O56   S    
H59   O59   S    
H20   O9    S    
N1    Ni1   S    
H58   O58   S    
N25   Ni7   S    
C78   O63   S    
C31   C58   A    
H57   O57   S    
C26   H63   S    
N3    Ni6   S    
C2    O53   S    
N12   Ni2   S    
C9    C88   D    
C43   S8    S    
C24   N6    A    
C75   C84   A    
C23   N23   A    
C63   C76   A    
C42   N25   A    
H61   O61   S    
C30   C57   A    
N21   Ni6   S    
C21   H34   S    
H16   O62   S    
N7    N16   A    
N19   Ni5   S    
C36   C47   A    
C78   N31   A    
C71   O36   S    
H9    O1    S    
C4    C13   D    
C5    O59   S    
C65   O30   S    
C45   N28   A    
C6    C15   D    
C14   O50   S    
C2    C10   D    
C8    O60   S    
H47   O47   S    
H54   O54   S    
C70   C74   A    
H53   O53   S    
N8    N17   A    
C69   C73   A    
C76   O41   S    
C25   C60   A    
C18   N32   A    
H28   O28   S    
H51   O51   S    
C41   C52   A    
C72   C81   A    
C69   C87   A    
C63   C80   A    
H49   O49   S    
N4    Ni5   S    
N2    Ni6   S    
H32   O32   S    
O25   S8    D    
C58   C87   S    
H46   O46   S    
C57   C80   S    
N19   N27   A    
C34   N27   A    
O3    S1    S    
H25   O22   S    
H26   O26   S    
C20   C55   A    
C52   C78   A    
C33   H7    S    
H31   O31   S    
C73   O38   S    
H36   O36   S    
N29   Ni4   S    
N2    N10   A    
N6    N15   A    
N18   N23   A    
O15   S5    D    
O14   S5    D    
C3    C44   S    
C18   C53   A    
H60   O60   S    
C72   O37   S    
C6    O58   S    
C22   H45   S    
C28   N10   A    
C68   C84   A    
H24   O19   S    
O22   S7    S    
C42   S7    S    
C23   C47   A    
C37   S2    S    
O24   S8    D    
C12   C46   A    
C10   C14   S    
C28   C54   A    
C25   N7    A    
C66   O31   S    
N24   Ni7   S    
C4    C46   S    
C29   C55   A    
N3    N11   A    
C11   O48   S    
C31   H5    S    
C88   O54   S    
H42   O42   S    
C50   C56   A    
O16   S5    S    
C1    N1    A    
H41   O41   S    
H13   O34   S    
H52   O52   S    
C63   O28   S    
C1    O1    S    
N5    Ni7   S    
C4    O55   S    
C38   C44   A    
N9    Ni2   S    
N28   Ni3   S    
O10   S4    D    
C12   N12   A    
C20   H23   S    
N26   Ni8   S    
C40   S5    S    
C1    C44   A    
C66   C71   A    
C31   N14   A    
C45   C49   A    
N6    Ni8   S    
C68   C72   A    
N25   N28   A    
N15   Ni3   S    
O64   S1    D    
H39   O39   S    
N12   N21   A    
C35   C61   A    
C51   C67   A    
C36   S1    S    
C70   O35   S    
C37   C48   A    
H21   O13   S    
H44   O44   S    
C7    C49   S    
C5    C14   D    
C39   C46   A    
C16   O52   S    
C19   C54   A    
C30   H4    S    
C7    C16   D    
N17   Ni4   S    
C41   N24   A    
O21   S7    D    
C77   C86   A    
C33   C60   A    
H48   O48   S    
C35   N17   A    
N14   Ni4   S    
C62   C75   A    
C32   N15   A    
C33   N16   A    
C55   C81   S    
H17   O63   S    
C70   C86   A    
C8    C50   S    
C73   C82   A    
O6    S2    S    
C10   O44   S    
O11   S4    D    
O8    S3    D    
C26   N8    A    
C67   O62   S    
H10   O12   S    
O19   S6    S    
C68   O32   S    
C11   C17   S    
H14   O45   S    
H38   O38   S    
C18   H1    S    
C36   N18   A    
N7    Ni8   S    
C26   C61   A    
C5    C51   S    
C3    O57   S    
N8    Ni7   S    
O5    S2    D    
C61   C84   S    
C69   O33   S    
N5    N14   A    
C22   C58   A    
H19   O6    S    
C71   C80   A    
C19   H12   S    
C27   C53   A    
C43   C50   A    
C38   N20   A    
H18   O3    S    
N27   Ni1   S    
C22   N5    A    
O4    S2    D    
N20   Ni5   S    
C34   O34   S    
C40   C51   A    
N18   Ni6   S    
H37   O37   S    
H15   O56   S    
C62   C81   A    
C53   C83   S    
N11   Ni1   S    
O2    S1    D    
H43   O43   S    
C62   O27   S    
N9    N32   A    
C9    C15   S    
C59   C86   S    
C79   O43   S    
C47   C88   S    
C8    C17   D    
C40   N22   A    
H50   O50   S    
H35   O35   S    
H11   O23   S    
N4    N13   A    
C24   H56   S    
C24   C59   A    
N1    N20   A    
C77   O42   S    
C21   N4    A    
H55   O55   S    
C64   O29   S    
C9    O46   S    
C12   O12   S    
H22   O16   S    
C74   O39   S    
C75   O40   S    
C45   O45   S    
C37   N19   A    
N26   N29   A    
C3    C11   D    
C39   S4    S    
C42   C49   A    
O7    S3    D    
O20   S7    D    
C34   C48   A    
C17   O51   S    
H40   O40   S    
C2    C48   S    
C56   N29   A    
C13   C16   S    
O9    S3    S    
N16   Ni3   S    
C19   N2    A    
N32   Ni5   S    
C25   H62   S    
C60   C85   S    
C28   H2    S    
C30   N13   A    
C32   C59   A    
C6    C52   S    
N30   Ni4   S    
C76   C85   A    
O13   S4    S    
C7    O61   S    
N31   Ni3   S    
N10   Ni1   S    
C67   N30   A    
N22   Ni8   S    
N23   Ni2   S    
C29   H3    S    
C41   S6    S    
