data_mof_unit_55806.cif
_audit_creation_date              2012-12-10T17:15:07-0500
_audit_creation_method            fapswitch 2.2
_symmetry_space_group_name_H-M    P1
_symmetry_Int_Tables_number       1
_space_group_crystal_system       triclinic
_cell_length_a                    10.155974
_cell_length_b                    10.78001
_cell_length_c                    12.841133
_cell_angle_alpha                 92.197547
_cell_angle_beta                  91.802308
_cell_angle_gamma                 94.644083
_cell_volume                      1399.37734516

loop_
_atom_site_label
_atom_site_type_symbol
_atom_type_description
_atom_site_fract_x
_atom_site_fract_y
_atom_site_fract_z
_atom_type_partial_charge
C1    C     C_R   0.445874 0.267267 0.489664 0.944711
C2    C     C_R   0.617035 0.382682 0.037277 0.387416
C3    C     C_R   0.380764 0.602446 0.854593 0.342284
C4    C     C_R   0.623536 0.402490 0.145548 0.344105
C5    C     C_R   0.535780 0.441960 0.869329 -0.298574
C6    C     C_R   0.465373 0.560084 0.130959 -0.301758
C7    C     C_R   0.538942 0.456437 0.976536 -0.048821
C8    C     C_R   0.463780 0.546836 0.023698 -0.048563
C9    C     C_2   0.417297 0.134927 0.472523 -0.350768
C10   C     C_2   0.588040 0.863977 0.494171 -0.353282
C11   C     C_2   0.518332 0.064957 0.460917 -0.143169
C12   C     C_R   0.555223 0.732515 0.503500 0.947566
C13   C     C_2   0.494687 0.932351 0.457937 -0.153269
C14   C     C_3   0.830134 0.377615 0.210526 0.127277
C15   C     C_3   0.911153 0.296569 0.277633 -0.755324
C16   C     C_3   0.176082 0.639780 0.792192 0.138499
C17   C     C_3   0.100419 0.725244 0.725186 -0.776536
C18   C     C_3   0.393057 0.827171 0.012327 0.099206
C19   C     C_3   0.320358 0.923992 0.071564 -0.804399
C20   C     C_3   0.618719 0.177568 0.990063 0.101462
C21   C     C_3   0.695101 0.082288 0.932391 -0.812807
C22   C     C_2   0.864054 0.345147 0.602571 0.500176
C23   C     C_2   0.072453 0.506088 0.517522 -0.059678
C24   C     C_2   0.131376 0.619140 0.368664 0.497663
C25   C     C_2   0.928557 0.516737 0.498125 -0.105412
C26   C     C_R   0.474768 0.506101 0.698500 0.956177
C27   C     C_R   0.525495 0.494535 0.301546 0.945851
C28   C     C_R   0.541474 0.486837 0.191160 -0.230396
C29   C     C_R   0.459885 0.515408 0.809041 -0.231066
C30   C     C_R   0.387447 0.622059 0.962958 0.385561
H1    H     H_    0.405719 0.626578 0.168667 0.216172
H2    H     H_    0.871882 0.378400 0.131380 0.168545
H3    H     H_    0.909040 0.201248 0.241258 0.253249
H4    H     H_    0.015219 0.337196 0.285219 0.193983
H5    H     H_    0.869805 0.290697 0.356447 0.281714
H6    H     H_    0.136308 0.643674 0.871920 0.173724
H7    H     H_    0.158223 0.542802 0.758849 0.127026
H8    H     H_    0.140765 0.727769 0.645860 0.277591
H9    H     H_    0.994265 0.690882 0.718880 0.201055
H10   H     H_    0.109585 0.821140 0.760955 0.254371
H11   H     H_    0.409090 0.859423 0.932018 0.177369
H12   H     H_    0.594288 0.374460 0.831675 0.213840
H13   H     H_    0.490669 0.820605 0.053105 0.132386
H14   H     H_    0.223077 0.934062 0.032190 0.262155
H15   H     H_    0.379463 0.015354 0.074073 0.190884
H16   H     H_    0.304566 0.895162 0.152667 0.262245
H17   H     H_    0.520458 0.179935 0.949253 0.130012
H18   H     H_    0.604277 0.146624 0.070948 0.178791
H19   H     H_    0.793144 0.076457 0.971909 0.263447
H20   H     H_    0.639364 0.989289 0.931514 0.193428
H21   H     H_    0.709505 0.109652 0.850744 0.256001
H22   H     H_    0.800845 0.321287 0.666555 0.066631
H23   H     H_    0.396069 0.891809 0.434458 0.203352
H24   H     H_    0.169120 0.593044 0.293588 0.062144
H25   H     H_    0.620411 0.104779 0.462877 0.203671
H26   H     H_    0.686254 0.905085 0.517890 0.168466
H27   H     H_    0.315537 0.094555 0.470912 0.174382
H28   H     H_    0.895604 0.586287 0.447059 0.200387
H29   H     H_    0.105261 0.456527 0.583994 0.184126
H30   H     H_    0.840104 0.474183 0.245687 0.139896
N1    N     N_2   0.162330 0.550370 0.457540 -0.163623
N2    N     N_2   0.837670 0.449630 0.542460 -0.173187
O1    O     O_R   0.567930 0.307680 0.508550 -0.626220
O2    O     O_3   0.312032 0.679741 0.793076 -0.598677
O3    O     O_3   0.316077 0.711910 0.009464 -0.620075
O4    O     O_3   0.691263 0.295038 0.990862 -0.618054
O5    O     O_2   0.948230 0.275624 0.578163 -0.620114
O6    O     O_2   0.072958 0.713485 0.377330 -0.618236
O7    O     O_R   0.432070 0.692320 0.491450 -0.606333
O8    O     O_R   0.351090 0.340020 0.481290 -0.608923
O9    O     O_R   0.648910 0.659980 0.518710 -0.621232
O10   O     O_R   0.590490 0.486480 0.665020 -0.645082
O11   O     O_R   0.409510 0.513520 0.334980 -0.654322
O12   O     O_R   0.373660 0.518820 0.637760 -0.594467
O13   O     O_R   0.626340 0.481180 0.362240 -0.593092
O14   O     O_3   0.696746 0.328504 0.206802 -0.599473
Zn1   Zn    Zn3+2 0.644780 0.478400 0.518200 0.944640
Zn2   Zn    Zn3+2 0.355220 0.521600 0.481800 0.961296

loop_
_geom_bond_atom_site_label_1
_geom_bond_atom_site_label_2
_ccdc_geom_bond_type
C3    C30   A    
C2    C4    A    
C5    H12   S    
C19   H15   S    
C2    O4    S    
C24   N1    S    
C16   O2    S    
C3    O2    S    
C22   N2    S    
C14   H30   S    
C16   H7    S    
N2    Zn1   S    
C13   H23   S    
C1    O8    A    
C14   C15   S    
C17   H10   S    
C21   H21   S    
N1    Zn2   S    
C12   O7    A    
C8    C30   A    
C10   H26   S    
C20   C21   S    
C21   H19   S    
C6    H1    S    
C19   H16   S    
C11   H25   S    
C7    C8    A    
C18   H13   S    
C16   H6    S    
C18   O3    S    
C23   H29   S    
C11   C13   S    
O7    Zn2   S    
C20   H18   S    
C10   C12   S    
C27   O13   A    
C1    O1    A    
C15   H5    S    
C21   H20   S    
C4    C28   A    
C12   O9    A    
C5    C29   A    
C25   N2    D    
C9    C11   D    
O12   Zn2   S    
C22   O5    D    
C4    O14   S    
C20   H17   S    
O8    Zn2   S    
C25   H28   S    
C24   O6    D    
C24   H24   S    
C30   O3    S    
C20   O4    S    
O9    Zn1   S    
C23   C25   S    
C1    C9    S    
C19   H14   S    
C2    C7    A    
C26   C29   S    
C22   H22   S    
C18   C19   S    
O1    Zn1   S    
C23   N1    D    
C17   H8    S    
C26   O10   A    
C3    C29   A    
C9    H27   S    
C17   H9    S    
C5    C7    A    
O13   Zn1   S    
C6    C8    A    
C15   H4    S    
O10   Zn1   S    
C26   O12   A    
C27   O11   A    
O11   Zn2   S    
C15   H3    S    
C6    C28   A    
C18   H11   S    
C14   H2    S    
C16   C17   S    
C27   C28   S    
C10   C13   D    
C14   O14   S    
