data_mof_unit_13548.cif
_audit_creation_date              2013-03-05T16:18:41-0500
_audit_creation_method            fapswitch 2.2
_symmetry_space_group_name_H-M    P1
_symmetry_Int_Tables_number       1
_space_group_crystal_system       triclinic
_cell_length_a                    15.691747
_cell_length_b                    10.64736
_cell_length_c                    9.834824
_cell_angle_alpha                 91.738865
_cell_angle_beta                  88.585871
_cell_angle_gamma                 89.941574
_cell_volume                      1641.90044596

loop_
_atom_site_label
_atom_site_type_symbol
_atom_site_description
_atom_site_fract_x
_atom_site_fract_y
_atom_site_fract_z
_atom_type_partial_charge
O1    O     O_R   0.499980 0.314910 0.616040 -0.657435
O2    O     O_R   0.500040 0.314680 0.383960 -0.590388
C1    C     C_R   0.502429 0.257798 0.499087 0.877788
O3    O     O_R   0.376750 0.500100 0.616020 -0.585390
O4    O     O_R   0.376810 0.499870 0.383940 -0.621322
C2    C     C_R   0.338091 0.500009 0.501405 0.945914
Zn1   Zn    Zn3+2 0.499960 0.500150 0.654960 0.953170
Zn2   Zn    Zn3+2 0.500040 0.499850 0.345040 0.986182
O5    O     O_R   0.499960 0.685320 0.616040 -0.611748
O6    O     O_R   0.500020 0.685090 0.383960 -0.605774
O7    O     O_R   0.623190 0.500130 0.616060 -0.636738
O8    O     O_R   0.623250 0.499900 0.383980 -0.572868
C3    C     C_R   0.503004 0.741699 0.501524 0.861770
C4    C     C_R   0.661912 0.500352 0.498582 0.905273
C5    C     C_3   0.969729 0.406314 0.572254 -0.158550
C6    C     C_3   0.029648 0.392913 0.445418 -0.172322
H1    H     H_    0.056124 0.303530 0.401195 0.147143
H2    H     H_    0.942735 0.327872 0.631337 0.148005
H3    H     H_    0.953260 0.478178 0.264056 0.152811
C7    C     C_1   0.249009 0.500728 0.504317 -0.102692
C8    C     C_1   0.750981 0.501255 0.495547 -0.162142
C9    C     C_3   0.024489 0.515483 0.629478 -0.141740
C10   C     C_3   0.082617 0.502075 0.502624 0.184874
C11   C     C_3   0.970328 0.611556 0.554120 -0.166365
C12   C     C_3   0.917380 0.502364 0.496910 0.190796
C13   C     C_3   0.030294 0.598155 0.427268 -0.142954
C14   C     C_3   0.975508 0.488973 0.370052 -0.154581
C15   C     C_1   0.173575 0.501463 0.504646 -0.036504
C16   C     C_1   0.826416 0.501964 0.495030 -0.060107
H4    H     H_    0.057337 0.676578 0.368210 0.163035
H5    H     H_    0.943818 0.700921 0.598332 0.143733
H6    H     H_    0.046736 0.526289 0.735473 0.155978
C17   C     C_3   0.526411 0.076117 0.645110 -0.394868
H7    H     H_    0.475343 0.105748 0.720058 0.169293
H8    H     H_    0.586358 0.122125 0.679031 0.199697
C18   C     C_3   0.534063 0.932437 0.645429 -0.007687
H9    H     H_    0.489631 0.898415 0.726321 0.212435
H10   H     H_    0.365058 0.115193 0.533286 0.148157
H11   H     H_    0.372821 0.907538 0.570548 0.120574
C19   C     C_3   0.414626 0.071280 0.464065 -0.489159
C20   C     C_3   0.571215 0.067663 0.396421 -0.331171
C21   C     C_3   0.503831 0.120919 0.500442 0.062054
H12   H     H_    0.557927 0.099356 0.293208 0.227402
H13   H     H_    0.635997 0.100802 0.423827 0.188227
C22   C     C_3   0.505070 0.878021 0.503737 0.034274
C23   C     C_3   0.412666 0.927748 0.478284 0.144304
C24   C     C_3   0.568594 0.924054 0.392174 -0.413544
H14   H     H_    0.633547 0.885605 0.406305 0.162785
H15   H     H_    0.550104 0.890347 0.289172 0.225486
H16   H     H_    0.399367 0.098130 0.358965 0.219286
C25   C     C_3   0.526431 0.372522 0.070905 0.549353
C26   C     C_3   0.525402 0.374525 0.908213 -0.375211
H17   H     H_    0.586744 0.348639 0.856501 0.223506
H18   H     H_    0.483108 0.302106 0.862756 0.157261
H19   H     H_    0.364166 0.456593 0.124228 0.162680
H20   H     H_    0.368617 0.444924 0.891865 0.096431
C27   C     C_3   0.411521 0.525066 0.086026 -0.405219
C28   C     C_3   0.551152 0.604283 0.077532 0.062999
N1    N     N_3   0.498170 0.499750 0.138610 -0.098158
H21   H     H_    0.517368 0.695473 0.097765 0.208757
N2    N     N_3   0.498850 0.496730 0.861320 -0.133896
C29   C     C_3   0.411690 0.522919 0.924313 0.245778
C30   C     C_3   0.560602 0.588843 0.917942 -0.264738
H22   H     H_    0.626760 0.559479 0.887818 0.194272
H23   H     H_    0.552893 0.681002 0.870274 0.197722
H24   H     H_    0.387039 0.616406 0.129172 0.248958
N3    N     N_R   0.371988 0.866535 0.360524 0.223983
O9    O     O_R   0.304718 0.797249 0.379314 -0.399894
O10   O     O_R   0.399142 0.885669 0.236765 -0.394839
C31   C     C_3   0.463418 0.263256 0.107810 -0.877596
H25   H     H_    0.411145 0.251220 0.034521 0.185262
H26   H     H_    0.496884 0.171583 0.108051 0.249167
H27   H     H_    0.425576 0.280055 0.201687 0.259310
N4    N     N_R   0.614068 0.338592 0.111789 0.212342
O11   O     O_R   0.628165 0.293530 0.230022 -0.393964
O12   O     O_R   0.679360 0.345510 0.027889 -0.462470
C32   C     C_3   0.638301 0.630792 0.140845 -0.805397
H28   H     H_    0.630780 0.678577 0.241730 0.245681
H29   H     H_    0.678845 0.547118 0.148562 0.303853
H30   H     H_    0.674304 0.698207 0.077322 0.196961
N5    N     N_R   0.374637 0.639886 0.875883 0.240556
O13   O     O_R   0.299521 0.637126 0.822670 -0.385794
O14   O     O_R   0.406990 0.748643 0.909215 -0.422559
C33   C     C_3   0.624944 0.893229 0.685325 -0.904330
H31   H     H_    0.635070 0.920904 0.793546 0.249895
H32   H     H_    0.634991 0.790368 0.674390 0.245362
H33   H     H_    0.674495 0.940450 0.622748 0.249581

loop_
_geom_bond_atom_site_label_1
_geom_bond_atom_site_label_2
_geom_bond_distance
_ccdc_geom_bond_type
C5    H2    1.110243 S    
H10   C19   1.113941 S    
C30   H23   1.108036 S    
C1    C21   1.458019 S    
C20   C21   1.547996 S    
C33   H33   1.109997 S    
C27   H24   1.113375 S    
N5    O13   1.301412 A    
C27   C29   1.589831 S    
C24   H15   1.109879 S    
C32   H28   1.104843 S    
C19   C23   1.539115 S    
C13   C14   1.547041 S    
C9    H6    1.110211 S    
C17   C21   1.563055 S    
C4    C8    1.397289 S    
C18   H9    1.113943 S    
C11   C13   1.546991 S    
C26   N2    1.457425 S    
Zn2   N1    2.031107 S    
O4    C2    1.291888 A    
O7    C4    1.292131 A    
C27   N1    1.493739 S    
C28   H21   1.115953 S    
C5    C6    1.546433 S    
C17   C18   1.534503 S    
N2    C30   1.485384 S    
C22   C24   1.554786 S    
C10   C13   1.531072 S    
O5    C3    1.292082 A    
Zn1   N2    2.030590 S    
C28   C32   1.539368 S    
C5    C9    1.546733 S    
C6    H1    1.110241 S    
C25   N4    1.489423 S    
C31   H25   1.110208 S    
C25   C31   1.572638 S    
H3    C14   1.110212 S    
C6    C14   1.546779 S    
C19   C21   1.543201 S    
C20   H12   1.104010 S    
O3    Zn1   1.980193 S    
N5    O14   1.300953 A    
C26   H18   1.108898 S    
C32   H29   1.099796 S    
C12   C16   1.427969 S    
N4    O11   1.295211 A    
C25   C26   1.601321 S    
C33   H31   1.110992 S    
O3    C2    1.293173 A    
C7    C15   1.183625 T    
C28   N1    1.519410 S    
C22   C23   1.571564 S    
C8    C16   1.183619 T    
N3    O9    1.301093 A    
O1    C1    1.284355 A    
Zn1   O7    1.961891 S    
C24   H14   1.111452 S    
Zn2   O8    1.980193 S    
C31   H27   1.095311 S    
C17   H7    1.114107 S    
C20   C24   1.528982 S    
C18   C22   1.570788 S    
C10   C15   1.427937 S    
C11   C12   1.530971 S    
N4    O12   1.303112 A    
H11   C23   1.115674 S    
C29   N5    1.471092 S    
O8    C4    1.292996 A    
C13   H4    1.110250 S    
C6    C10   1.530908 S    
H19   C27   1.108512 S    
C20   H13   1.113102 S    
H20   C29   1.115354 S    
C25   N1    1.550665 S    
C26   H17   1.108116 S    
C32   H30   1.111445 S    
C28   C30   1.576473 S    
Zn1   O5    2.019755 S    
O1    Zn1   1.997680 S    
O2    Zn2   2.019756 S    
C33   H32   1.107941 S    
O6    C3    1.289485 A    
O4    Zn2   1.961891 S    
C12   C14   1.530243 S    
C2    C7    1.397455 S    
O2    C1    1.301484 A    
C11   H5    1.110237 S    
C23   N3    1.471419 S    
C3    C22   1.451378 S    
C18   C33   1.548640 S    
C19   H16   1.112424 S    
C17   H8    1.114730 S    
C9    C11   1.547026 S    
N2    C29   1.509657 S    
C5    C12   1.531027 S    
C30   H22   1.114360 S    
Zn2   O6    1.997680 S    
C9    C10   1.530224 S    
C31   H26   1.107989 S    
N3    O10   1.301586 A    
