data_mof_unit_14779.cif
_audit_creation_date              2012-12-10T21:26:07-0500
_audit_creation_method            fapswitch 2.2
_symmetry_space_group_name_H-M    P1
_symmetry_Int_Tables_number       1
_space_group_crystal_system       triclinic
_cell_length_a                    8.711208
_cell_length_b                    16.301965
_cell_length_c                    16.93428
_cell_angle_alpha                 86.826702
_cell_angle_beta                  93.563326
_cell_angle_gamma                 97.432818
_cell_volume                      2377.29481197

loop_
_atom_site_label
_atom_site_type_symbol
_atom_type_description
_atom_site_fract_x
_atom_site_fract_y
_atom_site_fract_z
_atom_type_partial_charge
C1    C     C_R   0.495209 0.489127 0.652868 0.864116
C2    C     C_R   0.383311 0.152101 0.428912 -0.304799
C3    C     C_R   0.623810 0.761776 0.562457 0.260479
C4    C     C_R   0.382076 0.238065 0.435471 0.269131
C5    C     C_R   0.797766 0.519647 0.497389 0.958360
C6    C     C_R   0.202243 0.480079 0.502826 0.965307
C7    C     C_2   0.955439 0.525620 0.479845 -0.082008
C8    C     C_2   0.043776 0.472763 0.519426 -0.090026
C9    C     C_R   0.485520 0.484047 0.739463 -0.121917
C10   C     C_R   0.539658 0.516911 0.262628 -0.114459
C11   C     C_R   0.445306 0.550803 0.782088 0.144202
C12   C     C_R   0.509461 0.510976 0.347481 0.868985
C13   C     C_R   0.580634 0.449157 0.221602 0.141061
C14   C     C_R   0.452103 0.543156 0.864256 -0.234453
C15   C     C_R   0.601451 0.460439 0.140915 -0.242346
C16   C     C_R   0.498600 0.472836 0.904935 0.217292
C17   C     C_R   0.575767 0.534482 0.099227 0.245615
C18   C     C_R   0.526435 0.404403 0.863978 0.167891
C19   C     C_R   0.550741 0.603393 0.140398 0.179098
C20   C     C_R   0.522210 0.411653 0.781156 -0.269370
C21   C     C_R   0.533641 0.593546 0.221786 -0.301403
C22   C     C_3   0.012068 0.587844 0.413960 -0.445810
C23   C     C_R   0.425710 0.764076 0.460104 0.245781
C24   C     C_3   0.893068 0.603164 0.346360 -0.862783
C25   C     C_3   0.987213 0.411556 0.586589 -0.433808
C26   C     C_3   0.112189 0.389308 0.648990 -0.843625
C27   C     C_3   0.600242 0.363257 0.257893 -0.368325
C28   C     C_3   0.752030 0.361992 0.307675 -0.833438
C29   C     C_3   0.397558 0.632003 0.745570 -0.367527
C30   C     C_3   0.236186 0.620955 0.704190 -0.848997
C31   C     C_3   0.565246 0.326766 0.911210 -0.387594
C32   C     C_3   0.587466 0.253279 0.862715 -0.906497
C33   C     C_3   0.533714 0.686656 0.098950 -0.416449
C34   C     C_R   0.569718 0.237341 0.543453 0.220881
C35   C     C_3   0.672186 0.750386 0.120488 -0.864179
C36   C     C_3   0.640713 0.276148 0.617852 -0.361222
C37   C     C_3   0.767814 0.232902 0.663198 -0.994160
C38   C     C_3   0.325006 0.728622 0.392122 -0.398054
C39   C     C_3   0.382697 0.765513 0.312703 -0.900229
C40   C     C_3   0.748422 0.722866 0.611453 -0.378032
C41   C     C_3   0.905407 0.745337 0.574924 -0.855832
C42   C     C_3   0.256195 0.275831 0.386330 -0.388099
C43   C     C_3   0.098756 0.250720 0.421621 -0.855668
C44   C     C_R   0.426273 0.849909 0.467525 -0.260934
C45   C     C_R   0.570600 0.151095 0.537253 -0.243269
C46   C     C_R   0.530036 0.893545 0.520658 0.250934
C47   C     C_R   0.477047 0.107542 0.479754 0.236929
C48   C     C_R   0.627812 0.848371 0.568421 -0.307829
H1    H     H_    0.631970 0.409635 0.108878 0.151342
H2    H     H_    0.799386 0.635547 0.366476 0.287513
H3    H     H_    0.951029 0.643584 0.299158 0.247799
H4    H     H_    0.049660 0.646698 0.442688 0.222635
H5    H     H_    0.108765 0.566436 0.384467 0.213810
H6    H     H_    0.188577 0.348309 0.625230 0.282465
H7    H     H_    0.181299 0.446043 0.670679 0.253078
H8    H     H_    0.057438 0.355684 0.700727 0.241601
H9    H     H_    0.901429 0.438346 0.620019 0.208039
H10   H     H_    0.932817 0.353897 0.559310 0.243130
H11   H     H_    0.759992 0.404203 0.356976 0.286930
H12   H     H_    0.422127 0.592973 0.897817 0.149700
H13   H     H_    0.758450 0.298224 0.333100 0.238780
H14   H     H_    0.852116 0.380450 0.270170 0.243552
H15   H     H_    0.499377 0.336816 0.291403 0.214841
H16   H     H_    0.601812 0.318348 0.210920 0.181702
H17   H     H_    0.200068 0.682935 0.688987 0.237513
H18   H     H_    0.235386 0.588300 0.648675 0.282772
H19   H     H_    0.151155 0.586130 0.743904 0.252676
H20   H     H_    0.393867 0.677113 0.792143 0.182624
H21   H     H_    0.484797 0.664075 0.705969 0.217836
H22   H     H_    0.482823 0.235550 0.823462 0.264905
H23   H     H_    0.553446 0.362278 0.748882 0.181264
H24   H     H_    0.690889 0.268709 0.827225 0.264969
H25   H     H_    0.606781 0.199329 0.903385 0.254313
H26   H     H_    0.672991 0.342795 0.948842 0.209085
H27   H     H_    0.469893 0.305995 0.951248 0.209497
H28   H     H_    0.680824 0.759980 0.185112 0.256738
H29   H     H_    0.781138 0.729368 0.103146 0.262740
H30   H     H_    0.658006 0.810487 0.088504 0.248469
H31   H     H_    0.523931 0.682927 0.033547 0.213812
H32   H     H_    0.425520 0.708524 0.116393 0.201345
H33   H     H_    0.717438 0.174631 0.694020 0.268987
H34   H     H_    0.511343 0.645712 0.253028 0.191260
H35   H     H_    0.856536 0.219836 0.622861 0.276517
H36   H     H_    0.824992 0.273623 0.709447 0.261563
H37   H     H_    0.690531 0.339879 0.603444 0.253913
H38   H     H_    0.544497 0.276012 0.657442 0.209662
H39   H     H_    0.358925 0.830713 0.303192 0.255178
H40   H     H_    0.509652 0.764639 0.310892 0.264416
H41   H     H_    0.320270 0.730057 0.263757 0.246357
H42   H     H_    0.317472 0.661262 0.393544 0.260060
H43   H     H_    0.206844 0.745688 0.396226 0.184212
H44   H     H_    0.895282 0.735286 0.510392 0.274508
H45   H     H_    0.638711 0.116612 0.579203 0.182003
H46   H     H_    0.950279 0.811263 0.583958 0.247295
H47   H     H_    0.989636 0.705867 0.603239 0.243911
H48   H     H_    0.756466 0.745380 0.672557 0.165345
H49   H     H_    0.724052 0.655594 0.618911 0.256466
H50   H     H_    0.061331 0.183463 0.415872 0.249954
H51   H     H_    0.104210 0.264782 0.485232 0.275945
H52   H     H_    0.011223 0.285686 0.389612 0.246907
H53   H     H_    0.277002 0.343365 0.380500 0.258149
H54   H     H_    0.250650 0.254358 0.324909 0.165524
H55   H     H_    0.347737 0.882848 0.429476 0.166588
H56   H     H_    0.711239 0.881247 0.609436 0.157137
H57   H     H_    0.305239 0.118912 0.385781 0.156073
H58   H     H_    0.844700 0.543880 0.320395 0.260669
N1    N     N_2   0.516182 0.469751 0.988089 -0.207859
N2    N     N_2   0.564492 0.538242 0.015757 -0.198884
N3    N     N_R   0.519180 0.718290 0.509780 -0.126405
N4    N     N_R   0.480820 0.281710 0.490220 -0.135584
N5    N     N_2   0.542803 0.981906 0.526396 -0.178422
N6    N     N_2   0.465851 0.019200 0.474129 -0.175644
O1    O     O_R   0.493140 0.422050 0.612640 -0.650495
O2    O     O_R   0.506860 0.577950 0.387360 -0.633715
O3    O     O_R   0.505450 0.562230 0.618920 -0.638963
O4    O     O_R   0.494550 0.437770 0.381080 -0.638759
O5    O     O_R   0.723530 0.446300 0.497600 -0.659787
O6    O     O_R   0.276470 0.553700 0.502400 -0.660311
O7    O     O_R   0.735850 0.586490 0.503880 -0.617975
O8    O     O_R   0.264150 0.413510 0.496120 -0.617046
Zn1   Zn    Zn3+2 0.491780 0.406400 0.495810 0.896166
Zn2   Zn    Zn3+2 0.508220 0.593600 0.504190 0.904686

loop_
_geom_bond_atom_site_label_1
_geom_bond_atom_site_label_2
_ccdc_geom_bond_type
N5    N6    D    
C43   H50   S    
C39   H39   S    
C45   H45   S    
C26   H7    S    
C7    C8    D    
C32   H24   S    
C25   H9    S    
C5    O7    A    
C22   C24   S    
C36   C37   S    
C19   C21   A    
C43   H51   S    
N4    Zn1   S    
C38   C39   S    
C10   C12   S    
C11   C14   A    
N3    Zn2   S    
O7    Zn2   S    
C47   N6    S    
C48   H56   S    
C42   H54   S    
C3    C48   A    
O6    Zn2   S    
O5    Zn1   S    
C16   N1    S    
C33   C35   S    
C31   C32   S    
N1    N2    D    
C20   H23   S    
C29   H21   S    
C30   H19   S    
C28   H13   S    
C24   H3    S    
O3    Zn2   S    
C46   N5    S    
C8    C25   S    
C37   H33   S    
C1    O1    A    
C39   H40   S    
C40   H48   S    
C26   H6    S    
C6    O8    A    
C44   H55   S    
C44   C46   A    
C22   H5    S    
C12   O2    A    
C45   C47   A    
C10   C21   A    
C24   H2    S    
C23   N3    A    
C46   C48   A    
C35   H28   S    
O4    Zn1   S    
C1    C9    S    
C43   H52   S    
C19   C33   S    
C17   N2    S    
C32   H25   S    
C5    C7    S    
C33   H31   S    
C31   H26   S    
C6    C8    S    
C36   H38   S    
C25   C26   S    
C38   H43   S    
C35   H29   S    
C23   C44   A    
C5    O5    A    
C2    C4    A    
C29   C30   S    
C29   H20   S    
C9    C20   A    
C31   H27   S    
C41   H46   S    
C37   H36   S    
C34   C45   A    
C9    C11   A    
C30   H18   S    
C27   H15   S    
C40   C41   S    
C3    C40   S    
C13   C15   A    
C36   H37   S    
C14   C16   A    
C24   H58   S    
C42   C43   S    
C7    C22   S    
C42   H53   S    
C40   H49   S    
O8    Zn1   S    
C22   H4    S    
C28   H11   S    
C15   C17   A    
C4    N4    A    
C2    H57   S    
C37   H35   S    
C10   C13   A    
C26   H8    S    
C32   H22   S    
C33   H32   S    
C2    C47   A    
C23   C38   S    
C14   H12   S    
C38   H42   S    
C35   H30   S    
C41   H47   S    
C4    C42   S    
C3    N3    A    
C34   N4    A    
C17   C19   A    
C34   C36   S    
C39   H41   S    
C18   C20   A    
C15   H1    S    
C30   H17   S    
C27   H16   S    
O2    Zn2   S    
C41   H44   S    
O1    Zn1   S    
C21   H34   S    
C11   C29   S    
C16   C18   A    
C25   H10   S    
C27   C28   S    
C13   C27   S    
C18   C31   S    
C1    O3    A    
C6    O6    A    
C12   O4    A    
C28   H14   S    
