data_mof_unit_68147.cif
_audit_creation_date              2012-12-11T16:11:48-0500
_audit_creation_method            fapswitch 2.2
_symmetry_space_group_name_H-M    P1
_symmetry_Int_Tables_number       1
_space_group_crystal_system       triclinic
_cell_length_a                    6.967294
_cell_length_b                    14.229351
_cell_length_c                    15.846669
_cell_angle_alpha                 90.003069
_cell_angle_beta                  89.903783
_cell_angle_gamma                 90.178084
_cell_volume                      1571.03009755

loop_
_atom_site_label
_atom_site_type_symbol
_atom_type_description
_atom_site_fract_x
_atom_site_fract_y
_atom_site_fract_z
_atom_type_partial_charge
O1    O     O_R   0.638960 0.835150 0.161940 -0.540336
O2    O     O_R   0.361040 0.164850 0.838060 -0.540335
O3    O     O_R   0.309170 0.846340 0.337470 -0.534494
O4    O     O_R   0.690830 0.153660 0.662530 -0.534494
O5    O     O_R   0.138810 0.664830 0.338070 -0.538456
O6    O     O_R   0.861190 0.335170 0.661930 -0.538455
C1    C     C_R   0.478287 0.868599 0.366238 0.716557
C2    C     C_R   0.521713 0.131401 0.633761 0.716557
O7    O     O_R   0.309250 0.846350 0.162570 -0.551252
O8    O     O_R   0.690750 0.153650 0.837430 -0.551252
O9    O     O_R   0.138880 0.664840 0.161920 -0.516959
O10   O     O_R   0.861120 0.335160 0.838080 -0.516959
C3    C     C_R   0.478589 0.867807 0.133166 0.698495
C4    C     C_R   0.521410 0.132193 0.866833 0.698494
O11   O     O_R   0.638880 0.835150 0.338090 -0.550459
O12   O     O_R   0.361120 0.164850 0.661910 -0.550459
O13   O     O_3   0.472380 0.690440 0.250000 -0.356853
O14   O     O_3   0.527620 0.309560 0.750000 -0.356853
V1    V     V_3+5 0.197550 0.761040 0.250010 1.443590
V2    V     V_3+5 0.802450 0.238960 0.749990 1.443590
O15   O     O_R   0.809160 0.653640 0.162540 -0.536156
O16   O     O_R   0.190840 0.346360 0.837460 -0.536156
C5    C     C_R   0.977975 0.631878 0.133361 0.730440
C6    C     C_R   0.022025 0.368122 0.866639 0.730440
O17   O     O_R   0.809090 0.653640 0.337440 -0.539765
O18   O     O_R   0.190910 0.346360 0.662560 -0.539765
C7    C     C_R   0.977896 0.631696 0.366361 0.751928
C8    C     C_R   0.022104 0.368304 0.633639 0.751927
V3    V     V_3+5 0.697540 0.738950 0.250000 1.447404
V4    V     V_3+5 0.302460 0.261050 0.750000 1.447404
O19   O     O_3   0.972580 0.809550 0.250010 -0.384356
O20   O     O_3   0.027420 0.190450 0.749990 -0.384355
C9    C     C_3   0.178697 0.533747 0.482690 -0.245844
C10   C     C_3   0.821303 0.466253 0.517309 -0.245844
C11   C     C_3   0.070952 0.541214 0.567693 0.364284
C12   C     C_3   0.929048 0.458786 0.432307 0.364283
H1    H     H_    0.324650 0.561903 0.469854 0.144808
H2    H     H_    0.675350 0.438097 0.530145 0.144808
C13   C     C_3   0.010523 0.437579 0.562713 -0.143162
C14   C     C_3   0.989477 0.562421 0.437286 -0.143162
C15   C     C_3   0.115138 0.429137 0.476983 0.068331
C16   C     C_3   0.884862 0.570863 0.523017 0.068331
C17   C     C_3   0.832610 0.459265 0.990145 0.426544
C18   C     C_3   0.167389 0.540735 0.009855 0.426544
C19   C     C_3   0.950334 0.455118 0.072266 -0.274291
C20   C     C_3   0.049665 0.544882 0.927733 -0.274290
H3    H     H_    0.906008 0.418418 0.131014 0.145016
H4    H     H_    0.093992 0.581581 0.868985 0.145016
C21   C     C_3   0.988421 0.561851 0.062817 -0.070024
C22   C     C_3   0.011579 0.438149 0.937183 -0.070024
C23   C     C_3   0.866689 0.565823 0.981211 -0.214976
C24   C     C_3   0.133311 0.434177 0.018789 -0.214977
H5    H     H_    0.755972 0.619147 0.966449 0.129779
H6    H     H_    0.244028 0.380853 0.033550 0.129779
C25   C     C_3   0.679643 0.973682 0.477683 -0.214913
C26   C     C_3   0.320356 0.026317 0.522317 -0.214913
C27   C     C_3   0.597884 0.074128 0.475875 0.401471
C28   C     C_3   0.402116 0.925872 0.524125 0.401471
H7    H     H_    0.827487 0.953913 0.458517 0.139443
H8    H     H_    0.172513 0.046087 0.541483 0.139443
C29   C     C_3   0.509665 0.060979 0.563563 -0.070422
C30   C     C_3   0.490335 0.939021 0.436437 -0.070422
C31   C     C_3   0.588819 0.959477 0.566766 -0.259091
C32   C     C_3   0.411181 0.040523 0.433234 -0.259091
H9    H     H_    0.657987 0.925482 0.621919 0.126247
H10   H     H_    0.342013 0.074518 0.378081 0.126247
C33   C     C_3   0.673150 0.958204 0.008739 -0.207276
C34   C     C_3   0.326850 0.041796 0.991260 -0.207276
C35   C     C_3   0.547095 0.956074 0.928183 0.157679
C36   C     C_3   0.452905 0.043926 0.071817 0.157679
H11   H     H_    0.813320 0.923336 0.017306 0.135059
H12   H     H_    0.186680 0.076663 0.982694 0.135059
C37   C     C_3   0.509036 0.062171 0.937574 -0.164551
C38   C     C_3   0.490964 0.937829 0.062426 -0.164551
C39   C     C_3   0.632806 0.064789 0.017984 0.166848
C40   C     C_3   0.367194 0.935210 0.982015 0.166848
O21   O     O_3   0.145481 0.583437 0.640307 -0.656290
H13   H     H_    0.176204 0.648962 0.623764 0.295582
O22   O     O_3   0.854519 0.416563 0.359693 -0.656290
H14   H     H_    0.823796 0.351038 0.376235 0.295582
C41   C     C_3   0.602843 0.911948 0.843306 -0.343061
C42   C     C_3   0.614457 0.804810 0.847460 -0.772560
H15   H     H_    0.680666 0.781481 0.907561 0.222665
H16   H     H_    0.469893 0.772818 0.841934 0.233406
H17   H     H_    0.702169 0.778549 0.793921 0.217425
H18   H     H_    0.498224 0.932862 0.794102 0.155003
H19   H     H_    0.743288 0.941036 0.823346 0.172196
C43   C     C_3   0.397156 0.088052 0.156694 -0.343061
C44   C     C_3   0.385543 0.195190 0.152540 -0.772561
H20   H     H_    0.530107 0.227182 0.158066 0.233406
H21   H     H_    0.319334 0.218519 0.092439 0.222665
H22   H     H_    0.297831 0.221451 0.206079 0.217425
H23   H     H_    0.256712 0.058964 0.176654 0.172196
H24   H     H_    0.501776 0.067138 0.205897 0.155003
C45   C     C_3   0.783540 0.140832 0.033529 -0.333350
C46   C     C_3   0.893469 0.122974 0.114668 -0.791099
H25   H     H_    0.797623 0.123087 0.170311 0.230128
H26   H     H_    0.966976 0.054076 0.110957 0.226543
H27   H     H_    0.999765 0.179915 0.123465 0.231466
H28   H     H_    0.885732 0.141790 0.979860 0.171832
H29   H     H_    0.713601 0.210720 0.035994 0.193612
C47   C     C_3   0.216459 0.859168 0.966471 -0.333351
C48   C     C_3   0.106531 0.877026 0.885331 -0.791099
H30   H     H_    0.033024 0.945924 0.889043 0.226543
H31   H     H_    0.202377 0.876912 0.829688 0.230128
H32   H     H_    0.000235 0.820085 0.876534 0.231466
H33   H     H_    0.286399 0.789279 0.964006 0.193613
H34   H     H_    0.114268 0.858209 0.020140 0.171833
C49   C     C_3   0.244202 0.346855 0.452080 -0.343312
C50   C     C_3   0.336814 0.362202 0.365880 -0.704088
H35   H     H_    0.225229 0.368956 0.316327 0.238665
H36   H     H_    0.427133 0.426657 0.366498 0.241641
H37   H     H_    0.429459 0.301224 0.350299 0.220428
H38   H     H_    0.358894 0.338850 0.500120 0.187791
H39   H     H_    0.157509 0.281208 0.450923 0.179396
C51   C     C_3   0.755798 0.653145 0.547920 -0.343312
C52   C     C_3   0.663187 0.637798 0.634120 -0.704088
H40   H     H_    0.572866 0.573343 0.633502 0.241641
H41   H     H_    0.774771 0.631044 0.683673 0.238665
H42   H     H_    0.570541 0.698776 0.649700 0.220428
H43   H     H_    0.842491 0.718792 0.549077 0.179396
H44   H     H_    0.641106 0.661150 0.499880 0.187791
O23   O     O_3   0.655319 0.414872 0.978616 -0.649006
H45   H     H_    0.583394 0.425595 0.031708 0.287606
O24   O     O_3   0.344681 0.585128 0.021384 -0.649005
H46   H     H_    0.416608 0.574402 0.968293 0.287608
O25   O     O_3   0.701927 0.153931 0.451765 -0.662624
H47   H     H_    0.737169 0.143394 0.391885 0.269716
O26   O     O_3   0.298073 0.846069 0.548235 -0.662624
H48   H     H_    0.262831 0.856606 0.608114 0.269716

loop_
_geom_bond_atom_site_label_1
_geom_bond_atom_site_label_2
_ccdc_geom_bond_type
C18   C21   S    
C28   C30   S    
C31   H9    S    
C25   H7    S    
O13   V3    S    
C45   C46   S    
C10   C16   S    
O4    C2    A    
V1    O19   S    
C41   C42   S    
C39   C45   S    
O23   H45   S    
C13   C15   S    
O21   H13   S    
O9    V1    S    
C38   C40   S    
O3    C1    A    
C52   H41   S    
C5    C21   S    
C33   H11   S    
C28   O26   S    
O12   V4    S    
C46   H27   S    
C51   C52   S    
C35   C40   S    
C29   C31   S    
C11   C16   S    
O7    C3    A    
C50   H35   S    
C30   C32   S    
C9    C11   S    
O5    C7    A    
O7    V1    S    
O6    C8    A    
O8    V2    S    
C21   C23   S    
C46   H26   S    
C36   C38   S    
C22   C24   S    
C26   C32   S    
C35   C37   S    
O14   V4    S    
C44   H21   S    
O14   V2    S    
C41   H18   S    
C2    C29   S    
C18   C24   S    
C14   C16   S    
C36   C43   S    
C2    O12   A    
C15   C49   S    
C6    C22   S    
C37   C39   S    
C12   C15   S    
C18   C20   S    
O11   V3    S    
C43   H24   S    
C19   H3    S    
O17   V3    S    
C20   H4    S    
C18   O24   S    
C9    C14   S    
C51   H43   S    
C10   C13   S    
C4    C37   S    
C12   C14   S    
O8    C4    A    
C52   H42   S    
C45   H28   S    
C1    O11   A    
C19   C24   S    
C34   C37   S    
O15   V3    S    
C20   C23   S    
C11   O21   S    
C9    H1    S    
C26   H8    S    
C25   C31   S    
C33   C35   S    
C32   H10   S    
C11   C13   S    
C1    C30   S    
C19   C21   S    
C7    C14   S    
C34   H12   S    
C46   H25   S    
O10   V2    S    
O1    V3    S    
C24   H6    S    
C47   H33   S    
C48   H31   S    
C33   C38   S    
C43   C44   S    
C44   H22   S    
O3    V1    S    
C17   C19   S    
C50   H37   S    
C41   H19   S    
C51   H44   S    
C49   H38   S    
C16   C51   S    
O18   V4    S    
C42   H16   S    
O15   C5    A    
O24   H46   S    
O16   C6    A    
C33   C39   S    
O25   H47   S    
C17   O23   S    
C36   C39   S    
C27   C32   S    
O26   H48   S    
V2    O20   S    
C28   C31   S    
O10   C6    A    
C43   H23   S    
O16   V4    S    
C10   H2    S    
C12   O22   S    
C27   O25   S    
C17   C22   S    
C27   C29   S    
O5    V1    S    
C34   C40   S    
C42   H17   S    
O6    V2    S    
C20   C22   S    
O18   C8    A    
C8    C13   S    
O2    V4    S    
C9    C15   S    
C25   C27   S    
V3    O19   S    
C52   H40   S    
V4    O20   S    
C17   C23   S    
C47   H34   S    
O9    C5    A    
O13   V1    S    
C26   C28   S    
C48   H32   S    
C10   C12   S    
C47   C48   S    
O2    C4    A    
C50   H36   S    
C35   C41   S    
C49   H39   S    
O22   H14   S    
O4    V2    S    
O1    C3    A    
C25   C30   S    
C34   C36   S    
C42   H15   S    
C48   H30   S    
C26   C29   S    
C40   C47   S    
C23   H5    S    
C44   H20   S    
C49   C50   S    
C45   H29   S    
C3    C38   S    
O17   C7    A    
