data_mof_unit_68474.cif
_audit_creation_date              2012-12-10T18:59:53-0500
_audit_creation_method            fapswitch 2.2
_symmetry_space_group_name_H-M    P1
_symmetry_Int_Tables_number       1
_space_group_crystal_system       triclinic
_cell_length_a                    11.04573
_cell_length_b                    10.795159
_cell_length_c                    10.093313
_cell_angle_alpha                 87.708001
_cell_angle_beta                  91.170736
_cell_angle_gamma                 95.575521
_cell_volume                      1196.71293404

loop_
_atom_site_label
_atom_site_type_symbol
_atom_type_description
_atom_site_fract_x
_atom_site_fract_y
_atom_site_fract_z
_atom_type_partial_charge
C1    C     C_R   0.499760 0.260301 0.501681 0.899127
C2    C     C_R   0.499227 0.739139 0.497073 0.926949
C3    C     C_R   0.874293 0.501197 0.503937 -0.061465
C4    C     C_R   0.128189 0.497012 0.495847 -0.159704
C5    C     C_R   0.935678 0.425796 0.596180 -0.030535
C6    C     C_R   0.067359 0.568345 0.401101 -0.004604
C7    C     C_R   0.549058 0.074445 0.393863 -0.418973
C8    C     C_R   0.434726 0.922779 0.592562 -0.370744
C9    C     C_R   0.552552 0.946747 0.390250 0.487564
C10   C     C_R   0.445013 0.050591 0.603868 0.486369
C11   C     C_R   0.493078 0.871057 0.490200 -0.193456
C12   C     C_R   0.497694 0.126663 0.501185 -0.207369
C13   C     C_R   0.553331 0.598254 0.068842 -0.270076
C14   C     C_R   0.432104 0.410589 0.931153 -0.310050
C15   C     C_R   0.552041 0.600395 0.926689 0.456896
C16   C     C_R   0.431369 0.408964 0.074173 0.531871
C17   C     C_R   0.260864 0.499431 0.498487 0.902806
C18   C     C_R   0.740124 0.500378 0.501661 0.866956
C19   C     C_R   0.259266 0.755703 0.146142 -0.181082
C20   C     C_R   0.829980 0.239224 0.900777 -0.272137
C21   C     C_R   0.200432 0.721874 0.265290 0.079232
C22   C     C_R   0.852518 0.268375 0.767423 0.045994
C23   C     C_R   0.127871 0.607500 0.276256 -0.053797
C24   C     C_R   0.884605 0.393268 0.726806 0.011283
C25   C     C_R   0.119074 0.524230 0.170944 0.501663
C26   C     C_R   0.891718 0.488859 0.818711 0.387030
C27   C     C_R   0.177449 0.560392 0.051482 0.071644
C28   C     C_R   0.859021 0.458304 0.951046 0.108364
C29   C     C_R   0.244334 0.679134 0.036996 0.018883
C30   C     C_R   0.824088 0.333971 0.990872 0.161024
C31   C     C_R   0.942070 0.577208 0.410466 0.092496
C32   C     C_R   0.061794 0.418467 0.586539 -0.020289
H1    H     H_    0.313044 0.844564 0.136641 0.157968
H2    H     H_    0.808940 0.142799 0.932085 0.166712
H3    H     H_    0.592999 0.133141 0.316036 0.176616
H4    H     H_    0.392397 0.864456 0.671930 0.204988
H5    H     H_    0.592255 0.679404 0.119456 0.206532
H6    H     H_    0.371021 0.344346 0.878757 0.197763
N1    N     N_R   0.499970 0.499970 0.857200 -0.151686
N2    N     N_R   0.500030 0.500030 0.142800 -0.145229
O1    O     O_R   0.499990 0.316750 0.614620 -0.564601
O2    O     O_R   0.500010 0.683250 0.385380 -0.569718
O3    O     O_R   0.499990 0.316780 0.385290 -0.647445
O4    O     O_R   0.500010 0.683220 0.614710 -0.599895
O5    O     O_R   0.316760 0.500000 0.614660 -0.606764
O6    O     O_R   0.683240 0.500000 0.385340 -0.623678
O7    O     O_R   0.316760 0.500020 0.385330 -0.616966
O8    O     O_R   0.683240 0.499980 0.614670 -0.637659
Zn1   Zn    Zn3+2 0.500000 0.499980 0.653120 0.966937
Zn2   Zn    Zn3+2 0.500000 0.500020 0.346880 0.976438
N3    N     N_3   0.282797 0.728646 0.908512 -0.477696
H7    H     H_    0.328955 0.817455 0.915437 0.204606
H8    H     H_    0.343528 0.672625 0.870021 0.238842
N4    N     N_3   0.778154 0.306183 0.122077 -0.392342
H9    H     H_    0.752844 0.210884 0.135590 0.148604
H10   H     H_    0.697830 0.349027 0.129438 0.181865
O9    O     O_3   0.573633 0.715853 0.862707 -0.631161
C33   C     C_3   0.696025 0.734284 0.827303 0.177760
H11   H     H_    0.710645 0.672943 0.746370 0.246444
H12   H     H_    0.756730 0.720218 0.913501 0.134458
C34   C     C_3   0.728090 0.866102 0.774958 -0.880631
H13   H     H_    0.723056 0.931183 0.856194 0.239615
H14   H     H_    0.821877 0.876850 0.737724 0.241331
H15   H     H_    0.666973 0.887517 0.690929 0.249032
O10   O     O_3   0.338720 0.336256 0.139826 -0.636751
C35   C     C_3   0.366834 0.212362 0.166516 0.144717
H16   H     H_    0.342275 0.186930 0.270697 0.182857
H17   H     H_    0.465298 0.201261 0.158881 0.130625
C36   C     C_3   0.290007 0.118605 0.081327 -0.943861
H18   H     H_    0.216450 0.066830 0.139238 0.233919
H19   H     H_    0.250894 0.165042 0.992471 0.278458
H20   H     H_    0.346339 0.046141 0.049118 0.239382
N5    N     N_3   0.212032 0.803873 0.374609 -0.459078
H21   H     H_    0.126816 0.834744 0.389616 0.171801
H22   H     H_    0.269686 0.883747 0.350148 0.187199
N6    N     N_3   0.836055 0.171095 0.674214 -0.471630
H23   H     H_    0.917259 0.164206 0.625702 0.179120
H24   H     H_    0.771584 0.195449 0.602981 0.180123
O11   O     O_3   0.036358 0.417814 0.171699 -0.593190
C37   C     C_3   0.067496 0.324091 0.264492 0.159571
H25   H     H_    0.012345 0.327350 0.353887 0.149143
H26   H     H_    0.165562 0.331399 0.291879 0.179733
C38   C     C_3   0.032114 0.195903 0.211140 -0.850068
H27   H     H_    0.056277 0.193544 0.105239 0.282466
H28   H     H_    0.077483 0.125626 0.272214 0.190725
H29   H     H_    0.933605 0.170018 0.221063 0.242749
O12   O     O_3   0.905005 0.612445 0.771896 -0.676602
C39   C     C_3   0.027211 0.663619 0.774752 0.128881
H30   H     H_    0.089902 0.598356 0.741443 0.187410
H31   H     H_    0.052126 0.692787 0.875780 0.179792
C40   C     C_3   0.044405 0.779479 0.683269 -0.850360
H32   H     H_    0.986555 0.768310 0.592624 0.271296
H33   H     H_    0.021887 0.862474 0.735499 0.232903
H34   H     H_    0.141155 0.796262 0.653848 0.234628
N7    N     N_3   0.158554 0.478224 0.943049 -0.473992
H35   H     H_    0.222577 0.501045 0.869738 0.194606
H36   H     H_    0.172816 0.388112 0.976982 0.237487
N8    N     N_3   0.863264 0.550758 0.048778 -0.413388
H37   H     H_    0.774173 0.564650 0.069248 0.144990
H38   H     H_    0.908179 0.635399 0.016579 0.173652
N9    N     N_3   0.885589 0.674042 0.337941 -0.485597
H39   H     H_    0.949074 0.736527 0.288944 0.175535
H40   H     H_    0.827929 0.634070 0.266033 0.229002
N10   N     N_3   0.124601 0.330054 0.665873 -0.443902
H41   H     H_    0.108357 0.242769 0.624721 0.174031
H42   H     H_    0.095813 0.323860 0.763630 0.201896
O13   O     O_3   0.609433 0.896352 0.286901 -0.597301
C41   C     C_3   0.736575 0.928288 0.296647 0.094304
H43   H     H_    0.775992 0.867510 0.374053 0.162667
H44   H     H_    0.762147 0.026697 0.322844 0.119280
C42   C     C_3   0.793305 0.911063 0.163468 -0.867849
H45   H     H_    0.754630 0.973311 0.087239 0.246508
H46   H     H_    0.893307 0.934574 0.169766 0.211848
H47   H     H_    0.774306 0.813509 0.133395 0.247199
O14   O     O_3   0.428169 0.098687 0.725377 -0.602323
C43   C     C_3   0.528861 0.070318 0.806131 0.097105
H48   H     H_    0.614944 0.073992 0.750134 0.170521
H49   H     H_    0.508390 0.977459 0.856857 0.189880
C44   C     C_3   0.553848 0.166011 0.907848 -0.897529
H50   H     H_    0.467265 0.186354 0.942654 0.287101
H51   H     H_    0.606644 0.128744 0.992105 0.205600
H52   H     H_    0.599057 0.253190 0.862640 0.279802

loop_
_geom_bond_atom_site_label_1
_geom_bond_atom_site_label_2
_ccdc_geom_bond_type
O4    Zn1   S    
C35   H17   S    
O12   C39   S    
N9    H39   S    
C27   C29   A    
N5    H22   S    
N5    H21   S    
C39   H31   S    
C27   N7    S    
N7    H35   S    
C22   N6    S    
N10   H42   S    
C20   C30   A    
C41   H43   S    
C30   N4    S    
C31   N9    S    
C19   C21   A    
C24   C26   A    
C35   C36   S    
C40   H33   S    
C33   H12   S    
O14   C43   S    
C21   N5    S    
C43   H48   S    
C3    C18   S    
C34   H14   S    
C8    H4    S    
C36   H19   S    
C13   N2    A    
C14   N1    A    
C1    O3    A    
C42   H45   S    
C2    O4    A    
C26   O12   S    
O13   C41   S    
C32   N10   S    
C13   H5    S    
C5    C32   A    
C20   H2    S    
C33   C34   S    
C6    C31   A    
N9    H40   S    
C15   O9    S    
C34   H13   S    
C1    C12   S    
C37   C38   S    
C2    C11   S    
C18   O6    A    
O1    Zn1   S    
N10   H41   S    
O7    Zn2   S    
C44   H51   S    
C7    C12   A    
N4    H10   S    
N6    H24   S    
N3    H7    S    
C43   C44   S    
N6    H23   S    
C37   H26   S    
C19   H1    S    
C40   H32   S    
C33   H11   S    
N3    H8    S    
C36   H20   S    
C14   H6    S    
C38   H27   S    
C39   C40   S    
O5    Zn1   S    
C42   H46   S    
C3    C31   A    
C9    C11   A    
C15   N1    A    
C41   H44   S    
C4    C32   A    
C10   C12   A    
O2    Zn2   S    
C4    C17   S    
C4    C6    A    
O8    Zn1   S    
N1    Zn1   S    
C16   N2    A    
O10   C35   S    
N8    H38   S    
C21   C23   A    
C14   C16   A    
C9    O13   S    
C20   C22   A    
C19   C29   A    
C29   N3    S    
C44   H52   S    
C28   N8    S    
C7    C9    A    
N4    H9    S    
C38   H28   S    
C25   O11   S    
C7    H3    S    
C17   O7    A    
C17   O5    A    
C37   H25   S    
C3    C5    A    
C18   O8    A    
C1    O1    A    
C44   H50   S    
N7    H36   S    
O3    Zn2   S    
C25   C27   A    
O6    Zn2   S    
C26   C28   A    
C41   C42   S    
C13   C15   A    
C34   H15   S    
O9    C33   S    
C5    C24   S    
C2    O2    A    
C8    C11   A    
N2    Zn2   S    
C6    C23   S    
C28   C30   A    
C43   H49   S    
C35   H16   S    
C42   H47   S    
C22   C24   A    
C23   C25   A    
C36   H18   S    
O11   C37   S    
C38   H29   S    
C39   H30   S    
C8    C10   A    
N8    H37   S    
C16   O10   S    
C10   O14   S    
C40   H34   S    
