data_mof_unit_46343.cif
_audit_creation_date              2012-12-11T14:06:36-0500
_audit_creation_method            fapswitch 2.2
_symmetry_space_group_name_H-M    P1
_symmetry_Int_Tables_number       1
_space_group_crystal_system       triclinic
_cell_length_a                    6.937005
_cell_length_b                    17.308624
_cell_length_c                    23.918437
_cell_angle_alpha                 103.49317
_cell_angle_beta                  90.216693
_cell_angle_gamma                 89.93679
_cell_volume                      2792.59638795

loop_
_atom_site_label
_atom_site_type_symbol
_atom_type_description
_atom_site_fract_x
_atom_site_fract_y
_atom_site_fract_z
_atom_type_partial_charge
O1    O     O_R   0.494290 0.391990 0.999150 -0.535133
O2    O     O_R   0.827170 0.534410 0.082350 -0.542346
O3    O     O_R   0.994360 0.608010 0.000850 -0.534582
C1    C     C_R   0.658255 0.549028 0.106300 0.703018
O4    O     O_R   0.824210 0.388010 0.004470 -0.546193
O5    O     O_R   0.991370 0.460560 0.922410 -0.539333
C2    C     C_R   0.654585 0.354898 0.001487 0.771632
O6    O     O_R   0.497270 0.539440 0.077590 -0.540310
O7    O     O_3   0.659770 0.523970 0.973170 -0.370274
V1    V     V_3+5 0.935840 0.495550 0.004980 1.410675
O8    O     O_R   0.320910 0.465590 0.917650 -0.543203
C3    C     C_R   0.152128 0.450167 0.893757 0.705402
O9    O     O_R   0.323870 0.611990 0.995530 -0.545052
C4    C     C_R   0.154373 0.645089 0.998507 0.777153
V2    V     V_3+5 0.435470 0.504450 0.995020 1.412286
O10   O     O_3   0.161670 0.476030 0.026830 -0.372409
C5    C     C_2   0.142657 0.730267 0.998108 -0.338884
H1    H     H_    0.276882 0.761129 0.994744 0.150885
C6    C     C_2   0.972895 0.769778 0.002040 -0.338406
H2    H     H_    0.838671 0.738917 0.005407 0.150876
C7    C     C_R   0.087274 0.244820 0.627541 0.578837
N1    N     N_R   0.122036 0.324483 0.647632 -0.558862
C8    C     C_R   0.147183 0.372713 0.610114 0.568925
C9    C     C_R   0.132182 0.341631 0.550076 -0.070139
C10   C     C_R   0.092124 0.260615 0.528950 -0.015988
C11   C     C_R   0.072444 0.211307 0.567982 -0.025083
C12   C     C_R   0.151981 0.390408 0.511137 -0.199995
C13   C     C_R   0.129511 0.360841 0.451354 0.073136
C14   C     C_R   0.080282 0.278967 0.429708 -0.054110
C15   C     C_R   0.068755 0.228911 0.468959 -0.032137
C16   C     C_R   0.030944 0.146907 0.448546 -0.020872
C17   C     C_R   0.017412 0.098034 0.487790 -0.155629
C18   C     C_R   0.036620 0.129894 0.546737 -0.132817
C19   C     C_R   0.039935 0.244387 0.370766 0.533950
N2    N     N_R   0.014808 0.164083 0.351763 -0.555168
C20   C     C_R   0.008726 0.115366 0.389177 0.576626
O11   O     O_2   0.067181 0.198023 0.665045 -0.510982
O12   O     O_2   0.183437 0.450749 0.630745 -0.522793
H3    H     H_    0.182613 0.452828 0.527762 0.158764
O13   O     O_2   0.021013 0.289840 0.332423 -0.537621
O14   O     O_2   0.981216 0.036617 0.368956 -0.516991
H4    H     H_    0.989692 0.034947 0.473126 0.166364
H5    H     H_    0.022627 0.090439 0.575607 0.183714
C21   C     C_R   0.167213 0.125058 0.256673 -0.102269
H6    H     H_    0.305831 0.142549 0.276581 0.105487
C22   C     C_R   0.154904 0.098108 0.196959 -0.190757
H7    H     H_    0.285852 0.094916 0.172022 0.129545
C23   C     C_R   0.975785 0.076705 0.169859 -0.057342
C24   C     C_R   0.809644 0.082018 0.204332 -0.198765
H8    H     H_    0.669527 0.065934 0.185043 0.130812
C25   C     C_R   0.822583 0.108736 0.264268 -0.082470
H9    H     H_    0.693227 0.113649 0.290056 0.114569
C26   C     C_R   0.001441 0.130729 0.290694 0.396870
C27   C     C_R   0.960792 0.363479 0.742239 -0.090630
H10   H     H_    0.824285 0.343817 0.721720 0.116673
C28   C     C_R   0.967577 0.394110 0.801946 -0.192258
H11   H     H_    0.835189 0.397172 0.826208 0.129123
C29   C     C_R   0.143390 0.419454 0.829948 -0.058646
C30   C     C_R   0.311649 0.414024 0.796291 -0.194907
H12   H     H_    0.449623 0.432916 0.816098 0.131395
C31   C     C_R   0.304288 0.383834 0.736541 -0.082470
H13   H     H_    0.435551 0.379769 0.711661 0.118870
C32   C     C_R   0.129049 0.357910 0.709049 0.381156
C33   C     C_R   0.432835 0.878843 0.608444 0.576330
N3    N     N_R   0.514981 0.842258 0.647767 -0.556112
C34   C     C_R   0.613236 0.772114 0.629990 0.578816
C35   C     C_R   0.629972 0.735776 0.571105 -0.056289
C36   C     C_R   0.545985 0.771701 0.530203 -0.016190
C37   C     C_R   0.447653 0.844532 0.548904 -0.022179
C38   C     C_R   0.720148 0.662190 0.552923 -0.161936
C39   C     C_R   0.717032 0.620321 0.495053 0.095416
C40   C     C_R   0.653856 0.660231 0.451975 -0.049638
C41   C     C_R   0.561183 0.735090 0.470655 -0.037914
C42   C     C_R   0.481170 0.773486 0.430067 -0.021768
C43   C     C_R   0.383597 0.846197 0.449188 -0.133659
C44   C     C_R   0.366378 0.881078 0.507798 -0.150146
C45   C     C_R   0.680940 0.630786 0.391586 0.538448
N4    N     N_R   0.599475 0.668730 0.352791 -0.551486
C46   C     C_R   0.500080 0.738481 0.371121 0.582676
O15   O     O_2   0.338521 0.948295 0.626707 -0.518733
O16   O     O_2   0.691080 0.736476 0.669310 -0.523897
H14   H     H_    0.781574 0.633700 0.584727 0.177586
O17   O     O_2   0.793373 0.567057 0.371489 -0.554092
O18   O     O_2   0.422724 0.774986 0.332242 -0.517354
H15   H     H_    0.319951 0.876590 0.418853 0.182011
H16   H     H_    0.289881 0.936973 0.520729 0.163820
C47   C     C_R   0.797941 0.628747 0.264170 -0.074632
H17   H     H_    0.927108 0.647359 0.289231 0.135069
C48   C     C_R   0.812453 0.599985 0.204286 -0.205609
H18   H     H_    0.953401 0.596626 0.184571 0.129329
C49   C     C_R   0.646355 0.577434 0.170268 -0.057200
C50   C     C_R   0.466271 0.582947 0.198062 -0.192005
H19   H     H_    0.335162 0.565670 0.173660 0.131461
C51   C     C_R   0.452230 0.611152 0.257751 -0.113467
H20   H     H_    0.311815 0.615147 0.277862 0.123798
C52   C     C_R   0.617365 0.635073 0.291442 0.374597
C53   C     C_R   0.662493 0.898868 0.742550 -0.077183
H21   H     H_    0.802855 0.895489 0.722451 0.125605
C54   C     C_R   0.648881 0.923532 0.802358 -0.193212
H22   H     H_    0.780092 0.939509 0.826990 0.132660
C55   C     C_R   0.468958 0.926876 0.829942 -0.059327
C56   C     C_R   0.302403 0.906533 0.795809 -0.195034
H23   H     H_    0.161591 0.908644 0.815487 0.129779
C57   C     C_R   0.316544 0.881302 0.735797 -0.081383
H24   H     H_    0.187552 0.863476 0.710456 0.129987
C58   C     C_R   0.497051 0.876455 0.708760 0.373619
C59   C     C_2   0.642762 0.269673 0.001879 -0.341020
H25   H     H_    0.777062 0.238679 0.005216 0.150573
C60   C     C_2   0.472748 0.230285 0.997978 -0.339949
H26   H     H_    0.338446 0.261279 0.994642 0.150507
O19   O     O_R   0.618210 0.960470 0.922400 -0.540682
O20   O     O_R   0.291310 0.111960 0.995450 -0.546110
O21   O     O_R   0.124210 0.039530 0.077580 -0.540437
C61   C     C_R   0.460931 0.145071 0.998405 0.771569
O22   O     O_R   0.288310 0.965490 0.917650 -0.542510
O23   O     O_R   0.121180 0.892010 0.999220 -0.534787
C62   C     C_R   0.457251 0.951962 0.893790 0.707790
O24   O     O_R   0.621230 0.107990 0.000760 -0.535224
O25   O     O_3   0.455770 0.976060 0.026840 -0.370881
V3    V     V_3+5 0.179680 0.004440 0.995020 1.412371
O26   O     O_R   0.791670 0.888040 0.004570 -0.545185
C63   C     C_R   0.961172 0.854944 0.001605 0.776497
O27   O     O_R   0.794680 0.034510 0.082370 -0.543809
C64   C     C_R   0.963879 0.048977 0.106163 0.705538
V4    V     V_3+5 0.680070 0.995560 0.005010 1.412594
O28   O     O_3   0.953840 0.023940 0.973160 -0.371705
C65   C     C_3   0.760820 0.532009 0.485344 -0.359074
C66   C     C_3   0.609894 0.490802 0.515543 -0.324432
C67   C     C_3   0.659752 0.403874 0.511880 -0.728856
H27   H     H_    0.702050 0.372814 0.467627 0.225391
H28   H     H_    0.778209 0.400668 0.542255 0.241603
H29   H     H_    0.534662 0.372704 0.525018 0.230416
H30   H     H_    0.596015 0.520586 0.561770 0.223998
H31   H     H_    0.468042 0.494994 0.495200 0.195330
H32   H     H_    0.760343 0.499775 0.439983 0.225352
H33   H     H_    0.905878 0.525159 0.503228 0.176326
C68   C     C_3   0.158194 0.419519 0.413482 -0.302399
C69   C     C_3   0.341732 0.402480 0.376648 -0.276151
C70   C     C_3   0.357059 0.458659 0.336267 -0.687225
H34   H     H_    0.234699 0.448947 0.305329 0.241683
H35   H     H_    0.355664 0.521411 0.361207 0.223198
H36   H     H_    0.493952 0.447454 0.311783 0.233349
H37   H     H_    0.470476 0.410503 0.404758 0.192660
H38   H     H_    0.346092 0.340406 0.350811 0.224090
H39   H     H_    0.028182 0.421311 0.386720 0.234026
H40   H     H_    0.171343 0.481081 0.440233 0.144096

loop_
_geom_bond_atom_site_label_1
_geom_bond_atom_site_label_2
_ccdc_geom_bond_type
C47   H17   S    
C6    C63   S    
C55   C56   A    
N2    C26   S    
C33   O15   S    
C41   C42   A    
N2    C20   A    
C9    C12   A    
C1    O6    A    
C66   C67   S    
C57   C58   A    
C53   H21   S    
O27   C64   A    
C45   N4    A    
C40   C45   A    
O23   C63   A    
C19   O13   S    
C68   H39   S    
C13   C14   A    
C65   H32   S    
C69   H37   S    
O5    C3    A    
C15   C16   A    
C56   C57   A    
C70   H36   S    
V3    O28   S    
O27   V4    S    
C27   C32   A    
C45   O17   S    
V2    O10   S    
C28   H11   S    
C37   C44   A    
C19   N2    A    
C31   C32   A    
N1    C32   S    
C27   H10   S    
O8    V2    S    
C21   C26   A    
C43   H15   S    
C16   C17   A    
N4    C52   S    
C36   C37   A    
C24   C25   A    
O19   V4    S    
C8    C9    A    
C38   C39   A    
O1    V2    S    
O24   V4    S    
C48   C49   A    
O7    V1    S    
C1    C49   S    
C3    C29   S    
C34   C35   A    
C30   H12   S    
O9    C4    A    
C59   C60   D    
C4    C5    S    
C39   C65   S    
C20   O14   S    
C56   H23   S    
C66   H30   S    
O20   C61   A    
C57   H24   S    
C53   C54   A    
C7    C11   A    
C21   C22   A    
C22   C23   A    
N1    C8    A    
C23   C64   S    
C70   H34   S    
C27   C28   A    
C30   C31   A    
C42   C43   A    
C35   C36   A    
C18   H5    S    
C68   H40   S    
C65   H33   S    
C12   H3    S    
C49   C50   A    
O20   V3    S    
N4    C46   A    
O22   C62   A    
C10   C11   A    
C14   C19   A    
O23   V3    S    
C25   C26   A    
O2    C1    A    
C43   C44   A    
O26   V4    S    
C14   C15   A    
C66   H31   S    
O21   V3    S    
C11   C18   A    
C54   H22   S    
C59   H25   S    
C47   C52   A    
C50   C51   A    
C5    H1    S    
C7    O11   S    
C51   H20   S    
C33   C37   A    
C9    C10   A    
C51   C52   A    
O26   C63   A    
C61   O24   A    
O3    C4    A    
C60   C61   S    
C53   C58   A    
O25   V4    S    
C23   C24   A    
C54   C55   A    
C24   H8    S    
O6    V2    S    
C42   C46   A    
C47   C48   A    
V4    O28   S    
C2    C59   S    
C29   C30   A    
C65   C66   S    
O2    V1    S    
C44   H16   S    
N3    C58   S    
C21   H6    S    
O4    C2    A    
C67   H27   S    
C10   C15   A    
C22   H7    S    
O1    C2    A    
C13   C68   S    
C40   C41   A    
O5    V1    S    
O25   V3    S    
C8    O12   S    
C68   C69   S    
O19   C62   A    
C35   C38   A    
C55   C62   S    
C17   C18   A    
C67   H29   S    
C6    H2    S    
O9    V2    S    
C36   C41   A    
C25   H9    S    
O3    V1    S    
V1    O10   S    
C60   H26   S    
C33   N3    A    
C34   O16   S    
C70   H35   S    
C46   O18   S    
O21   C64   A    
C50   H19   S    
C5    C6    D    
C28   C29   A    
N3    C34   A    
O7    V2    S    
C31   H13   S    
C38   H14   S    
C69   C70   S    
O4    V1    S    
C39   C40   A    
O22   V3    S    
C12   C13   A    
C17   H4    S    
C16   C20   A    
C69   H38   S    
C48   H18   S    
C7    N1    A    
O8    C3    A    
C67   H28   S    
