data_mof_unit_47513.cif
_audit_creation_date              2013-03-05T16:48:20-0500
_audit_creation_method            fapswitch 2.2
_symmetry_space_group_name_H-M    P1
_symmetry_Int_Tables_number       1
_space_group_crystal_system       triclinic
_cell_length_a                    15.01919
_cell_length_b                    11.021174
_cell_length_c                    13.959507
_cell_angle_alpha                 90.920828
_cell_angle_beta                  91.658854
_cell_angle_gamma                 88.247578
_cell_volume                      2308.38937545

loop_
_atom_site_label
_atom_site_type_symbol
_atom_site_description
_atom_site_fract_x
_atom_site_fract_y
_atom_site_fract_z
_atom_type_partial_charge
O1    O     O_R   0.500000 0.319630 0.582270 -0.526240
O2    O     O_R   0.500000 0.680370 0.417730 -0.520638
O3    O     O_R   0.499990 0.319660 0.417730 -0.617282
O4    O     O_R   0.500010 0.680340 0.582270 -0.622044
C1    C     C_R   0.500184 0.262599 0.499219 0.804131
C2    C     C_R   0.499848 0.737594 0.500679 0.796569
O5    O     O_R   0.370260 0.499960 0.582280 -0.593427
O6    O     O_R   0.629740 0.500040 0.417720 -0.590872
O7    O     O_R   0.370250 0.499990 0.417740 -0.496231
O8    O     O_R   0.629750 0.500010 0.582260 -0.495946
C3    C     C_R   0.329387 0.503240 0.499107 0.794236
C4    C     C_R   0.670621 0.496600 0.500896 0.795462
Cu1   Cu    Cu3+1 0.500010 0.499980 0.597420 1.005837
Cu2   Cu    Cu3+1 0.499990 0.500020 0.402580 1.010235
C5    C     C_R   0.809369 0.602303 0.499585 -0.157244
C6    C     C_R   0.190743 0.397348 0.500605 -0.150249
C7    C     C_R   0.767149 0.492879 0.502293 -0.053073
C8    C     C_R   0.232878 0.506845 0.497853 -0.054051
C9    C     C_R   0.815787 0.382144 0.499809 0.141634
C10   C     C_R   0.184252 0.617554 0.501087 0.142840
C11   C     C_R   0.910528 0.382634 0.501825 0.072847
C12   C     C_R   0.089542 0.617083 0.499835 0.071901
C13   C     C_R   0.953159 0.497147 0.501032 -0.058782
C14   C     C_R   0.046940 0.502551 0.500701 -0.060609
C15   C     C_R   0.901754 0.606687 0.499536 0.099441
C16   C     C_R   0.098356 0.392994 0.501961 0.103419
C17   C     C_R   0.964537 0.273983 0.504707 0.122360
C18   C     C_R   0.035536 0.725788 0.497754 0.123768
C19   C     C_R   0.057492 0.280147 0.504777 0.182919
C20   C     C_R   0.942593 0.719596 0.497658 0.176824
H1    H     H_    0.768818 0.684353 0.495023 0.162279
H2    H     H_    0.231441 0.315225 0.503571 0.165508
C21   C     C_R   0.312811 0.199146 0.228609 0.420686
C22   C     C_R   0.672890 0.802739 0.783869 0.410386
C23   C     C_R   0.348139 0.151321 0.315399 0.011332
C24   C     C_R   0.643730 0.846178 0.693222 0.026685
C25   C     C_R   0.440263 0.121797 0.325650 0.019256
C26   C     C_R   0.553185 0.880363 0.676406 0.006257
C27   C     C_R   0.496417 0.136455 0.247221 0.139549
C28   C     C_R   0.491926 0.871491 0.750452 0.129297
C29   C     C_R   0.460694 0.184131 0.161804 -0.248391
C30   C     C_R   0.520732 0.826266 0.839208 -0.228922
H3    H     H_    0.504367 0.195312 0.102357 0.177060
H4    H     H_    0.472902 0.819759 0.895381 0.179774
C31   C     C_R   0.369874 0.216221 0.151641 0.051528
C32   C     C_R   0.610468 0.792210 0.857040 0.038622
C33   C     C_R   0.475320 0.934703 0.416342 0.097193
C34   C     C_R   0.527705 0.065969 0.582108 0.090836
C35   C     C_R   0.499604 0.872043 0.501310 -0.124141
C36   C     C_R   0.500955 0.128481 0.498120 -0.121595
C37   C     C_R   0.524784 0.939094 0.584849 -0.064980
C38   C     C_R   0.474497 0.061891 0.414939 -0.073322
C39   C     C_R   0.572267 0.451994 0.796163 0.439269
C40   C     C_R   0.427693 0.547745 0.203833 0.440335
N1    N     N_R   0.499960 0.499900 0.743810 -0.248542
N2    N     N_R   0.500040 0.500100 0.256190 -0.246667
C41   C     C_R   0.429452 0.552008 0.793198 0.271485
C42   C     C_R   0.570349 0.446928 0.207114 0.275887
C43   C     C_R   0.427109 0.546903 0.895285 -0.057703
C44   C     C_R   0.572468 0.450897 0.104857 -0.061813
C45   C     C_R   0.499780 0.497294 0.948455 -0.010291
C46   C     C_R   0.499579 0.500069 0.051620 -0.009267
C47   C     C_R   0.572738 0.445905 0.898810 -0.153241
C48   C     C_R   0.426819 0.552320 0.101161 -0.153263
C49   C     C_R   0.354074 0.594785 0.945515 -0.151386
C50   C     C_R   0.645599 0.403466 0.054430 -0.147494
C51   C     C_R   0.354905 0.604984 0.044980 0.143257
C52   C     C_R   0.644781 0.393526 0.954920 0.153243
H5    H     H_    0.294187 0.627964 0.908598 0.185325
H6    H     H_    0.705938 0.371311 0.090924 0.182447
N3    N     N_3   0.449463 0.868761 0.330821 -0.511689
H7    H     H_    0.385620 0.897721 0.307882 0.241042
H8    H     H_    0.494294 0.885106 0.277055 0.219903
N4    N     N_3   0.560689 0.131992 0.664799 -0.513097
H9    H     H_    0.625094 0.100594 0.683138 0.238983
H10   H     H_    0.519671 0.119891 0.722712 0.221939
N5    N     N_R   0.653657 0.426905 0.749209 0.120850
O9    O     O_R   0.668629 0.322561 0.707444 -0.409306
O10   O     O_R   0.715357 0.507356 0.751977 -0.349771
N6    N     N_R   0.346907 0.575537 0.251251 0.120037
O11   O     O_R   0.283989 0.496792 0.249625 -0.362890
O12   O     O_R   0.334248 0.680132 0.293491 -0.408868
N7    N     N_3   0.359783 0.619057 0.742373 -0.543780
H11   H     H_    0.340763 0.696087 0.781801 0.197457
H12   H     H_    0.388355 0.661594 0.686128 0.257765
N8    N     N_3   0.640179 0.381120 0.258926 -0.537801
H13   H     H_    0.663442 0.306800 0.219036 0.204743
H14   H     H_    0.611010 0.334498 0.312823 0.266864
N9    N     N_3   0.283999 0.678813 0.083657 -0.556885
H15   H     H_    0.238820 0.626024 0.118341 0.297115
H16   H     H_    0.309981 0.747673 0.127383 0.263368
N10   N     N_3   0.715959 0.320365 0.916072 -0.555649
H17   H     H_    0.690183 0.251437 0.872262 0.263050
H18   H     H_    0.760873 0.373592 0.881396 0.298844
N11   N     N_3   0.768512 0.271119 0.490314 -0.629947
H19   H     H_    0.725600 0.264392 0.547264 0.266533
H20   H     H_    0.730449 0.272825 0.426495 0.215373
N12   N     N_3   0.231563 0.728564 0.510194 -0.631015
H21   H     H_    0.270155 0.726707 0.573629 0.208542
H22   H     H_    0.273930 0.735399 0.452781 0.266429
N13   N     N_3   0.928497 0.155128 0.509496 -0.599636
H23   H     H_    0.889571 0.149523 0.570041 0.262929
H24   H     H_    0.892250 0.135765 0.446377 0.260254
N14   N     N_3   0.071549 0.844745 0.493881 -0.598851
H25   H     H_    0.108208 0.863120 0.556921 0.259539
H26   H     H_    0.110036 0.851371 0.433097 0.264001
N15   N     N_3   0.111293 0.170024 0.507617 -0.574311
H27   H     H_    0.094051 0.115960 0.448095 0.277452
H28   H     H_    0.097208 0.123253 0.569705 0.240441
N16   N     N_3   0.888763 0.829750 0.495939 -0.580129
H29   H     H_    0.902848 0.877594 0.434373 0.242541
H30   H     H_    0.905945 0.882814 0.556045 0.272531
N17   N     N_3   0.334918 0.264722 0.062792 -0.503828
H31   H     H_    0.310871 0.352996 0.076667 0.259203
H32   H     H_    0.385524 0.271750 0.013453 0.217009
N18   N     N_3   0.638862 0.748692 0.949851 -0.508808
H33   H     H_    0.662762 0.659345 0.941100 0.255097
H34   H     H_    0.584893 0.745823 0.995366 0.214742
N19   N     N_R   0.218637 0.226199 0.217591 0.160955
O13   O     O_R   0.176448 0.202601 0.137030 -0.309016
O14   O     O_R   0.174010 0.272613 0.288528 -0.307165
N20   N     N_R   0.766084 0.774168 0.802679 0.160434
O15   O     O_R   0.802813 0.798383 0.886097 -0.311259
O16   O     O_R   0.815828 0.728154 0.735604 -0.290101
N21   N     N_3   0.288706 0.123727 0.390141 -0.529052
H35   H     H_    0.314182 0.159053 0.454729 0.212582
H36   H     H_    0.287526 0.029502 0.396728 0.225065
N22   N     N_3   0.707513 0.862841 0.620436 -0.519435
H37   H     H_    0.682508 0.825007 0.556600 0.210393
H38   H     H_    0.713558 0.955685 0.609531 0.220857
N23   N     N_3   0.589474 0.101337 0.250849 -0.616126
H39   H     H_    0.612010 0.079371 0.320003 0.227640
H40   H     H_    0.597989 0.023806 0.207591 0.230696
N24   N     N_3   0.400459 0.911125 0.737815 -0.592165
H41   H     H_    0.374055 0.870807 0.675434 0.212469
H42   H     H_    0.397641 0.004831 0.728000 0.230701

loop_
_geom_bond_atom_site_label_1
_geom_bond_atom_site_label_2
_geom_bond_distance
_ccdc_geom_bond_type
Cu2   N2    2.043568 S    
C3    C8    1.448421 S    
N13   H23   1.045196 S    
C17   C19   1.399814 A    
C21   C31   1.412104 A    
C39   N1    1.386956 A    
C50   C52   1.391407 A    
N11   H19   1.042765 S    
N22   H37   1.042717 S    
N14   H26   1.045181 S    
C33   C35   1.415149 A    
C24   N22   1.434192 S    
N5    O9    1.297375 A    
O5    C3    1.298039 A    
N4    H10   1.043178 S    
C20   N16   1.438003 S    
O1    C1    1.309895 A    
C40   C48   1.434623 A    
C9    C11   1.422557 A    
C14   C16   1.413307 A    
C21   C23   1.411876 A    
N8    H14   1.033101 S    
C5    C15   1.389890 A    
C42   C44   1.430136 A    
C51   N9    1.433124 S    
N18   H33   1.044258 S    
C44   C46   1.404988 A    
C30   C32   1.404262 A    
O4    Cu1   2.002376 S    
C23   N21   1.434796 S    
N16   H29   1.045627 S    
C46   C48   1.412988 A    
C52   N10   1.433138 S    
C22   N20   1.442815 S    
C34   C37   1.401515 A    
N2    C42   1.385271 A    
C18   C20   1.399636 A    
C49   C51   1.390951 A    
C4    C7    1.448679 S    
C36   C38   1.417243 A    
N15   H27   1.045727 S    
C41   N7    1.439074 S    
C22   C32   1.414799 A    
N9    H16   1.044154 S    
C8    C10   1.403492 A    
C34   C36   1.411538 A    
C11   C17   1.426110 A    
C44   C50   1.404641 A    
N13   H24   1.044781 S    
C12   C18   1.426331 A    
Cu1   Cu2   2.719870 S    
C29   H3    1.083443 S    
O2    C2    1.309635 A    
C30   H4    1.083347 S    
C42   N8    1.440665 S    
N14   H25   1.044810 S    
C40   N6    1.421767 S    
N19   O14   1.301040 A    
C6    C16   1.390563 A    
C40   N2    1.386381 A    
C43   C45   1.403849 A    
N4    H9    1.043560 S    
C48   C51   1.430317 A    
C34   N4    1.438498 S    
N6    O12   1.297671 A    
N3    H8    1.044107 S    
C25   C38   1.490785 S    
N8    H13   1.040277 S    
N24   H42   1.043403 S    
C26   C37   1.487472 S    
C35   C37   1.418767 A    
C28   N24   1.435583 S    
C17   N13   1.435834 S    
C39   N5    1.421359 S    
O7    Cu2   1.966138 S    
C18   N14   1.435854 S    
N7    H11   1.041407 S    
O6    C4    1.298194 A    
N10   H18   1.041988 S    
N5    O10   1.301339 A    
O7    C3    1.306066 A    
C33   N3    1.437629 S    
C33   C38   1.401886 A    
O3    Cu2   2.002376 S    
O8    C4    1.306078 A    
O4    C2    1.310826 A    
N7    H12   1.031530 S    
C10   C12   1.422232 A    
C21   N19   1.440905 S    
N12   H22   1.042740 S    
N1    C41   1.385244 A    
N21   H35   1.043425 S    
C12   C14   1.432918 A    
C1    C36   1.477659 S    
O1    Cu1   1.995509 S    
N20   O16   1.301592 A    
N23   H39   1.043394 S    
O3    C1    1.308516 A    
C9    N11   1.435779 S    
N17   H31   1.044484 S    
C15   C20   1.405021 A    
C5    C7    1.381130 A    
C47   C52   1.429954 A    
O6    Cu2   1.954082 S    
C23   C25   1.415377 A    
C45   C47   1.412491 A    
N6    O11   1.301905 A    
N23   H40   1.045158 S    
O8    Cu1   1.966138 S    
N22   H38   1.044004 S    
N19   O13   1.301250 A    
N11   H20   1.044612 S    
C5    H1    1.076408 S    
N24   H41   1.044691 S    
C6    H2    1.077240 S    
C50   H6    1.079734 S    
C32   N18   1.437330 S    
C11   C13   1.432898 A    
N20   O15   1.301288 A    
N3    H7    1.044326 S    
C25   C27   1.415458 A    
C43   C49   1.403789 A    
C24   C26   1.414016 A    
C26   C28   1.410064 A    
C39   C47   1.435350 A    
N15   H28   1.045621 S    
C27   N23   1.438482 S    
C49   H5    1.080467 S    
C28   C30   1.395115 A    
N10   H17   1.044185 S    
C7    C9    1.403520 A    
N18   H34   1.045827 S    
C22   C24   1.413069 A    
C13   C15   1.413102 A    
C2    C35   1.481572 S    
C45   C46   1.440059 A    
O2    Cu2   1.995509 S    
N16   H30   1.045730 S    
C41   C43   1.428582 A    
C13   C14   1.411740 A    
C31   N17   1.437402 S    
O5    Cu1   1.954081 S    
C10   N12   1.435571 S    
C27   C29   1.396991 A    
C16   C19   1.405238 A    
C6    C8    1.381262 A    
N12   H21   1.044349 S    
N21   H36   1.044742 S    
C29   C31   1.402395 A    
C19   N15   1.437790 S    
Cu1   N1    2.043567 S    
N9    H15   1.041908 S    
N17   H32   1.045809 S    
