data_mof_unit_5871.cif
_audit_creation_date              2012-12-11T15:44:55-0500
_audit_creation_method            fapswitch 2.2
_symmetry_space_group_name_H-M    P1
_symmetry_Int_Tables_number       1
_space_group_crystal_system       triclinic
_cell_length_a                    6.934718
_cell_length_b                    16.786616
_cell_length_c                    17.092116
_cell_angle_alpha                 100.358082
_cell_angle_beta                  89.226644
_cell_angle_gamma                 90.789876
_cell_volume                      1956.96648892

loop_
_atom_site_label
_atom_site_type_symbol
_atom_type_description
_atom_site_fract_x
_atom_site_fract_y
_atom_site_fract_z
_atom_type_partial_charge
O1    O     O_R   0.494370 0.415690 0.413450 -0.541658
O2    O     O_R   0.819420 0.429360 0.578420 -0.540238
O3    O     O_R   0.994280 0.584310 0.586550 -0.542179
C1    C     C_R   0.650987 0.414603 0.605759 0.700778
O4    O     O_R   0.823790 0.406230 0.413570 -0.542836
O5    O     O_R   0.998670 0.561000 0.420530 -0.536833
C2    C     C_R   0.654923 0.383077 0.384910 0.687463
O6    O     O_R   0.489970 0.439000 0.579470 -0.536632
O7    O     O_3   0.662300 0.550810 0.502470 -0.370113
V1    V     V_3+5 0.935380 0.490570 0.499540 1.405758
O8    O     O_R   0.328650 0.570640 0.421580 -0.543049
C3    C     C_R   0.162957 0.586404 0.394745 0.703408
O9    O     O_R   0.324290 0.593770 0.586430 -0.543123
C4    C     C_R   0.155090 0.616935 0.615081 0.685556
V2    V     V_3+5 0.435930 0.509430 0.500460 1.403254
O10   O     O_3   0.159140 0.449190 0.497530 -0.367945
C5    C     C_R   0.312097 0.724023 0.717666 -0.153756
H1    H     H_    0.452967 0.705037 0.693890 0.116093
C6    C     C_R   0.300870 0.787813 0.782770 -0.152658
H2    H     H_    0.433675 0.816102 0.806971 0.115298
C7    C     C_R   0.121114 0.814733 0.816003 -0.045317
C8    C     C_R   0.952910 0.776065 0.782211 -0.154388
H3    H     H_    0.812038 0.795045 0.805987 0.114659
C9    C     C_R   0.964137 0.712276 0.717109 -0.151635
H4    H     H_    0.831328 0.683985 0.692916 0.118147
C10   C     C_R   0.143890 0.685354 0.683877 -0.047303
C11   C     C_R   0.171073 0.639391 0.333333 -0.069308
C12   C     C_R   0.093759 0.860426 0.166508 -0.065761
C13   C     C_R   0.897859 0.802051 0.262945 -0.199669
C14   C     C_R   0.921819 0.857127 0.211138 -0.162622
C15   C     C_R   0.244028 0.807928 0.176464 -0.238694
C16   C     C_R   0.219857 0.751552 0.228245 0.158548
C17   C     C_R   0.044962 0.748250 0.271587 0.160691
C18   C     C_R   0.020798 0.691882 0.323375 -0.238549
C19   C     C_R   0.343003 0.642679 0.288702 -0.155646
C20   C     C_R   0.366957 0.697748 0.236887 -0.195401
H5    H     H_    0.888375 0.690770 0.357627 0.122494
H6    H     H_    0.461658 0.602947 0.294598 0.131358
H7    H     H_    0.763155 0.801087 0.295677 0.121298
H8    H     H_    0.501659 0.698709 0.204153 0.125239
H9    H     H_    0.803168 0.896863 0.205248 0.125764
H10   H     H_    0.376457 0.809047 0.142217 0.122767
C21   C     C_R   0.652922 0.365943 0.670231 -0.061972
C22   C     C_R   0.614158 0.138754 0.833055 -0.135270
C23   C     C_R   0.435915 0.179218 0.724343 -0.160340
C24   C     C_R   0.463790 0.126447 0.777430 -0.192349
C25   C     C_R   0.741237 0.205513 0.833700 0.305008
C26   C     C_R   0.712014 0.259895 0.779952 0.078551
C27   C     C_R   0.557194 0.246535 0.725292 0.106524
C28   C     C_R   0.527394 0.299926 0.671420 -0.210378
C29   C     C_R   0.803588 0.379574 0.725492 -0.180617
C30   C     C_R   0.832487 0.327865 0.779602 -0.125223
H11   H     H_    0.412671 0.288033 0.628259 0.115054
H12   H     H_    0.903097 0.429958 0.725641 0.125246
H13   H     H_    0.317418 0.167738 0.682977 0.127996
H14   H     H_    0.952156 0.341155 0.819972 0.182493
H15   H     H_    0.363983 0.075966 0.775990 0.140565
C31   C     C_R   0.811652 0.276308 0.282002 -0.153436
H16   H     H_    0.952271 0.295500 0.305573 0.116430
C32   C     C_R   0.800478 0.212552 0.216868 -0.132241
H17   H     H_    0.933067 0.184499 0.192442 0.121201
C33   C     C_R   0.621051 0.185358 0.183899 -0.042956
C34   C     C_R   0.453124 0.223768 0.217941 -0.146245
H18   H     H_    0.312509 0.204581 0.194360 0.121456
C35   C     C_R   0.464299 0.287528 0.283072 -0.149077
H19   H     H_    0.331714 0.315596 0.307483 0.119682
C36   C     C_R   0.643718 0.314688 0.316076 -0.049133
O11   O     O_R   0.774880 0.061150 0.920630 -0.509319
O12   O     O_R   0.440980 0.093710 0.086500 -0.543644
O13   O     O_R   0.266190 0.938890 0.079390 -0.543588
C37   C     C_R   0.609846 0.116916 0.115126 0.699898
O14   O     O_R   0.445420 0.070740 0.921670 -0.534682
O15   O     O_R   0.270660 0.915760 0.913380 -0.547090
C38   C     C_R   0.614246 0.086866 0.895292 0.775037
O16   O     O_R   0.770400 0.084270 0.086640 -0.536905
O17   O     O_3   0.602590 0.949210 0.997500 -0.384093
V3    V     V_3+5 0.329470 0.009420 0.000470 1.464152
O18   O     O_R   0.940650 0.906250 0.913470 -0.547572
C39   C     C_R   0.109877 0.883129 0.884819 0.677297
O19   O     O_R   0.936210 0.929220 0.078300 -0.547341
C40   C     C_R   0.101898 0.913450 0.105136 0.684640
V4    V     V_3+5 0.828930 0.990510 0.999490 1.454090
O20   O     O_3   0.105680 0.050790 0.002500 -0.340600
Cl1   Cl    Cl    0.928100 0.223247 0.904514 -0.664513

loop_
_geom_bond_atom_site_label_1
_geom_bond_atom_site_label_2
_ccdc_geom_bond_type
C34   C35   A    
C15   H10   S    
C18   H5    S    
O12   V3    S    
C19   C20   A    
C1    O6    A    
C23   C24   A    
C33   C34   A    
C5    C10   A    
C16   C20   A    
C6    C7    A    
C9    C10   A    
O5    C3    A    
V3    O20   S    
C31   C32   A    
V2    O10   S    
C13   C17   A    
C32   C33   A    
O12   C37   A    
O13   C40   A    
O14   V3    S    
O8    V2    S    
C15   C16   A    
C35   C36   A    
C14   H9    S    
O1    V2    S    
O7    V1    S    
C22   C25   A    
O9    C4    A    
O13   V3    S    
C13   H7    S    
C22   C24   A    
C17   C18   A    
C11   C18   A    
C28   H11   S    
C3    C11   S    
C29   C30   A    
C20   H8    S    
C19   H6    S    
C9    H4    S    
O19   V4    S    
O17   V4    S    
O4    C2    A    
O18   C39   A    
C11   C19   A    
C31   H16   S    
V4    O20   S    
C4    C10   S    
C32   H17   S    
O2    C1    A    
C13   C14   A    
O18   V4    S    
C25   C26   A    
C23   C27   A    
C7    C39   S    
C5    H1    S    
O15   C39   A    
C21   C28   A    
C25   Cl1   S    
O17   V3    S    
C22   C38   S    
O3    C4    A    
O14   C38   A    
C26   C27   A    
C35   H19   S    
O6    V2    S    
O9    V2    S    
C24   H15   S    
C8    C9    A    
O2    V1    S    
C12   C40   S    
O1    C2    A    
C12   C15   A    
O19   C40   A    
O5    V1    S    
O8    C3    A    
O16   V4    S    
C1    C21   S    
C29   H12   S    
O11   V4    S    
C16   C17   A    
C6    H2    S    
C12   C14   A    
O7    V2    S    
O4    V1    S    
O3    V1    S    
V1    O10   S    
C37   O16   A    
C21   C29   A    
C5    C6    A    
C33   C37   S    
C2    C36   S    
C34   H18   S    
C31   C36   A    
C26   C30   A    
C23   H13   S    
C27   C28   A    
O15   V3    S    
C8    H3    S    
C7    C8    A    
O11   C38   A    
C30   H14   S    
