data_mof_unit_8536.cif
_audit_creation_date              2012-12-10T18:54:20-0500
_audit_creation_method            fapswitch 2.2
_symmetry_space_group_name_H-M    P1
_symmetry_Int_Tables_number       1
_space_group_crystal_system       triclinic
_cell_length_a                    10.709664
_cell_length_b                    9.964824
_cell_length_c                    23.428388
_cell_angle_alpha                 90.000759
_cell_angle_beta                  89.539316
_cell_angle_gamma                 89.999747
_cell_volume                      2500.19479969

loop_
_atom_site_label
_atom_site_type_symbol
_atom_type_description
_atom_site_fract_x
_atom_site_fract_y
_atom_site_fract_z
_atom_type_partial_charge
C1    C     C_R   0.260265 0.499906 0.499965 0.847253
C2    C     C_R   0.739735 0.499906 0.500035 0.847284
C3    C     C_R   0.564515 0.375778 0.242114 0.154425
C4    C     C_R   0.435422 0.375821 0.757885 0.154419
C5    C     C_R   0.567580 0.394541 0.300961 -0.287884
C6    C     C_R   0.432385 0.394565 0.699037 -0.287903
C7    C     C_R   0.499359 0.497763 0.327316 -0.085557
C8    C     C_R   0.500621 0.497776 0.672683 -0.085558
C9    C     C_R   0.430592 0.589506 0.293826 0.064573
C10   C     C_R   0.569373 0.589528 0.706175 0.064593
C11   C     C_R   0.440614 0.580262 0.234562 -0.162403
C12   C     C_R   0.559326 0.580302 0.765438 -0.162405
C13   C     C_R   0.504537 0.473657 0.208584 0.268890
C14   C     C_R   0.495392 0.473706 0.791416 0.268889
C15   C     C_R   0.063954 0.376999 0.499960 -0.200155
C16   C     C_R   0.936221 0.621547 0.500255 -0.204174
C17   C     C_R   0.936047 0.376999 0.500024 -0.200159
C18   C     C_R   0.063778 0.621547 0.499751 -0.204156
C19   C     C_R   0.872400 0.499464 0.500151 -0.003857
C20   C     C_R   0.127600 0.499464 0.499846 -0.003872
C21   C     C_R   0.482791 0.070575 0.549520 0.168476
C22   C     C_R   0.531679 0.928141 0.451952 0.159603
C23   C     C_R   0.517212 0.070573 0.450480 0.168472
C24   C     C_R   0.468325 0.928144 0.548048 0.159593
C25   C     C_R   0.497872 0.500070 0.389579 0.876916
C26   C     C_R   0.502127 0.500072 0.610421 0.876936
C27   C     C_R   0.608027 0.453799 0.879651 0.477685
C28   C     C_R   0.391900 0.453766 0.120349 0.477683
C29   C     C_R   0.385766 0.477464 0.881848 0.493099
C30   C     C_R   0.614162 0.477413 0.118153 0.493100
C31   C     C_R   0.384464 0.467598 0.941264 -0.010394
C32   C     C_R   0.615463 0.467566 0.058736 -0.010394
C33   C     C_R   0.499150 0.460924 0.970057 -0.023559
C34   C     C_R   0.500777 0.460912 0.029943 -0.023560
C35   C     C_R   0.612288 0.457030 0.939141 -0.008022
C36   C     C_R   0.387639 0.457016 0.060859 -0.008025
C37   C     C_R   0.271992 0.466342 0.972431 -0.169085
C38   C     C_R   0.727935 0.466312 0.027569 -0.169082
C39   C     C_R   0.273554 0.458168 0.031751 -0.163491
C40   C     C_R   0.726373 0.458161 0.968248 -0.163492
H1    H     H_    0.182688 0.470130 0.951108 0.189542
H2    H     H_    0.817240 0.470085 0.048892 0.189543
H3    H     H_    0.185370 0.455993 0.054702 0.191536
H4    H     H_    0.814556 0.455987 0.945298 0.191535
H5    H     H_    0.619565 0.324460 0.326855 0.167592
H6    H     H_    0.380411 0.324477 0.673141 0.167593
H7    H     H_    0.392234 0.651917 0.207856 0.152844
H8    H     H_    0.607703 0.651958 0.792146 0.152846
H9    H     H_    0.112392 0.281536 0.499952 0.155885
H10   H     H_    0.888428 0.717032 0.501135 0.149798
H11   H     H_    0.887610 0.281536 0.500023 0.155885
H12   H     H_    0.111570 0.717033 0.498878 0.149821
N1    N     N_R   0.495931 0.465125 0.852289 -0.348455
N2    N     N_R   0.503996 0.465076 0.147710 -0.348459
N3    N     N_R   0.500000 0.857200 0.500000 -0.123707
N4    N     N_R   0.500000 0.142800 0.500000 -0.123299
O1    O     O_R   0.316770 0.614620 0.500000 -0.618236
O2    O     O_R   0.683230 0.385380 0.500000 -0.627086
O3    O     O_R   0.683230 0.614620 0.500000 -0.618239
O4    O     O_R   0.316770 0.385380 0.500000 -0.627081
O5    O     O_R   0.499970 0.614690 0.416160 -0.590092
O6    O     O_R   0.500030 0.385310 0.583840 -0.584407
O7    O     O_R   0.500030 0.614690 0.583840 -0.590097
O8    O     O_R   0.499970 0.385310 0.416160 -0.584406
O9    O     O_2   0.714874 0.440247 0.849220 -0.572291
O10   O     O_2   0.285053 0.440213 0.150779 -0.572277
O11   O     O_2   0.278339 0.500980 0.853795 -0.572069
O12   O     O_2   0.721592 0.500914 0.146206 -0.572066
Zn1   Zn    Zn3+2 0.500000 0.653120 0.500000 0.965461
Zn2   Zn    Zn3+2 0.500000 0.346880 0.500000 0.963406
C41   C     C_3   0.618470 0.247244 0.217360 -0.412083
C42   C     C_3   0.514532 0.151370 0.198501 -0.359574
C43   C     C_3   0.567734 0.016715 0.179010 -0.853709
H13   H     H_    0.632997 0.031295 0.142441 0.270248
H14   H     H_    0.617905 0.967183 0.214593 0.262657
H15   H     H_    0.490477 0.950063 0.165288 0.251593
H16   H     H_    0.448684 0.133465 0.234591 0.228035
H17   H     H_    0.461556 0.196151 0.162709 0.242259
H18   H     H_    0.682283 0.268336 0.181071 0.239283
H19   H     H_    0.675986 0.195235 0.249935 0.195267
C44   C     C_3   0.381452 0.247297 0.782639 -0.412078
C45   C     C_3   0.485378 0.151408 0.801496 -0.359595
C46   C     C_3   0.432155 0.016781 0.821007 -0.853692
H20   H     H_    0.366930 0.031399 0.857587 0.270240
H21   H     H_    0.381937 0.967248 0.785438 0.262666
H22   H     H_    0.509406 0.950110 0.834720 0.251593
H23   H     H_    0.551202 0.133464 0.765401 0.228031
H24   H     H_    0.538385 0.196197 0.837278 0.242267
H25   H     H_    0.317643 0.268401 0.818928 0.239287
H26   H     H_    0.323928 0.195295 0.750065 0.195261
C47   C     C_3   0.336301 0.687797 0.318478 -0.432957
C48   C     C_3   0.217653 0.614846 0.338415 -0.303216
C49   C     C_3   0.118681 0.714246 0.358995 -0.871840
H27   H     H_    0.155141 0.775224 0.394875 0.257051
H28   H     H_    0.091150 0.782114 0.323656 0.262239
H29   H     H_    0.034601 0.658763 0.373869 0.261187
H30   H     H_    0.178846 0.555361 0.302527 0.242915
H31   H     H_    0.239850 0.544900 0.373819 0.207909
H32   H     H_    0.375702 0.746179 0.354013 0.223301
H33   H     H_    0.310065 0.763091 0.285614 0.197519
C50   C     C_3   0.663697 0.687785 0.681526 -0.432968
C51   C     C_3   0.782353 0.614794 0.661624 -0.303232
C52   C     C_3   0.881343 0.714155 0.641031 -0.871814
H34   H     H_    0.844919 0.775055 0.605120 0.257052
H35   H     H_    0.908825 0.782103 0.676351 0.262235
H36   H     H_    0.965446 0.658650 0.626196 0.261179
H37   H     H_    0.821135 0.555366 0.697534 0.242942
H38   H     H_    0.760184 0.544790 0.626236 0.207903
H39   H     H_    0.624337 0.746147 0.645976 0.223312
H40   H     H_    0.689909 0.763104 0.714384 0.197499
N5    N     N_2   0.487064 0.136411 0.602990 -0.259705
H41   H     H_    0.418046 0.108875 0.631530 0.202564
C53   C     C_3   0.610427 0.136598 0.627955 -0.761276
H42   H     H_    0.640198 0.032776 0.638544 0.202667
H43   H     H_    0.609617 0.197085 0.667661 0.239069
H44   H     H_    0.679319 0.182087 0.597936 0.255382
N6    N     N_2   0.578793 0.859010 0.403363 -0.258398
H45   H     H_    0.539518 0.886879 0.365197 0.206305
C54   C     C_3   0.713497 0.855142 0.399686 -0.759381
H46   H     H_    0.751213 0.956329 0.389614 0.203668
H47   H     H_    0.742509 0.784361 0.365462 0.241939
H48   H     H_    0.753477 0.820611 0.440512 0.251218
N7    N     N_2   0.512936 0.136405 0.397010 -0.259706
H49   H     H_    0.581955 0.108869 0.368470 0.202558
C55   C     C_3   0.389573 0.136583 0.372047 -0.761272
H50   H     H_    0.359806 0.032758 0.361459 0.202670
H51   H     H_    0.390377 0.197066 0.332341 0.239074
H52   H     H_    0.320679 0.182071 0.402066 0.255377
N8    N     N_2   0.421223 0.859014 0.596640 -0.258397
H53   H     H_    0.460511 0.886881 0.634803 0.206314
C56   C     C_3   0.286519 0.855147 0.600325 -0.759376
H54   H     H_    0.248803 0.956338 0.610391 0.203665
H55   H     H_    0.257517 0.784384 0.634556 0.241932
H56   H     H_    0.246530 0.820595 0.559504 0.251223

loop_
_geom_bond_atom_site_label_1
_geom_bond_atom_site_label_2
_ccdc_geom_bond_type
C22   N6    S    
C38   C40   A    
C49   H27   S    
C8    C26   S    
C43   H13   S    
C11   H7    S    
N5    H41   S    
C12   H8    S    
C56   H56   S    
C17   H11   S    
C41   H18   S    
C44   C45   S    
C18   H12   S    
N7    H49   S    
C24   N3    A    
C30   N2    A    
C50   C51   S    
C16   H10   S    
C38   H2    S    
N6    C54   S    
N7    C55   S    
C50   H39   S    
C45   H23   S    
O6    Zn2   S    
C15   C17   A    
C28   O10   S    
C42   H17   S    
C17   C19   A    
C53   H42   S    
C24   N8    S    
C52   H35   S    
C4    C44   S    
O7    Zn1   S    
C55   H52   S    
C31   C33   A    
C51   H38   S    
O8    Zn2   S    
C47   H33   S    
C18   C20   A    
C3    C13   A    
C53   H44   S    
C44   H25   S    
C49   H28   S    
C29   O11   S    
C37   H1    S    
C43   H14   S    
C9    C47   S    
C41   H19   S    
C21   N5    S    
C48   H30   S    
C54   H47   S    
C39   H3    S    
C15   C20   A    
C48   H31   S    
C23   N4    A    
C4    C6    A    
C1    O4    A    
C47   C48   S    
C5    C7    A    
C28   N2    A    
C2    O3    A    
O2    Zn2   S    
C6    C8    A    
C27   C35   A    
C50   H40   S    
C5    H5    S    
C36   C39   A    
C31   C37   A    
C53   H43   S    
C25   O8    A    
C32   C34   A    
C3    C41   S    
C26   O7    A    
C42   H16   S    
C27   O9    S    
C1    O1    A    
C46   H20   S    
O4    Zn2   S    
C29   C31   A    
C46   H22   S    
C27   N1    A    
C33   C34   A    
C51   H37   S    
N5    C53   S    
C25   O5    A    
C9    C11   A    
N3    Zn1   S    
C10   C12   A    
O3    Zn1   S    
C44   H26   S    
C8    C10   A    
C46   H21   S    
C12   C14   A    
C49   H29   S    
C32   C38   A    
C55   H50   S    
C43   H15   S    
C56   H54   S    
C3    C5    A    
N8    H53   S    
C54   H48   S    
O5    Zn1   S    
C7    C9    A    
C1    C20   S    
C6    H6    S    
C2    C19   S    
C10   C50   S    
C42   C43   S    
C56   H55   S    
C21   N4    A    
C23   N7    S    
C54   H46   S    
C2    O2    A    
C22   N3    A    
C13   N2    S    
N4    Zn2   S    
C7    C25   S    
O1    Zn1   S    
C35   C40   A    
C26   O6    A    
C41   C42   S    
C37   C39   A    
N6    H45   S    
C30   C32   A    
C11   C13   A    
C29   N1    A    
C16   C19   A    
C45   H24   S    
C48   C49   S    
C33   C35   A    
C52   H36   S    
C34   C36   A    
C15   H9    S    
C4    C14   A    
C51   C52   S    
C40   H4    S    
C14   N1    S    
C28   C36   A    
C16   C18   A    
C45   C46   S    
C21   C24   A    
C52   H34   S    
C55   H51   S    
C22   C23   A    
C47   H32   S    
C30   O12   S    
N8    C56   S    
