data_mof_unit_67972.cif
_audit_creation_date              2013-03-05T16:49:25-0500
_audit_creation_method            fapswitch 2.2
_symmetry_space_group_name_H-M    P1
_symmetry_Int_Tables_number       1
_space_group_crystal_system       triclinic
_cell_length_a                    11.387073
_cell_length_b                    9.485993
_cell_length_c                    8.5777
_cell_angle_alpha                 90.922974
_cell_angle_beta                  92.683997
_cell_angle_gamma                 94.056914
_cell_volume                      923.032446536

loop_
_atom_site_label
_atom_site_type_symbol
_atom_site_description
_atom_site_fract_x
_atom_site_fract_y
_atom_site_fract_z
_atom_type_partial_charge
O1    O     O_R   0.499990 0.285340 0.636850 -0.645824
O2    O     O_R   0.500010 0.714660 0.363150 -0.650303
O3    O     O_R   0.500010 0.285350 0.363100 -0.623939
O4    O     O_R   0.499990 0.714650 0.636900 -0.610704
C1    C     C_R   0.497532 0.218685 0.498614 0.869674
C2    C     C_R   0.496435 0.780805 0.500347 0.859140
O5    O     O_R   0.316750 0.500000 0.636870 -0.664062
O6    O     O_R   0.683250 0.500000 0.363130 -0.667001
O7    O     O_R   0.316770 0.500020 0.363120 -0.603098
O8    O     O_R   0.683230 0.499980 0.636880 -0.605769
C3    C     C_R   0.260478 0.502304 0.497896 0.812491
C4    C     C_R   0.739764 0.500406 0.502497 0.820060
Zn1   Zn    Zn3+2 0.499990 0.499990 0.682780 0.943399
Zn2   Zn    Zn3+2 0.500010 0.500010 0.317220 0.925939
H1    H     H_    0.299889 0.487638 0.890704 0.230434
H2    H     H_    0.698461 0.486891 0.117392 0.222547
C5    C     C_R   0.263459 0.639965 0.061066 0.230897
C6    C     C_R   0.747610 0.356728 0.941276 0.239579
C7    C     C_R   0.191806 0.667993 0.185886 0.049537
C8    C     C_R   0.822399 0.343818 0.818943 0.088360
C9    C     C_R   0.103244 0.560757 0.220810 -0.010567
C10   C     C_R   0.893482 0.464335 0.779877 -0.019469
C11   C     C_R   0.084061 0.432447 0.133329 0.088856
C12   C     C_R   0.882945 0.598323 0.849456 0.122095
C13   C     C_R   0.164547 0.403705 0.022997 0.091161
C14   C     C_R   0.813577 0.609492 0.978759 0.109809
C15   C     C_R   0.244522 0.511378 0.980241 -0.242199
C16   C     C_R   0.750085 0.485726 0.022751 -0.301329
C17   C     C_R   0.933329 0.557996 0.379684 -0.322228
C18   C     C_R   0.068693 0.475492 0.631118 -0.297611
H3    H     H_    0.882086 0.584462 0.279649 0.202870
H4    H     H_    0.118077 0.456430 0.735127 0.180894
C19   C     C_R   0.873736 0.504796 0.504678 -0.089778
C20   C     C_R   0.127976 0.513426 0.498831 -0.099950
C21   C     C_R   0.945326 0.467320 0.632526 0.044306
C22   C     C_R   0.056447 0.555819 0.372202 0.089006
C23   C     C_1   0.493338 0.063969 0.496547 -0.207967
C24   C     C_1   0.492184 0.934898 0.498474 -0.205278
N1    N     N_1   0.500020 0.500030 0.073640 -0.112470
N2    N     N_1   0.499980 0.499970 0.926360 -0.079720
N3    N     N_2   0.367807 0.725341 0.031670 -0.300379
H5    H     H_    0.414009 0.776494 0.123693 0.252079
C25   C     C_3   0.364545 0.807571 0.893492 -0.820903
H6    H     H_    0.308150 0.892981 0.913111 0.244584
H7    H     H_    0.329185 0.742698 0.791247 0.282305
H8    H     H_    0.454381 0.854453 0.872978 0.265552
N4    N     N_2   0.657992 0.248058 0.966253 -0.291683
H9    H     H_    0.575880 0.268348 0.922162 0.261814
C26   C     C_3   0.657605 0.181703 0.116225 -0.817963
H10   H     H_    0.722625 0.101404 0.120208 0.249176
H11   H     H_    0.570036 0.125821 0.132168 0.252481
H12   H     H_    0.678182 0.259899 0.212216 0.275725
C27   C     C_3   0.225396 0.795657 0.293657 -0.386827
C28   C     C_3   0.126198 0.877899 0.354971 -0.399973
C29   C     C_3   0.179203 0.983370 0.480046 -0.920391
H13   H     H_    0.225279 0.924332 0.572199 0.268463
H14   H     H_    0.242968 0.061792 0.429323 0.266541
H15   H     H_    0.110791 0.040466 0.536266 0.251776
H16   H     H_    0.083671 0.931516 0.256383 0.239340
H17   H     H_    0.057738 0.811471 0.410667 0.240699
H18   H     H_    0.277275 0.758701 0.394419 0.215552
H19   H     H_    0.281910 0.876157 0.234781 0.197621
C30   C     C_3   0.804354 0.217741 0.706562 -0.383731
C31   C     C_3   0.811690 0.075538 0.784683 -0.382732
C32   C     C_3   0.699323 0.980586 0.751054 -0.836955
H20   H     H_    0.619975 0.037402 0.773127 0.284300
H21   H     H_    0.698869 0.944949 0.628258 0.253751
H22   H     H_    0.693906 0.885353 0.822686 0.244414
H23   H     H_    0.886019 0.026384 0.733191 0.215672
H24   H     H_    0.831241 0.086855 0.911655 0.234685
H25   H     H_    0.718854 0.224334 0.641284 0.225959
H26   H     H_    0.870499 0.221965 0.616189 0.174884
C33   C     C_3   0.985087 0.320688 0.165993 -0.407454
C34   C     C_3   0.019132 0.220865 0.295581 -0.331688
C35   C     C_3   0.917143 0.114560 0.321996 -0.981919
H27   H     H_    0.837425 0.169779 0.346824 0.272285
H28   H     H_    0.901137 0.044529 0.217402 0.277316
H29   H     H_    0.936319 0.050715 0.425270 0.265758
H30   H     H_    0.098278 0.167660 0.265337 0.233322
H31   H     H_    0.040308 0.276586 0.407170 0.247450
H32   H     H_    0.903192 0.366683 0.193501 0.223877
H33   H     H_    0.955871 0.259324 0.058995 0.188667
C36   C     C_3   0.939798 0.731374 0.778361 -0.425876
C37   C     C_3   0.053681 0.776968 0.868154 -0.321278
C38   C     C_3   0.066024 0.932044 0.908451 -0.997689
H34   H     H_    0.076353 0.994441 0.801669 0.276570
H35   H     H_    0.990720 0.965003 0.972563 0.253190
H36   H     H_    0.143073 0.951615 0.990050 0.267275
H37   H     H_    0.054774 0.722077 0.978458 0.239848
H38   H     H_    0.129004 0.747107 0.800780 0.235466
H39   H     H_    0.960069 0.724054 0.654223 0.204773
H40   H     H_    0.875318 0.809950 0.771511 0.211591
C39   C     C_3   0.171559 0.257028 0.954897 -0.446009
C40   C     C_3   0.294844 0.202292 0.974024 -0.344972
C41   C     C_3   0.330124 0.151886 0.816558 -0.875278
H41   H     H_    0.268046 0.065855 0.771678 0.254695
H42   H     H_    0.320682 0.238116 0.733025 0.306977
H43   H     H_    0.419974 0.114220 0.825066 0.267162
H44   H     H_    0.361764 0.283169 0.021900 0.249254
H45   H     H_    0.295776 0.114185 0.057796 0.203463
H46   H     H_    0.114806 0.179514 0.012477 0.208256
H47   H     H_    0.136231 0.253024 0.832224 0.201402
C42   C     C_3   0.817097 0.749929 0.072254 -0.469488
C43   C     C_3   0.712295 0.778864 0.172061 -0.266904
C44   C     C_3   0.751225 0.833333 0.337211 -0.864013
H48   H     H_    0.847448 0.836465 0.361433 0.243996
H49   H     H_    0.719957 0.939965 0.356282 0.252629
H50   H     H_    0.714240 0.763768 0.426577 0.260700
H51   H     H_    0.659120 0.858613 0.113892 0.196235
H52   H     H_    0.649692 0.687316 0.178709 0.272166
H53   H     H_    0.902846 0.764085 0.138667 0.201413
H54   H     H_    0.823156 0.840618 0.996390 0.199207

loop_
_geom_bond_atom_site_label_1
_geom_bond_atom_site_label_2
_geom_bond_distance
_ccdc_geom_bond_type
H2    C16   1.024707 S    
C18   H4    1.057103 S    
C29   H13   1.109386 S    
C13   C39   1.509122 S    
C39   C40   1.533508 S    
C1    C23   1.464828 S    
N3    H5    1.023693 S    
C41   H41   1.093920 S    
C25   H6    1.084651 S    
C6    N4    1.424311 S    
C41   H43   1.106950 S    
N4    C26   1.441288 S    
C9    C22   1.426797 S    
C28   H17   1.099132 S    
C38   H34   1.104914 S    
O5    C3    1.327932 A    
C36   H40   1.083021 S    
C44   H49   1.108049 S    
C17   C22   1.408015 A    
C18   C21   1.402077 A    
O1    C1    1.332963 A    
C7    C9    1.426344 A    
C12   C36   1.526466 S    
C12   C14   1.398368 A    
C43   H51   1.112011 S    
C17   C19   1.379063 A    
C42   H53   1.105829 S    
C33   C34   1.525786 S    
O4    Zn1   2.080159 S    
Zn1   N2    2.089365 S    
C5    C7    1.409284 A    
Zn2   N1    2.089365 S    
C27   H18   1.100068 S    
N4    H9    1.024213 S    
C26   H11   1.111010 S    
C2    C24   1.466263 S    
C31   H24   1.103367 S    
C20   C22   1.408015 A    
C26   H12   1.104868 S    
C34   H31   1.094427 S    
N3    C25   1.429836 S    
O2    C2    1.328387 A    
C37   H38   1.106989 S    
C11   C33   1.530579 S    
C33   H32   1.091122 S    
C43   C44   1.534752 S    
C35   H29   1.103213 S    
C28   H16   1.103936 S    
C38   H35   1.100919 S    
C44   H50   1.098929 S    
C34   C35   1.511046 S    
C18   C20   1.386828 A    
C5    C15   1.391594 A    
C6    C16   1.397254 A    
C37   C38   1.501008 S    
O4    C2    1.338002 A    
C39   H46   1.084707 S    
N1    N2    1.263292 T    
O7    Zn2   2.141434 S    
C32   H21   1.100700 S    
C27   C28   1.525870 S    
C42   H54   1.087260 S    
C35   H27   1.107038 S    
C23   C24   1.223893 T    
C10   C21   1.419680 S    
C14   C42   1.540934 S    
O7    C3    1.348481 A    
C27   H19   1.107074 S    
H1    C15   1.047825 S    
C36   C37   1.509414 S    
C40   H45   1.111255 S    
O6    C4    1.330672 A    
C32   H22   1.100447 S    
C31   H23   1.101408 S    
C35   H28   1.108065 S    
O3    Zn2   2.080158 S    
O8    C4    1.346268 A    
C8    C10   1.407562 A    
C32   H20   1.106505 S    
C34   H30   1.102863 S    
C9    C11   1.417689 A    
C10   C12   1.410637 A    
O1    Zn1   2.067692 S    
C37   H37   1.087284 S    
C33   H33   1.103935 S    
C38   H36   1.099721 S    
C28   C29   1.528276 S    
O6    Zn2   2.105212 S    
C3    C20   1.520303 S    
C30   H25   1.106347 S    
O3    C1    1.332709 A    
O8    Zn1   2.141434 S    
C39   H47   1.107888 S    
C41   H42   1.103702 S    
C13   C15   1.385208 A    
C36   H39   1.102203 S    
C44   H48   1.103853 S    
C14   C16   1.401149 A    
C31   C32   1.525015 S    
C8    C30   1.520303 S    
C29   H14   1.110632 S    
C25   H7    1.106563 S    
C43   H52   1.087835 S    
C7    C27   1.527330 S    
C40   H44   1.102601 S    
C19   C21   1.401211 A    
C6    C8    1.391298 A    
C11   C13   1.385008 A    
C40   C41   1.507188 S    
O2    Zn2   2.067694 S    
C25   H8    1.109153 S    
C5    N3    1.424720 S    
C30   C31   1.521669 S    
O5    Zn1   2.105212 S    
C30   H26   1.105111 S    
C17   H3    1.058568 S    
C26   H10   1.099009 S    
C29   H15   1.104189 S    
C42   C43   1.538477 S    
C4    C19   1.522396 S    
