data_mof_unit_33389.cif
_audit_creation_date              2012-12-10T20:26:27-0500
_audit_creation_method            fapswitch 2.2
_symmetry_space_group_name_H-M    P1
_symmetry_Int_Tables_number       1
_space_group_crystal_system       triclinic
_cell_length_a                    10.39763
_cell_length_b                    10.790977
_cell_length_c                    9.905753
_cell_angle_alpha                 90.730781
_cell_angle_beta                  87.663154
_cell_angle_gamma                 91.054587
_cell_volume                      1110.23874486

loop_
_atom_site_label
_atom_site_type_symbol
_atom_type_description
_atom_site_fract_x
_atom_site_fract_y
_atom_site_fract_z
_atom_type_partial_charge
C1    C     C_R   0.506399 0.260750 0.498210 0.912117
C2    C     C_R   0.521425 0.129866 0.492985 -0.192612
C3    C     C_R   0.526570 0.060977 0.369859 0.384460
C4    C     C_R   0.520121 0.932403 0.374372 -0.214735
C5    C     C_R   0.516915 0.871028 0.498895 -0.156214
C6    C     C_R   0.529505 0.941527 0.615737 0.005266
C7    C     C_3   0.540736 0.938607 0.766155 0.480312
C8    C     C_3   0.538895 0.082778 0.761444 -0.091119
C9    C     C_R   0.445159 0.404045 0.073131 0.201016
C10   C     C_R   0.575302 0.581425 0.068701 0.407758
C11   C     C_R   0.576230 0.579716 0.925105 -0.163542
C12   C     C_R   0.266338 0.527275 0.502510 0.836246
C13   C     C_R   0.440068 0.406265 0.932520 0.094164
C14   C     C_3   0.303919 0.352273 0.941586 -0.146556
C15   C     C_3   0.314981 0.349141 0.095014 -0.437820
C16   C     C_R   0.504576 0.739607 0.500491 0.926092
C17   C     C_R   0.739748 0.499427 0.497233 0.929455
C18   C     C_2   0.933257 0.596037 0.409335 -0.068088
C19   C     C_2   0.877055 0.509807 0.489303 -0.314810
C20   C     C_2   0.073751 0.612945 0.401569 0.118243
C21   C     C_2   0.139668 0.583530 0.511122 0.128718
C22   C     C_R   0.531173 0.065872 0.612094 -0.029918
H1    H     H_    0.874741 0.651091 0.345693 0.208434
H2    H     H_    0.638604 0.641893 0.868295 0.248785
H3    H     H_    0.298079 0.257673 0.896464 0.164153
H4    H     H_    0.251074 0.412453 0.154293 0.204963
H5    H     H_    0.317423 0.253522 0.134795 0.222388
H6    H     H_    0.931014 0.450730 0.553544 0.164540
H7    H     H_    0.518099 0.881240 0.279890 0.226046
H8    H     H_    0.448266 0.121847 0.805293 0.121436
N1    N     N_R   0.499170 0.499140 0.142800 -0.145809
N2    N     N_R   0.499170 0.499180 0.857150 -0.147347
O1    O     O_R   0.500020 0.316790 0.614690 -0.629108
O2    O     O_R   0.500000 0.316760 0.385350 -0.552906
O3    O     O_R   0.319080 0.500020 0.614640 -0.597652
O4    O     O_R   0.319070 0.499980 0.385300 -0.652162
O5    O     O_R   0.500000 0.683240 0.614650 -0.619008
O6    O     O_R   0.499980 0.683210 0.385310 -0.604885
O7    O     O_R   0.680930 0.500020 0.614700 -0.591559
O8    O     O_R   0.680920 0.499980 0.385360 -0.569205
Zn1   Zn    Zn3+2 0.500010 0.500020 0.653130 0.962751
Zn2   Zn    Zn3+2 0.499990 0.499980 0.346870 1.001278
C23   C     C_3   0.659201 0.155093 0.810713 -0.255335
C24   C     C_3   0.775464 0.161836 0.710349 -0.753409
H9    H     H_    0.803770 0.068621 0.673079 0.299157
H10   H     H_    0.753644 0.219837 0.622764 0.231065
H11   H     H_    0.858521 0.205492 0.760907 0.230864
H12   H     H_    0.631063 0.251750 0.834705 0.205120
H13   H     H_    0.688885 0.115372 0.907271 0.265394
Cl1   Cl    Cl    0.677780 0.687659 0.147940 -0.611529
C25   C     C_3   0.194533 0.435007 0.898996 -0.280193
C26   C     C_3   0.062260 0.389483 0.953598 -0.829956
H14   H     H_    0.046486 0.290456 0.925804 0.253956
H15   H     H_    0.052390 0.400206 0.064951 0.253985
H16   H     H_    0.985945 0.444645 0.908818 0.290062
H17   H     H_    0.211545 0.533173 0.930034 0.235515
H18   H     H_    0.190299 0.427600 0.788791 0.268456
C27   C     C_3   0.136954 0.659404 0.269901 -0.459348
C28   C     C_3   0.085117 0.785273 0.231038 -0.773148
H19   H     H_    0.983439 0.777299 0.201888 0.291903
H20   H     H_    0.093220 0.852681 0.316127 0.264230
H21   H     H_    0.141552 0.821646 0.142406 0.246978
H22   H     H_    0.242306 0.673209 0.277262 0.234275
H23   H     H_    0.118974 0.591383 0.187649 0.219699
Cl2   Cl    Cl    0.077346 0.628015 0.673786 -0.636965
Cl3   Cl    Cl    0.548952 0.126307 0.208000 -0.683042
C29   C     C_3   0.422234 0.878944 0.840299 -0.452251
C30   C     C_3   0.418563 0.908285 0.991336 -0.783892
H24   H     H_    0.513176 0.890797 0.034472 0.327419
H25   H     H_    0.392204 0.006375 0.009840 0.270271
H26   H     H_    0.345603 0.847865 0.043583 0.237554
H27   H     H_    0.331796 0.911362 0.797169 0.203210
H28   H     H_    0.424308 0.776942 0.827464 0.257776
Cl4   Cl    Cl    0.690792 0.872650 0.808259 -0.591394

loop_
_geom_bond_atom_site_label_1
_geom_bond_atom_site_label_2
_ccdc_geom_bond_type
C2    C22   A    
C8    C22   S    
C23   C24   S    
C26   H16   S    
C6    C7    S    
C25   H18   S    
N1    Zn2   S    
C12   O4    A    
C23   H12   S    
C13   N2    A    
O4    Zn2   S    
C4    H7    S    
O2    Zn2   S    
C24   H11   S    
C16   O5    A    
N2    Zn1   S    
O1    Zn1   S    
C6    C22   A    
O8    Zn2   S    
C2    C3    A    
C9    C15   S    
C8    H8    S    
C7    C8    S    
O7    Zn1   S    
C13   C14   S    
C26   H14   S    
C12   O3    A    
C27   H23   S    
C19   H6    S    
C30   H26   S    
C29   H28   S    
C14   H3    S    
C8    C23   S    
C29   C30   S    
C17   C19   S    
C26   H15   S    
C11   N2    A    
O6    Zn2   S    
C7    Cl4   S    
C18   C20   S    
C15   H4    S    
C14   C25   S    
O5    Zn1   S    
C5    C6    A    
O3    Zn1   S    
C28   H20   S    
C3    Cl3   S    
C10   C11   A    
C9    N1    A    
C1    O2    A    
C1    O1    A    
C18   H1    S    
C10   Cl1   S    
C11   H2    S    
C28   H19   S    
C20   C27   S    
C25   C26   S    
C20   C21   D    
C3    C4    A    
C7    C29   S    
C30   H25   S    
C1    C2    S    
C17   O7    A    
C16   O6    A    
C27   H22   S    
C9    C13   A    
C14   C15   S    
C18   C19   D    
C5    C16   S    
C29   H27   S    
C21   Cl2   S    
C27   C28   S    
C30   H24   S    
C15   H5    S    
C12   C21   S    
C23   H13   S    
C24   H9    S    
C25   H17   S    
C24   H10   S    
C4    C5    A    
C28   H21   S    
C17   O8    A    
C10   N1    A    
