data_mof_unit_54330.cif
_audit_creation_date              2013-03-05T16:34:52-0500
_audit_creation_method            fapswitch 2.2
_symmetry_space_group_name_H-M    P1
_symmetry_Int_Tables_number       1
_space_group_crystal_system       monoclinic
_cell_length_a                    15.056018
_cell_length_b                    9.080584
_cell_length_c                    7.796009
_cell_angle_alpha                 90.094538
_cell_angle_beta                  90.0
_cell_angle_gamma                 90.0
_cell_volume                      1065.84891183

loop_
_atom_site_label
_atom_site_type_symbol
_atom_site_description
_atom_site_fract_x
_atom_site_fract_y
_atom_site_fract_z
_atom_type_partial_charge
O1    O     O_R   0.500000 0.288390 0.642760 -0.565099
O2    O     O_R   0.500000 0.711610 0.357240 -0.565099
O3    O     O_R   0.500000 0.711610 0.642760 -0.582298
O4    O     O_R   0.500000 0.288390 0.357240 -0.582298
H1    H     H_    0.920771 0.134972 0.593910 0.208543
H2    H     H_    0.079229 0.865027 0.406090 0.208543
H3    H     H_    0.920771 0.865027 0.406090 0.208543
H4    H     H_    0.079229 0.134972 0.593910 0.208543
C1    C     C_R   0.500000 0.220080 0.499912 0.902129
C2    C     C_R   0.500000 0.779920 0.500088 0.902129
O5    O     O_R   0.370260 0.500000 0.642800 -0.566855
O6    O     O_R   0.629740 0.500000 0.357200 -0.566855
O7    O     O_R   0.629740 0.500000 0.642800 -0.566855
O8    O     O_R   0.370260 0.500000 0.357200 -0.566855
C3    C     C_R   0.328724 0.500000 0.500000 0.947800
C4    C     C_R   0.671276 0.500000 0.500000 0.947800
Cu1   Cu    Cu3+1 0.500000 0.500000 0.669080 1.103657
Cu2   Cu    Cu3+1 0.500000 0.500000 0.330920 1.103657
N1    N     N_1   0.500000 0.500000 0.076820 -0.025423
N2    N     N_1   0.500000 0.500000 0.923180 -0.025423
C5    C     C_R   0.813014 0.631360 0.465074 0.265376
C6    C     C_R   0.186985 0.368640 0.534926 0.265376
C7    C     C_R   0.813014 0.368640 0.534926 0.265376
C8    C     C_R   0.186985 0.631360 0.465074 0.265376
C9    C     C_R   0.767479 0.500000 0.500000 -0.208085
C10   C     C_R   0.232521 0.500000 0.500000 -0.208085
C11   C     C_R   0.906277 0.367917 0.534497 0.046919
C12   C     C_R   0.093723 0.632083 0.465503 0.046919
C13   C     C_R   0.906277 0.632083 0.465503 0.046919
C14   C     C_R   0.093723 0.367917 0.534497 0.046919
C15   C     C_R   0.953067 0.500000 0.500000 -0.004333
C16   C     C_R   0.046933 0.500000 0.500000 -0.004333
C17   C     C_R   0.953925 0.238154 0.567550 -0.140270
C18   C     C_R   0.046075 0.761846 0.432450 -0.140270
C19   C     C_R   0.953925 0.761846 0.432450 -0.140270
C20   C     C_R   0.046075 0.238154 0.567550 -0.140270
C21   C     C_1   0.500000 0.065405 0.499879 -0.046356
C22   C     C_1   0.500000 0.934595 0.500121 -0.046356
Cl1   Cl    Cl    0.751650 0.794496 0.423809 -0.574709
Cl2   Cl    Cl    0.248350 0.205504 0.576191 -0.574709
Cl3   Cl    Cl    0.751650 0.205504 0.576191 -0.574709
Cl4   Cl    Cl    0.248350 0.794496 0.423809 -0.574709

loop_
_geom_bond_atom_site_label_1
_geom_bond_atom_site_label_2
_geom_bond_distance
_ccdc_geom_bond_type
C21   C22   1.187835 T    
O7    Cu1   1.964083 S    
O2    Cu2   1.932130 S    
C8    Cl4   1.775700 S    
C13   C19   1.403741 A    
O1    Cu1   1.932131 S    
N1    N2    1.197780 T    
C7    Cl3   1.775700 S    
C14   C20   1.403741 A    
C2    C22   1.404543 S    
O4    Cu2   1.932805 S    
Cu1   N2    1.980965 S    
O5    C3    1.276890 A    
C1    C21   1.404543 S    
Cu1   Cu2   2.636299 S    
C12   C18   1.403741 A    
C13   C15   1.417110 A    
O3    C2    1.274437 A    
C11   C17   1.403741 A    
C14   C16   1.417111 A    
H3    C19   1.081615 S    
C8    C10   1.402879 A    
O3    Cu1   1.932804 S    
C7    C11   1.404186 A    
C7    C9    1.402879 A    
H4    C20   1.081615 S    
C11   C15   1.417111 A    
O2    C2    1.273845 A    
O6    C4    1.276891 A    
C12   C16   1.417110 A    
C17   C20   1.387423 A    
O1    C1    1.273845 A    
C8    C12   1.404186 A    
C18   C19   1.387423 A    
C6    C10   1.402878 A    
O7    C4    1.276890 A    
O6    Cu2   1.964083 S    
C4    C9    1.448440 S    
C5    C9    1.402878 A    
C6    Cl2   1.775700 S    
Cu2   N1    1.980965 S    
C3    C10   1.448440 S    
C5    Cl1   1.775700 S    
C6    C14   1.404186 A    
O4    C1    1.274437 A    
O8    C3    1.276891 A    
C5    C13   1.404186 A    
O8    Cu2   1.964084 S    
C15   C16   1.413256 A    
O5    Cu1   1.964084 S    
H2    C18   1.081615 S    
H1    C17   1.081615 S    
