data_mof_unit_23404.cif
_audit_creation_date              2012-12-11T14:19:17-0500
_audit_creation_method            fapswitch 2.2
_symmetry_space_group_name_H-M    P1
_symmetry_Int_Tables_number       1
_space_group_crystal_system       triclinic
_cell_length_a                    19.6377
_cell_length_b                    7.239369
_cell_length_c                    17.530722
_cell_angle_alpha                 90.236529
_cell_angle_beta                  107.497476
_cell_angle_gamma                 90.3352
_cell_volume                      2376.84556392

loop_
_atom_site_label
_atom_site_type_symbol
_atom_type_description
_atom_site_fract_x
_atom_site_fract_y
_atom_site_fract_z
_atom_type_partial_charge
O1    O     O_R   0.414820 0.494320 0.416790 -0.539069
O2    O     O_R   0.585180 0.994320 0.583210 -0.531863
O3    O     O_R   0.560270 0.819500 0.430140 -0.542877
O4    O     O_R   0.439730 0.319500 0.569860 -0.543448
C1    C     C_R   0.582349 0.655668 0.416351 0.715093
C2    C     C_R   0.417246 0.155499 0.583182 0.716135
O5    O     O_R   0.413840 0.823740 0.407440 -0.541031
O6    O     O_R   0.586160 0.323740 0.592560 -0.540331
O7    O     O_R   0.437710 0.998590 0.560350 -0.532675
O8    O     O_R   0.562290 0.498590 0.439650 -0.533399
C3    C     C_R   0.388780 0.654285 0.384513 0.715990
C4    C     C_R   0.612257 0.156311 0.613909 0.715056
O9    O     O_3   0.508000 0.662290 0.550200 -0.375610
O10   O     O_3   0.492000 0.162290 0.449800 -0.379437
V1    V     V_3+5 0.498520 0.935380 0.490690 1.412547
V2    V     V_3+5 0.501480 0.435380 0.509310 1.410141
C5    C     C_2   0.769036 0.249652 0.806660 0.084851
C6    C     C_2   0.219825 0.772021 0.210396 0.065537
C7    C     C_2   0.816756 0.106150 0.819795 0.243798
C8    C     C_2   0.178178 0.616521 0.185975 0.236589
C9    C     C_2   0.697307 0.243154 0.744051 -0.089042
C10   C     C_2   0.281549 0.778197 0.285319 -0.124441
C11   C     C_2   0.682356 0.149072 0.674688 -0.276682
C12   C     C_2   0.326859 0.638129 0.312201 -0.296009
H1    H     H_    0.655178 0.327691 0.754062 0.121102
H2    H     H_    0.291808 0.908808 0.317705 0.139356
H3    H     H_    0.722090 0.069077 0.658992 0.157602
H4    H     H_    0.320485 0.508381 0.279736 0.187024
C13   C     C_R   0.302700 0.031705 0.603842 0.114544
C14   C     C_R   0.699808 0.547827 0.399284 0.113983
C15   C     C_R   0.364670 0.146450 0.628655 -0.079563
C16   C     C_R   0.634707 0.646701 0.370646 -0.075866
C17   C     C_R   0.377194 0.254785 0.698193 -0.264990
C18   C     C_R   0.618553 0.737479 0.296815 -0.264636
C19   C     C_R   0.330552 0.248828 0.744869 0.095025
C20   C     C_R   0.664910 0.729680 0.249764 0.097002
C21   C     C_R   0.270501 0.130195 0.722808 0.038225
C22   C     C_R   0.729025 0.629540 0.276635 0.038093
C23   C     C_R   0.257108 0.018327 0.653243 0.094957
C24   C     C_R   0.746323 0.536091 0.350842 0.096958
C25   C     C_R   0.343338 0.359540 0.813758 -0.173149
C26   C     C_R   0.647953 0.820552 0.175865 -0.174195
C27   C     C_R   0.296822 0.354170 0.860430 -0.161472
C28   C     C_R   0.694255 0.813744 0.128918 -0.163107
C29   C     C_R   0.236380 0.238711 0.838904 0.102115
C30   C     C_R   0.758867 0.717775 0.155356 0.104159
C31   C     C_R   0.223037 0.126058 0.769894 0.007691
C32   C     C_R   0.776521 0.625542 0.229536 0.009518
C33   C     C_R   0.161676 0.011879 0.747172 -0.007976
C34   C     C_R   0.842255 0.532731 0.257410 -0.005460
C35   C     C_R   0.151249 0.893476 0.680983 -0.189583
C36   C     C_R   0.857347 0.433368 0.329056 -0.191981
C37   C     C_R   0.197848 0.896944 0.634678 -0.192554
C38   C     C_R   0.810314 0.434558 0.374860 -0.193715
C39   C     C_R   0.189513 0.232957 0.885661 -0.298108
C40   C     C_R   0.805804 0.711471 0.108615 -0.300622
C41   C     C_R   0.127917 0.121209 0.863019 -0.151120
C42   C     C_R   0.871757 0.621425 0.136484 -0.147745
C43   C     C_R   0.111543 0.019774 0.790717 0.418220
C44   C     C_R   0.892186 0.543501 0.213623 0.411992
H5    H     H_    0.424057 0.343592 0.716352 0.130278
H6    H     H_    0.568978 0.813177 0.275529 0.127266
H7    H     H_    0.389423 0.450791 0.831557 0.123532
H8    H     H_    0.598703 0.897173 0.154282 0.123592
H9    H     H_    0.307984 0.441160 0.913269 0.122359
H10   H     H_    0.679744 0.884968 0.072111 0.123827
H11   H     H_    0.201028 0.315003 0.940018 0.141884
H12   H     H_    0.791167 0.776852 0.050432 0.141769
H13   H     H_    0.106415 0.798154 0.664210 0.151002
H14   H     H_    0.906106 0.354739 0.350376 0.151858
H15   H     H_    0.186651 0.803004 0.584229 0.135647
H16   H     H_    0.825210 0.355432 0.429488 0.135032
O11   O     O_R   0.937810 0.773680 0.060480 -0.539239
O12   O     O_R   0.062190 0.273680 0.939520 -0.539420
O13   O     O_R   0.086190 0.439740 0.092580 -0.520091
O14   O     O_R   0.913810 0.939740 0.907420 -0.527414
C45   C     C_R   0.112867 0.609249 0.114557 0.641428
C46   C     C_R   0.886328 0.107063 0.886358 0.625226
O15   O     O_R   0.939760 0.444210 0.069890 -0.528756
O16   O     O_R   0.060240 0.944210 0.930110 -0.523898
O17   O     O_R   0.914790 0.269640 0.916760 -0.548496
O18   O     O_R   0.085210 0.769640 0.083240 -0.552750
C47   C     C_R   0.919738 0.612662 0.085479 0.756180
C48   C     C_R   0.080238 0.112735 0.914443 0.753296
O19   O     O_3   0.992050 0.601530 0.949880 -0.375653
O20   O     O_3   0.007950 0.101530 0.050120 -0.376669
V3    V     V_3+5 0.001480 0.328340 0.009300 1.443201
V4    V     V_3+5 0.998520 0.828340 0.990700 1.441354
C49   C     C_3   0.782800 0.421415 0.858986 -0.776154
H17   H     H_    0.736477 0.516292 0.842881 0.215123
H18   H     H_    0.792683 0.383217 0.922681 0.201881
H19   H     H_    0.828815 0.500813 0.851473 0.234932
C50   C     C_3   0.204610 0.953404 0.166012 -0.750836
H20   H     H_    0.247196 0.057473 0.191943 0.221012
H21   H     H_    0.202754 0.933286 0.102576 0.201925
H22   H     H_    0.153749 0.012447 0.170011 0.233430
O21   O     O_3   0.045272 0.934326 0.762176 -0.564014
C51   C     C_3   0.001441 0.035519 0.696535 0.035065
H23   H     H_    0.954784 0.947318 0.666012 0.136413
H24   H     H_    0.028116 0.067428 0.650406 0.125934
C52   C     C_3   0.974363 0.215074 0.723109 -0.774687
H25   H     H_    0.018422 0.317935 0.742634 0.223902
H26   H     H_    0.931762 0.274221 0.672419 0.184341
H27   H     H_    0.952378 0.188400 0.773209 0.206165
O22   O     O_3   0.961929 0.484953 0.246614 -0.569238
C53   C     C_3   0.999505 0.612656 0.306614 0.020503
H28   H     H_    0.046926 0.541713 0.345969 0.133178
H29   H     H_    0.968480 0.659120 0.346786 0.129297
C54   C     C_3   0.024719 0.782051 0.270598 -0.754435
H30   H     H_    0.978574 0.869609 0.239543 0.226099
H31   H     H_    0.062035 0.865455 0.318773 0.185193
H32   H     H_    0.052663 0.739045 0.227380 0.205747
O23   O     O_3   0.794340 0.938722 0.780504 -0.549602
C55   C     C_3   0.838643 0.891253 0.732989 0.074123
H33   H     H_    0.892827 0.851151 0.770298 0.170638
H34   H     H_    0.843223 0.007870 0.693576 0.101290
C56   C     C_3   0.806515 0.726576 0.679660 -0.720734
H35   H     H_    0.752585 0.760112 0.639536 0.218983
H36   H     H_    0.841340 0.689586 0.642485 0.169682
H37   H     H_    0.802176 0.605612 0.716500 0.234283
O24   O     O_3   0.197678 0.452595 0.227325 -0.560948
C57   C     C_3   0.159989 0.434027 0.283848 0.092588
H38   H     H_    0.103061 0.400016 0.252877 0.167681
H39   H     H_    0.163810 0.562193 0.320483 0.119044
C58   C     C_3   0.191837 0.277272 0.340759 -0.737800
H40   H     H_    0.249351 0.304739 0.371193 0.225379
H41   H     H_    0.163556 0.265296 0.386691 0.176970
H42   H     H_    0.186041 0.144589 0.307505 0.222628
C59   C     C_3   0.282065 0.934143 0.523127 -0.785745
H43   H     H_    0.312271 0.983512 0.483008 0.208681
H44   H     H_    0.289915 0.783013 0.531676 0.208841
H45   H     H_    0.225280 0.962027 0.490287 0.193252
C60   C     C_3   0.722024 0.463893 0.482336 -0.792939
H46   H     H_    0.688147 0.505678 0.519638 0.214357
H47   H     H_    0.721004 0.310858 0.477557 0.205816
H48   H     H_    0.776738 0.511287 0.515821 0.194865

loop_
_geom_bond_atom_site_label_1
_geom_bond_atom_site_label_2
_ccdc_geom_bond_type
C14   C16   A    
C42   C47   S    
C52   H25   S    
C20   C26   A    
O1    C3    A    
O16   C48   A    
O2    C4    A    
C2    O7    A    
O15   V3    S    
O21   C51   S    
C31   C33   A    
C23   C37   A    
O5    C3    A    
C4    C11   S    
C50   H20   S    
C8    C45   S    
C19   C21   A    
O14   C46   A    
O23   C55   S    
C54   H31   S    
C41   C43   A    
C53   H28   S    
C7    O23   S    
C42   C44   A    
C3    C12   S    
C18   H6    S    
C50   H21   S    
C17   C19   A    
C28   H10   S    
C13   C59   S    
C36   C38   A    
C33   C35   A    
C60   H48   S    
C34   C36   A    
C15   C17   A    
C11   H3    S    
O12   V3    S    
C21   C31   A    
O14   V4    S    
C22   C32   A    
C27   H9    S    
C1    C16   S    
C32   C34   A    
C2    C15   S    
O6    V2    S    
C22   C24   A    
C13   C15   A    
C25   C27   A    
C26   C28   A    
C28   C30   A    
C55   H33   S    
C29   C31   A    
C30   C32   A    
C5    C49   S    
O4    C2    A    
C54   H32   S    
O20   V3    S    
C40   H12   S    
C5    C9    S    
C35   C37   A    
C16   C18   A    
O4    V2    S    
C7    C46   S    
O11   V4    S    
C39   C41   A    
C58   H42   S    
O13   C45   A    
C55   H34   S    
O6    C4    A    
C14   C60   S    
C13   C23   A    
O24   C57   S    
C41   C48   S    
C14   C24   A    
O1    V2    S    
C49   H19   S    
O2    V1    S    
C27   C29   A    
C8    O24   S    
O17   V3    S    
C17   H5    S    
C50   H22   S    
C51   H24   S    
C9    C11   D    
C60   H46   S    
C43   O21   S    
C10   C12   D    
C56   H37   S    
C49   H18   S    
C25   H7    S    
C57   H39   S    
C20   C22   A    
C37   H15   S    
C26   H8    S    
O3    V1    S    
C58   H41   S    
C59   H43   S    
C52   H26   S    
O19   V4    S    
O13   V3    S    
C9    H1    S    
C6    C10   S    
C12   H4    S    
O12   C48   A    
O3    C1    A    
C39   H11   S    
C57   H38   S    
C52   H27   S    
C51   C52   S    
O22   C53   S    
C24   C38   A    
C33   C43   A    
C34   C44   A    
C59   H45   S    
C57   C58   S    
C56   H36   S    
O7    V1    S    
C1    O8    A    
O16   V4    S    
O8    V2    S    
C56   H35   S    
O15   C47   A    
C46   O17   A    
C58   H40   S    
C53   H29   S    
C45   O18   A    
O18   V4    S    
O5    V1    S    
C5    C7    D    
C18   C20   A    
C40   C42   A    
C6    C8    D    
C19   C25   A    
C55   C56   S    
C36   H14   S    
C38   H16   S    
C29   C39   A    
C21   C23   A    
C51   H23   S    
C10   H2    S    
O9    V2    S    
C30   C40   A    
C60   H47   S    
C6    C50   S    
O10   V1    S    
C35   H13   S    
C49   H17   S    
C54   H30   S    
O11   C47   A    
C44   O22   S    
C59   H44   S    
C53   C54   S    
