data_mof_unit_42135.cif
_audit_creation_date              2012-12-11T17:07:47-0500
_audit_creation_method            fapswitch 2.2
_symmetry_space_group_name_H-M    P1
_symmetry_Int_Tables_number       1
_space_group_crystal_system       triclinic
_cell_length_a                    17.356261
_cell_length_b                    17.33064
_cell_length_c                    17.46326
_cell_angle_alpha                 89.698882
_cell_angle_beta                  90.07089
_cell_angle_gamma                 90.003058
_cell_volume                      5252.78666358

loop_
_atom_site_label
_atom_site_type_symbol
_atom_type_description
_atom_site_fract_x
_atom_site_fract_y
_atom_site_fract_z
_atom_type_partial_charge
Br1   Br    Br    0.906250 0.083467 0.846365 -0.286111
Br2   Br    Br    0.155122 0.488543 0.222805 -0.315273
Br3   Br    Br    0.577428 0.244717 0.269453 -0.465379
Br4   Br    Br    0.849723 0.606474 0.109090 -0.357753
Br5   Br    Br    0.415710 0.143175 0.875147 -0.339753
Br6   Br    Br    0.256614 0.577154 0.728595 -0.435518
Br7   Br    Br    0.504196 0.839078 0.763232 -0.312580
Br8   Br    Br    0.903502 0.321184 0.961551 -0.331048
Br9   Br    Br    0.005839 0.238110 0.824826 -0.279135
Br10  Br    Br    0.608017 0.941929 0.650643 -0.317690
Br11  Br    Br    0.148902 0.676486 0.615848 -0.389175
Br12  Br    Br    0.751582 0.927526 0.768456 -0.294165
Br13  Br    Br    0.341545 0.039097 0.742871 -0.333292
Br14  Br    Br    0.958730 0.677869 0.240844 -0.352539
Br15  Br    Br    0.670131 0.127814 0.377383 -0.396699
Br16  Br    Br    0.051665 0.384184 0.332859 -0.361264
Br17  Br    Br    0.323141 0.842974 0.388333 -0.378710
Br18  Br    Br    0.447941 0.886503 0.163142 -0.278999
Br19  Br    Br    0.180605 0.343049 0.111199 -0.323285
Br20  Br    Br    0.559761 0.106314 0.146010 -0.252758
Br21  Br    Br    0.755424 0.764399 0.092034 -0.294212
Br22  Br    Br    0.255445 0.227459 0.908976 -0.294374
Br23  Br    Br    0.006400 0.659190 0.733274 -0.346982
Br24  Br    Br    0.111310 0.554724 0.843281 -0.307822
Br25  Br    Br    0.646672 0.825709 0.881659 -0.314109
Br26  Br    Br    0.798551 0.168727 0.976909 -0.349408
Br27  Br    Br    0.174722 0.098355 0.797751 -0.377978
Br28  Br    Br    0.885722 0.845022 0.203062 -0.402968
Br29  Br    Br    0.670857 0.997097 0.245938 -0.297078
Br30  Br    Br    0.081944 0.235245 0.224744 -0.397983
Br31  Br    Br    0.345926 0.989246 0.275608 -0.313194
Br32  Br    Br    0.424270 0.738108 0.274554 -0.431088
C1    C     C_R   0.426101 0.334844 0.854725 -0.220299
C2    C     C_R   0.165486 0.926739 0.354772 -0.177026
C3    C     C_R   0.696348 0.744999 0.360811 -0.190920
C4    C     C_R   0.243344 0.305138 0.647228 -0.092463
C5    C     C_R   0.217310 0.857766 0.802954 -0.041861
C6    C     C_R   0.762693 0.686671 0.647519 -0.093091
C7    C     C_R   0.731463 0.213365 0.711861 -0.070747
C8    C     C_R   0.689490 0.249886 0.767439 -0.114783
C9    C     C_R   0.717255 0.641904 0.696786 -0.106145
C10   C     C_R   0.262351 0.813130 0.852728 -0.081435
C11   C     C_R   0.288755 0.351154 0.694612 -0.073788
C12   C     C_R   0.650129 0.701012 0.311796 -0.031698
C13   C     C_R   0.105752 0.197668 0.400630 -0.163559
C14   C     C_R   0.813411 0.266492 0.150927 -0.056237
C15   C     C_R   0.357160 0.282833 0.303915 -0.071357
C16   C     C_R   0.188611 0.738945 0.147554 -0.077407
C17   C     C_R   0.836577 0.072333 0.353643 -0.107716
C18   C     C_R   0.915093 0.177214 0.637125 -0.215452
C19   C     C_R   0.195730 0.102999 0.606662 -0.184814
C20   C     C_R   0.072496 0.835994 0.646213 -0.170088
C21   C     C_R   0.802674 0.893926 0.599387 -0.127462
C22   C     C_3   0.903557 0.196184 0.844502 0.457851
C23   C     C_3   0.665735 0.873217 0.719173 0.450941
C24   C     C_3   0.117597 0.676254 0.723897 0.418128
C25   C     C_R   0.696866 0.392772 0.899224 -0.218578
C26   C     C_3   0.280491 0.128324 0.772916 0.424696
C27   C     C_3   0.864725 0.735378 0.220073 0.418789
C28   C     C_3   0.679108 0.107636 0.267066 0.423033
C29   C     C_3   0.127052 0.327174 0.271997 0.451979
C30   C     C_3   0.326280 0.878035 0.281351 0.417293
C31   C     C_3   0.375341 0.828332 0.226913 0.457359
C32   C     C_3   0.176276 0.377599 0.218042 0.424459
C33   C     C_3   0.629507 0.160610 0.215654 0.432755
C34   C     C_3   0.809325 0.695878 0.163487 0.438224
C35   C     C_3   0.320858 0.182736 0.829506 0.433256
C36   C     C_R   0.572622 0.664467 0.853925 -0.181906
C37   C     C_3   0.168232 0.626911 0.777799 0.455300
C38   C     C_3   0.615608 0.823795 0.773511 0.416074
C39   C     C_3   0.855118 0.236313 0.906998 0.411531
C40   C     C_R   0.391080 0.697143 0.899023 0.484347
C41   C     C_R   0.327363 0.417168 0.858361 0.582799
C42   C     C_R   0.607027 0.302502 0.902222 0.440972
C43   C     C_R   0.671829 0.583502 0.857507 0.521414
C44   C     C_R   0.416071 0.327272 0.142094 0.554275
C45   C     C_R   0.303243 0.609143 0.101012 0.484272
C46   C     C_R   0.581789 0.671540 0.142291 0.583597
C47   C     C_R   0.302580 0.605824 0.900541 -0.165081
C48   C     C_R   0.696743 0.392014 0.102271 0.470034
C49   C     C_R   0.916559 0.172134 0.357638 0.533832
C50   C     C_R   0.803659 0.892300 0.397099 0.535131
C51   C     C_R   0.085681 0.826390 0.359249 0.548423
C52   C     C_R   0.196983 0.109055 0.399424 0.494623
C53   C     C_R   0.891215 0.802806 0.600948 0.494880
C54   C     C_R   0.820171 0.089375 0.633867 0.565610
C55   C     C_R   0.107015 0.195389 0.606121 0.543344
C56   C     C_R   0.173146 0.915126 0.641311 0.550983
C57   C     C_R   0.363619 0.361778 0.814419 -0.025219
C58   C     C_R   0.394828 0.697400 0.100109 -0.164629
C59   C     C_R   0.682434 0.316321 0.886753 0.040587
C60   C     C_R   0.634802 0.639036 0.812724 -0.010122
C61   C     C_R   0.314460 0.681584 0.882063 0.037675
C62   C     C_R   0.319357 0.685548 0.118722 0.035072
C63   C     C_R   0.636950 0.635125 0.186692 -0.037255
C64   C     C_R   0.681476 0.315334 0.119838 0.033999
C65   C     C_R   0.361109 0.364397 0.186859 -0.001667
C66   C     C_R   0.820242 0.816362 0.378101 -0.087955
C67   C     C_R   0.141107 0.863646 0.314548 0.013725
C68   C     C_R   0.181349 0.185771 0.382391 0.029279
C69   C     C_R   0.665109 0.573709 0.145725 -0.202628
C70   C     C_R   0.861890 0.134795 0.312516 -0.025867
C71   C     C_R   0.849564 0.151567 0.673040 0.012729
C72   C     C_R   0.181791 0.177666 0.626793 0.018452
C73   C     C_R   0.135444 0.860675 0.686698 0.017596
C74   C     C_R   0.814660 0.818270 0.618051 -0.000501
C75   C     C_R   0.805295 0.266199 0.843350 -0.084624
C76   C     C_R   0.643207 0.754814 0.728629 -0.082992
C77   C     C_R   0.187828 0.700951 0.818775 -0.078129
C78   C     C_R   0.331763 0.236606 0.762150 -0.095272
C79   C     C_R   0.761399 0.676340 0.232704 -0.100567
C80   C     C_R   0.605970 0.302851 0.100632 -0.138433
C81   C     C_R   0.703705 0.185947 0.178185 -0.039217
C82   C     C_R   0.244169 0.355107 0.267588 -0.085169
C83   C     C_R   0.301462 0.810761 0.184656 -0.082806
C84   C     C_R   0.257936 0.854609 0.233262 -0.074129
C85   C     C_R   0.200170 0.311140 0.316196 -0.079218
C86   C     C_R   0.747932 0.141163 0.225917 -0.063942
C87   C     C_R   0.806798 0.716998 0.281479 -0.024215
C88   C     C_R   0.289900 0.191352 0.713960 -0.063362
C89   C     C_R   0.143614 0.744819 0.770261 -0.068172
C90   C     C_R   0.687593 0.798631 0.680374 -0.104732
C91   C     C_R   0.336085 0.427267 0.145984 -0.186387
C92   C     C_R   0.846858 0.228813 0.788439 -0.100436
C93   C     C_R   0.725699 0.271149 0.835911 0.160373
C94   C     C_R   0.662846 0.677709 0.744339 0.127445
C95   C     C_R   0.253575 0.732331 0.854148 0.082898
C96   C     C_R   0.328797 0.316827 0.755577 0.121625
C97   C     C_R   0.682370 0.671039 0.244626 0.130369
C98   C     C_R   0.733217 0.254833 0.146952 0.103203
C99   C     C_R   0.321554 0.335886 0.254315 0.110037
C100  C     C_R   0.269408 0.746340 0.147586 0.083740
C101  C     C_R   0.180576 0.835671 0.247072 0.105362
C102  C     C_R   0.895918 0.803517 0.395581 -0.136488
C103  C     C_R   0.231800 0.246518 0.353829 0.088553
C104  C     C_R   0.823770 0.162889 0.243899 0.100441
C105  C     C_R   0.773626 0.759159 0.340923 0.104768
C106  C     C_R   0.239293 0.225368 0.661328 0.097880
C107  C     C_R   0.163500 0.821820 0.754848 0.105179
C108  C     C_R   0.753727 0.767449 0.645730 0.102902
C109  C     C_R   0.808889 0.196705 0.725970 0.116369
C110  C     C_R   0.144337 0.783895 0.197211 -0.048595
C111  C     C_R   0.312470 0.238333 0.353941 -0.095103
C112  C     C_R   0.858488 0.220257 0.198793 -0.037031
H1    H     H_    0.466457 0.291546 0.836308 0.183990
H2    H     H_    0.205361 0.969743 0.335921 0.190652
H3    H     H_    0.080246 0.252773 0.411677 0.173698
H4    H     H_    0.796909 0.029394 0.334656 0.209162
H5    H     H_    0.947790 0.228321 0.650362 0.197161
H6    H     H_    0.251683 0.076466 0.602665 0.185837
H7    H     H_    0.029254 0.796624 0.665499 0.191175
H8    H     H_    0.747599 0.918923 0.587618 0.184205
H9    H     H_    0.083132 0.773904 0.200931 0.208675
H10   H     H_    0.340920 0.193984 0.387055 0.215974
H11   H     H_    0.918473 0.234743 0.205900 0.222103
H12   H     H_    0.753001 0.419236 0.898989 0.197398
H13   H     H_    0.671029 0.770540 0.411294 0.156878
H14   H     H_    0.208735 0.332237 0.603117 0.191949
H15   H     H_    0.229345 0.918736 0.797301 0.209670
H16   H     H_    0.808145 0.658198 0.616518 0.208334
H17   H     H_    0.702975 0.196601 0.659323 0.176696
H18   H     H_    0.628981 0.261469 0.756954 0.139217
H19   H     H_    0.729610 0.580922 0.702476 0.178051
H20   H     H_    0.307438 0.841668 0.884323 0.221535
H21   H     H_    0.288626 0.413109 0.686944 0.194456
H22   H     H_    0.589460 0.693727 0.324067 0.181517
H23   H     H_    0.529632 0.704308 0.835026 0.187996
H24   H     H_    0.841366 0.314258 0.122877 0.236023
H25   H     H_    0.417974 0.270927 0.299514 0.214698
H26   H     H_    0.159709 0.695193 0.114481 0.220757
H27   H     H_    0.470194 0.762692 0.939654 0.336299
H28   H     H_    0.233664 0.452818 0.902237 0.343103
H29   H     H_    0.529427 0.238674 0.947273 0.333590
H30   H     H_    0.766184 0.544258 0.897680 0.338228
H31   H     H_    0.454271 0.233688 0.100181 0.341404
H32   H     H_    0.237160 0.530902 0.059722 0.336568
H33   H     H_    0.547622 0.766241 0.098327 0.343190
H34   H     H_    0.247668 0.580090 0.911750 0.181636
H35   H     H_    0.761745 0.469642 0.058098 0.342358
H36   H     H_    0.953416 0.265922 0.400003 0.328365
H37   H     H_    0.694193 0.893500 0.378968 0.358216
H38   H     H_    0.049347 0.732617 0.404181 0.331933
H39   H     H_    0.262460 0.030078 0.441175 0.332399
H40   H     H_    0.970249 0.737473 0.560072 0.332331
H41   H     H_    0.732734 0.043580 0.586825 0.337528
H42   H     H_    0.033996 0.265034 0.561138 0.305622
H43   H     H_    0.267095 0.949712 0.595983 0.335711
H44   H     H_    0.420647 0.752529 0.089453 0.181356
H45   H     H_    0.710068 0.534783 0.163845 0.194491
H46   H     H_    0.580808 0.247790 0.089547 0.183915
H47   H     H_    0.296621 0.470379 0.164951 0.188111
H48   H     H_    0.923200 0.747737 0.398472 0.180711
N1    N     N_R   0.425360 0.368540 0.922560 -0.064517
N2    N     N_R   0.131460 0.925360 0.422560 -0.070754
N3    N     N_R   0.074640 0.131460 0.422560 -0.082139
N4    N     N_R   0.868540 0.074640 0.422560 -0.066411
N5    N     N_R   0.925360 0.131460 0.577440 -0.084027
N6    N     N_R   0.131460 0.074640 0.577440 -0.082709
N7    N     N_R   0.074640 0.868540 0.577440 -0.070853
N8    N     N_R   0.868540 0.925360 0.577440 -0.074990
N9    N     N_R   0.425340 0.631500 0.922560 -0.116077
N10   N     N_R   0.368500 0.425340 0.922560 -0.106369
N11   N     N_R   0.574660 0.368500 0.922560 -0.116919
N12   N     N_R   0.631460 0.425360 0.922560 -0.084712
N13   N     N_R   0.631500 0.574660 0.922560 -0.098076
N14   N     N_R   0.425340 0.368500 0.077440 -0.106389
N15   N     N_R   0.368500 0.574660 0.077440 -0.115006
N16   N     N_R   0.574660 0.631500 0.077440 -0.107348
N17   N     N_R   0.631500 0.425340 0.077440 -0.109172
N18   N     N_R   0.925340 0.131500 0.422560 -0.118820
N19   N     N_R   0.868500 0.925340 0.422560 -0.080826
N20   N     N_R   0.074660 0.868500 0.422560 -0.108009
N21   N     N_R   0.131500 0.074660 0.422560 -0.112582
N22   N     N_R   0.925340 0.868500 0.577440 -0.115656
N23   N     N_R   0.574640 0.631460 0.922560 -0.065678
N24   N     N_R   0.868500 0.074660 0.577440 -0.106952
N25   N     N_R   0.074660 0.131500 0.577440 -0.106187
N26   N     N_R   0.131500 0.925340 0.577440 -0.105202
N27   N     N_R   0.368540 0.574640 0.922560 -0.088475
N28   N     N_R   0.425360 0.631460 0.077440 -0.088123
N29   N     N_R   0.631460 0.574640 0.077440 -0.064947
N30   N     N_R   0.574640 0.368540 0.077440 -0.089435
N31   N     N_R   0.368540 0.425360 0.077440 -0.066382
N32   N     N_R   0.925360 0.868540 0.422560 -0.091014
Ni1   Ni    Ni4+2 0.500000 0.369720 0.000000 0.226172
Ni2   Ni    Ni4+2 0.630280 0.500000 0.000000 0.226783
Ni3   Ni    Ni4+2 0.500000 0.630280 0.000000 0.225327
Ni4   Ni    Ni4+2 0.369720 0.500000 0.000000 0.224841
Ni5   Ni    Ni4+2 0.000000 0.869720 0.500000 0.227189
Ni6   Ni    Ni4+2 0.130280 0.000000 0.500000 0.227519
Ni7   Ni    Ni4+2 0.000000 0.130280 0.500000 0.203618
Ni8   Ni    Ni4+2 0.869720 0.000000 0.500000 0.274039
O1    O     O_3   0.420220 0.769451 0.912922 -0.727120
O2    O     O_3   0.732314 0.925505 0.406168 -0.728712
O3    O     O_3   0.066304 0.750105 0.352780 -0.692709
O4    O     O_3   0.269190 0.080100 0.414219 -0.734491
O5    O     O_3   0.920285 0.730575 0.586676 -0.738834
O6    O     O_3   0.746304 0.062012 0.638724 -0.701826
O7    O     O_3   0.078998 0.268869 0.595866 -0.743717
O8    O     O_3   0.249620 0.933259 0.647562 -0.694425
O9    O     O_3   0.251694 0.438229 0.850493 -0.670319
O10   O     O_3   0.577736 0.230621 0.918266 -0.669591
O11   O     O_3   0.745578 0.557439 0.846320 -0.730964
O12   O     O_3   0.438968 0.252170 0.151520 -0.687465
O13   O     O_3   0.230811 0.580872 0.086347 -0.725694
O14   O     O_3   0.560802 0.747219 0.150324 -0.666883
O15   O     O_3   0.768746 0.422009 0.088936 -0.726097
O16   O     O_3   0.939350 0.247161 0.348353 -0.710129

loop_
_geom_bond_atom_site_label_1
_geom_bond_atom_site_label_2
_ccdc_geom_bond_type
C13   N3    A    
Br6   C37   S    
N11   N12   A    
C89   C107  A    
N20   Ni5   S    
C39   C75   S    
Br21  C34   S    
C40   N9    A    
C43   N13   A    
C82   C99   A    
N2    Ni6   S    
Br31  C30   S    
Br5   C35   S    
Br7   C38   S    
C3    H13   S    
H43   O8    S    
Br23  C24   S    
C30   C84   S    
Br14  C27   S    
C64   C80   A    
N15   N28   A    
C14   H24   S    
C52   O4    S    
C47   C61   A    
C69   H45   S    
C45   N15   A    
C27   C34   S    
C47   N27   A    
C10   H20   S    
Br18  C31   S    
C42   N11   A    
N19   N32   A    
C83   C84   A    
C56   O8    S    
H41   O6    S    
C15   C111  A    
C45   C62   A    
C40   O1    S    
C67   C101  S    
C79   C87   A    
Br15  C28   S    
C102  H48   S    
C5    C10   A    
C36   N23   A    
N26   Ni6   S    
N16   N29   A    
C54   O6    S    
C37   C77   S    
C21   C74   A    
C77   C95   A    
C22   C39   S    
N4    Ni8   S    
C19   H6    S    
C44   N14   A    
H28   O9    S    
C21   H8    S    
N8    N22   A    
N18   Ni7   S    
C28   C86   S    
C34   C79   S    
C48   C64   A    
C59   C93   S    
N14   N31   A    
C58   N28   A    
C51   N20   A    
C68   C103  S    
C4    H14   S    
H39   O4    S    
C49   C70   A    
C31   C83   S    
C2    N2    A    
C103  C111  A    
C49   N18   A    
C23   C90   S    
C1    N1    A    
C18   C71   A    
C51   C67   A    
Br26  C39   S    
C50   C66   A    
C49   O16   S    
C4    C106  A    
Br3   C33   S    
N7    N26   A    
C33   C81   S    
C75   C92   A    
C54   C71   A    
C71   C109  S    
C53   O5    S    
C15   H25   S    
C18   N5    A    
C79   C97   A    
Br24  C37   S    
C58   C62   A    
C11   H21   S    
C46   N16   A    
C83   C100  A    
N5    Ni7   S    
H31   O12   S    
C25   H12   S    
C48   O15   S    
C55   O7    S    
C81   C98   A    
C66   C105  S    
C29   C85   S    
C52   C68   A    
C7    C109  A    
Br20  C33   S    
C32   C82   S    
Br2   C32   S    
C6    C9    A    
N19   Ni8   S    
C78   C88   A    
C17   C70   A    
N31   Ni4   S    
C111  H10   S    
N10   Ni4   S    
C84   C101  A    
C43   C60   A    
N30   Ni1   S    
C44   C65   A    
C80   H46   S    
N29   Ni2   S    
Br27  C26   S    
C62   C100  S    
N1    N10   A    
C55   C72   A    
C17   H4    S    
C15   C99   A    
C87   C105  A    
C42   C59   A    
C29   C32   S    
Br1   C22   S    
C61   C95   S    
C8    H18   S    
C30   C31   S    
Br10  C23   S    
C19   N6    A    
C1    C57   A    
Br17  C30   S    
C73   C107  S    
C28   C33   S    
N15   Ni4   S    
C35   C78   S    
C74   C108  S    
H33   O14   S    
Br29  C28   S    
C46   C63   A    
C14   C112  A    
C21   N8    A    
N14   Ni1   S    
C26   C88   S    
C2    C67   A    
C101  C110  A    
C47   H34   S    
N3    Ni7   S    
N13   Ni2   S    
C20   N7    A    
C12   H22   S    
C3    C12   A    
C65   C99   S    
N5    N24   A    
C1    H1    S    
H30   O11   S    
N4    N18   A    
C16   H26   S    
C40   C61   A    
C10   C95   A    
N16   Ni3   S    
Br9   C22   S    
C51   O3    S    
C20   C73   A    
C56   N26   A    
C75   C93   A    
C50   O2    S    
N27   Ni4   S    
C42   O10   S    
C92   C109  A    
Br30  C29   S    
N6    N25   A    
C7    H17   S    
N17   Ni2   S    
C91   H47   S    
C53   C74   A    
C85   C103  A    
H36   O16   S    
H40   O5    S    
N11   Ni1   S    
C86   C104  A    
C52   N21   A    
C54   N24   A    
C64   C98   S    
C50   N19   A    
H27   O1    S    
Br28  C27   S    
C69   N29   A    
N9    Ni3   S    
C41   O9    S    
C22   C92   S    
Br8   C39   S    
C27   C87   S    
H42   O7    S    
C25   C59   A    
C44   O12   S    
H37   O2    S    
N9    N27   A    
C80   N30   A    
C9    C94   A    
C16   C100  A    
C16   C110  A    
Br32  C31   S    
C76   C90   A    
C90   C108  A    
C13   C68   A    
C60   C94   S    
C11   C96   A    
C14   C98   A    
Br16  C29   S    
H35   O15   S    
N6    Ni6   S    
H32   O13   S    
Br13  C26   S    
C17   N4    A    
C12   C97   A    
C41   N10   A    
C66   C102  A    
C102  N32   A    
C91   N31   A    
N13   N23   A    
C24   C89   S    
C5    H15   S    
C45   O13   S    
C9    H19   S    
C19   C72   A    
N1    Ni1   S    
C41   C57   A    
C65   C91   A    
C38   C76   S    
N32   Ni5   S    
N25   Ni7   S    
Br4   C34   S    
C56   C73   A    
C2    H2    S    
C18   H5    S    
C77   C89   A    
C58   H44   S    
N17   N30   A    
C112  H11   S    
C20   H7    S    
H38   O3    S    
C8    C93   A    
C25   N12   A    
C36   C60   A    
Br19  C32   S    
C72   C106  S    
H29   O10   S    
C82   C85   A    
N23   Ni3   S    
C55   N25   A    
C110  H9    S    
N7    Ni5   S    
C46   O14   S    
C70   C104  S    
Br22  C35   S    
N3    N21   A    
C23   C38   S    
C43   O11   S    
Br11  C24   S    
N2    N20   A    
C81   C86   A    
C7    C8    A    
C36   H23   S    
C26   C35   S    
Br12  C23   S    
C88   C106  A    
N28   Ni3   S    
C104  C112  A    
C24   C37   S    
C5    C107  A    
C13   H3    S    
C63   C97   S    
C6    C108  A    
N24   Ni8   S    
C4    C11   A    
Br25  C38   S    
N8    Ni8   S    
C76   C94   A    
C53   N22   A    
N22   Ni5   S    
N12   Ni2   S    
C3    C105  A    
N21   Ni6   S    
C63   C69   A    
C78   C96   A    
C48   N17   A    
C6    H16   S    
C57   C96   S    
