data_mof_unit_66093.cif
_audit_creation_date              2012-12-10T20:06:28-0500
_audit_creation_method            fapswitch 2.2
_symmetry_space_group_name_H-M    P1
_symmetry_Int_Tables_number       1
_space_group_crystal_system       triclinic
_cell_length_a                    22.394518
_cell_length_b                    26.147693
_cell_length_c                    22.391562
_cell_angle_alpha                 90.09631
_cell_angle_beta                  90.0
_cell_angle_gamma                 89.999581
_cell_volume                      13111.6960653

loop_
_atom_site_label
_atom_site_type_symbol
_atom_type_description
_atom_site_fract_x
_atom_site_fract_y
_atom_site_fract_z
_atom_type_partial_charge
C1    C     C_R   0.497442 0.391188 0.746941 0.926647
C2    C     C_R   0.000227 0.391424 0.750607 0.804542
C3    C     C_3   0.435489 0.969077 0.738167 -0.095555
C4    C     C_3   0.435963 0.528618 0.231523 -0.092383
C5    C     C_3   0.435495 0.530922 0.761952 -0.095494
C6    C     C_3   0.435982 0.471379 0.768581 -0.092382
C7    C     C_3   0.435489 0.469077 0.238165 -0.095554
C8    C     C_3   0.935958 0.028619 0.231553 -0.092466
C9    C     C_3   0.935529 0.030927 0.762438 -0.095380
C10   C     C_3   0.936071 0.971383 0.769066 -0.092203
C11   C     C_3   0.935487 0.969077 0.238194 -0.095590
C12   C     C_3   0.935949 0.528619 0.731602 -0.092430
C13   C     C_R   0.997457 0.608812 0.753046 0.926660
C14   C     C_3   0.935503 0.530925 0.262076 -0.095483
C15   C     C_3   0.936004 0.471383 0.268715 -0.092265
C16   C     C_3   0.935484 0.469077 0.738244 -0.095572
C17   C     C_3   0.549752 0.032259 0.707943 0.326388
C18   C     C_3   0.545734 0.029471 0.297886 0.361415
C19   C     C_3   0.549987 0.967761 0.291677 0.326599
C20   C     C_3   0.545475 0.970544 0.701758 0.361555
C21   C     C_3   0.549753 0.532259 0.207945 0.326394
C22   C     C_3   0.545555 0.529460 0.798133 0.361554
C23   C     C_3   0.549826 0.467747 0.791938 0.326528
C24   C     C_R   0.000190 0.608577 0.249356 0.804624
C25   C     C_3   0.545476 0.470544 0.201759 0.361602
C26   C     C_3   0.049734 0.032260 0.207914 0.326397
C27   C     C_3   0.045895 0.029482 0.797662 0.361312
C28   C     C_3   0.050134 0.967774 0.791438 0.326642
C29   C     C_3   0.045455 0.970545 0.201731 0.361592
C30   C     C_3   0.049703 0.532263 0.707864 0.326392
C31   C     C_3   0.045645 0.529465 0.298008 0.361506
C32   C     C_3   0.049905 0.467753 0.291807 0.326483
C33   C     C_3   0.045421 0.470548 0.701684 0.361650
C34   C     C_3   0.507449 0.030770 0.823466 0.097758
C35   C     C_R   0.997405 0.891186 0.746919 0.926970
C36   C     C_3   0.518357 0.030676 0.179097 0.095631
C37   C     C_3   0.506913 0.969217 0.176436 0.097453
C38   C     C_3   0.518893 0.969321 0.820708 0.095660
C39   C     C_3   0.507445 0.530770 0.323466 0.097737
C40   C     C_3   0.518727 0.530681 0.679230 0.095578
C41   C     C_3   0.507287 0.469228 0.676500 0.097560
C42   C     C_3   0.518890 0.469321 0.320709 0.095617
C43   C     C_3   0.007490 0.030770 0.323458 0.097794
C44   C     C_3   0.018020 0.030673 0.678982 0.095644
C45   C     C_3   0.006570 0.969210 0.676381 0.097398
C46   C     C_R   0.000221 0.891424 0.250613 0.804553
C47   C     C_3   0.018932 0.969321 0.320693 0.095698
C48   C     C_3   0.007562 0.530767 0.823447 0.097769
C49   C     C_3   0.018541 0.530676 0.179165 0.095609
C50   C     C_3   0.007088 0.469223 0.176470 0.097606
C51   C     C_3   0.019004 0.469320 0.820669 0.095640
C52   C     C_3   0.376079 0.054798 0.750628 -0.788286
C53   C     C_3   0.382963 0.053304 0.225033 -0.911233
C54   C     C_3   0.376007 0.945222 0.250087 -0.788026
C55   C     C_3   0.383201 0.946708 0.775698 -0.911645
C56   C     C_3   0.376078 0.554798 0.250624 -0.788242
C57   C     C_R   0.997454 0.108812 0.253048 0.926708
C58   C     C_3   0.383118 0.553299 0.724547 -0.911546
C59   C     C_3   0.376060 0.445205 0.749578 -0.788278
C60   C     C_3   0.383200 0.446710 0.275695 -0.911638
C61   C     C_3   0.876085 0.054800 0.250686 -0.788337
C62   C     C_3   0.882825 0.053302 0.725476 -0.910969
C63   C     C_3   0.875962 0.945238 0.750569 -0.787681
C64   C     C_3   0.883217 0.946708 0.275749 -0.911644
C65   C     C_3   0.876095 0.554804 0.750786 -0.788370
C66   C     C_3   0.883048 0.553293 0.224769 -0.911372
C67   C     C_3   0.876026 0.445219 0.249863 -0.787925
C68   C     C_R   0.000148 0.108578 0.749314 0.804720
C69   C     C_3   0.883247 0.446709 0.775844 -0.911708
C70   C     C_3   0.542450 0.059973 0.645398 -0.876972
C71   C     C_3   0.522477 0.045855 0.361830 -0.910251
C72   C     C_3   0.543088 0.940038 0.354262 -0.877420
C73   C     C_3   0.521808 0.954159 0.637964 -0.909821
C74   C     C_3   0.542454 0.559974 0.145400 -0.877012
C75   C     C_3   0.522015 0.545841 0.861975 -0.909997
C76   C     C_3   0.542651 0.440026 0.854493 -0.877139
C77   C     C_3   0.521811 0.454159 0.137965 -0.909843
C78   C     C_3   0.042402 0.059974 0.145373 -0.876928
C79   C     C_3   0.498504 0.051300 0.754917 -0.047207
C80   C     C_3   0.022894 0.045866 0.861698 -0.910519
C81   C     C_3   0.043493 0.940047 0.854048 -0.877743
C82   C     C_3   0.021757 0.954161 0.137949 -0.909794
C83   C     C_3   0.042318 0.559977 0.645328 -0.876887
C84   C     C_3   0.022247 0.545851 0.361900 -0.910103
C85   C     C_3   0.042870 0.440034 0.354380 -0.877326
C86   C     C_3   0.021670 0.454163 0.637921 -0.909747
C87   C     C_3   0.556943 0.058208 0.862378 -0.720692
C88   C     C_3   0.583996 0.045091 0.158266 -0.786513
C89   C     C_3   0.556158 0.941754 0.137239 -0.720283
C90   C     C_3   0.500966 0.050835 0.246373 -0.067709
C91   C     C_3   0.584694 0.954888 0.841018 -0.786372
C92   C     C_3   0.556936 0.558208 0.362381 -0.720524
C93   C     C_3   0.584476 0.545110 0.658752 -0.786277
C94   C     C_3   0.556711 0.441784 0.637506 -0.720306
C95   C     C_3   0.584690 0.454888 0.341023 -0.786301
C96   C     C_3   0.057004 0.058204 0.362348 -0.720844
C97   C     C_3   0.083557 0.045076 0.657834 -0.786647
C98   C     C_3   0.055648 0.941728 0.637001 -0.720380
C99   C     C_3   0.084744 0.954885 0.340965 -0.786391
C100  C     C_3   0.057109 0.558199 0.862299 -0.720566
C101  C     C_3   0.498429 0.948703 0.245041 -0.047439
C102  C     C_3   0.084240 0.545093 0.158520 -0.786367
C103  C     C_3   0.056407 0.441765 0.137363 -0.720421
C104  C     C_3   0.084837 0.454882 0.840875 -0.786269
C105  C     C_2   0.451064 0.045585 0.859311 0.447507
C106  C     C_2   0.481434 0.059836 0.132019 0.374718
C107  C     C_2   0.450302 0.954389 0.140960 0.447748
C108  C     C_2   0.482307 0.940173 0.868066 0.375205
C109  C     C_2   0.451059 0.545585 0.359308 0.447348
C110  C     C_2   0.482030 0.559832 0.631965 0.375126
C111  C     C_2   0.450835 0.454411 0.640761 0.447671
C112  C     C_R   0.500218 0.391424 0.250616 0.804557
C113  C     C_3   0.501042 0.949168 0.753559 -0.067717
C114  C     C_2   0.482302 0.440172 0.368065 0.375224
C115  C     C_2   0.951123 0.045585 0.359332 0.447596
C116  C     C_2   0.980895 0.059843 0.632075 0.374387
C117  C     C_2   0.949815 0.954374 0.641142 0.447491
C118  C     C_2   0.982370 0.940176 0.368071 0.375220
C119  C     C_2   0.951225 0.545579 0.859372 0.447486
C120  C     C_2   0.981741 0.559837 0.131987 0.374912
C121  C     C_2   0.950550 0.454406 0.140871 0.447220
C122  C     C_2   0.982485 0.440174 0.868082 0.375308
C123  C     C_3   0.614191 0.051092 0.724798 -0.865594
C124  C     C_3   0.498503 0.551300 0.254917 -0.047182
C125  C     C_3   0.608459 0.056427 0.297110 -0.839775
C126  C     C_3   0.614344 0.948969 0.274424 -0.865012
C127  C     C_3   0.608216 0.943612 0.702123 -0.840505
C128  C     C_3   0.614191 0.551092 0.224803 -0.865630
C129  C     C_3   0.608289 0.556404 0.797641 -0.840358
C130  C     C_3   0.614242 0.448931 0.774957 -0.865463
C131  C     C_3   0.608217 0.443611 0.202127 -0.840583
C132  C     C_3   0.114179 0.051096 0.224740 -0.865660
C133  C     C_3   0.108611 0.056451 0.796631 -0.839301
C134  C     C_3   0.114435 0.949006 0.773933 -0.864679
C135  C     C_3   0.501018 0.550833 0.746420 -0.067736
C136  C     C_3   0.108197 0.943614 0.202066 -0.840615
C137  C     C_3   0.114160 0.551104 0.724637 -0.865744
C138  C     C_3   0.108378 0.556410 0.297374 -0.840102
C139  C     C_3   0.114289 0.448943 0.274689 -0.865253
C140  C     C_3   0.108165 0.443619 0.701965 -0.840763
C141  C     C_3   0.498482 0.448701 0.745066 -0.047312
C142  C     C_3   0.501041 0.449168 0.253559 -0.067719
C143  C     C_3   0.998510 0.051300 0.254914 -0.047212
C144  C     C_3   0.000919 0.050837 0.746333 -0.067673
C145  C     C_3   0.998380 0.948704 0.745019 -0.047446
C146  C     C_3   0.001047 0.949168 0.253554 -0.067722
C147  C     C_3   0.998520 0.551300 0.754910 -0.047190
C148  C     C_R   0.497452 0.608812 0.253050 0.926751
C149  C     C_3   0.000992 0.550834 0.246397 -0.067716
C150  C     C_3   0.998451 0.448702 0.245056 -0.047250
C151  C     C_3   0.001058 0.449169 0.753546 -0.067741
C152  C     C_1   0.499960 0.249990 0.973289 -0.141606
C153  C     C_1   0.500003 0.249954 0.026709 -0.140696
C154  C     C_1   0.499960 0.750010 0.026711 -0.141658
C155  C     C_1   0.500003 0.750046 0.973291 -0.140697
C156  C     C_1   0.499960 0.749990 0.473289 -0.141591
C157  C     C_1   0.500003 0.749954 0.526709 -0.140670
C158  C     C_1   0.499960 0.250010 0.526711 -0.141588
C159  C     C_R   0.500204 0.608576 0.749371 0.804627
C160  C     C_1   0.500003 0.250046 0.473291 -0.140679
C161  C     C_1   0.999960 0.249990 0.473289 -0.141610
C162  C     C_1   0.000003 0.249954 0.526709 -0.140706
C163  C     C_1   0.999960 0.750010 0.526711 -0.141722
C164  C     C_1   0.000002 0.750046 0.473291 -0.140712
C165  C     C_1   0.999960 0.749990 0.973289 -0.141577
C166  C     C_1   0.000003 0.749954 0.026709 -0.140675
C167  C     C_1   0.999960 0.250010 0.026711 -0.141638
C168  C     C_1   0.000002 0.250046 0.973291 -0.140692
C169  C     C_R   0.499969 0.250003 0.590067 0.858334
C170  C     C_R   0.497422 0.891187 0.246929 0.926769
C171  C     C_R   0.500003 0.250028 0.409933 0.839589
C172  C     C_R   0.499968 0.749997 0.409933 0.858386
C173  C     C_R   0.500003 0.749972 0.590066 0.839617
C174  C     C_R   0.499969 0.750003 0.090067 0.858276
C175  C     C_R   0.500003 0.750028 0.909933 0.839577
C176  C     C_R   0.499969 0.249997 0.909933 0.858386
C177  C     C_R   0.500003 0.249972 0.090066 0.839660
C178  C     C_R   0.999969 0.250003 0.090067 0.858281
C179  C     C_R   0.000003 0.250028 0.909934 0.839580
C180  C     C_R   0.999968 0.749997 0.909933 0.858424
C181  C     C_R   0.500218 0.891424 0.750616 0.804556
C182  C     C_R   0.000003 0.749972 0.090066 0.839635
C183  C     C_R   0.999969 0.750003 0.590067 0.858210
C184  C     C_R   0.000003 0.750028 0.409933 0.839580
C185  C     C_R   0.999969 0.249997 0.409933 0.858410
C186  C     C_R   0.000003 0.249972 0.590066 0.839709
C187  C     C_R   0.659933 0.250000 0.750000 0.827131
C188  C     C_R   0.659956 0.250000 0.250000 0.836883
C189  C     C_R   0.659933 0.750000 0.250000 0.827152
C190  C     C_R   0.659956 0.750000 0.750000 0.836879
C191  C     C_R   0.159933 0.250000 0.250000 0.827137
C192  C     C_R   0.497451 0.108812 0.753050 0.926736
C193  C     C_R   0.159956 0.250000 0.750000 0.836884
C194  C     C_R   0.159933 0.750000 0.750000 0.827165
C195  C     C_R   0.159956 0.750000 0.250000 0.836878
C196  C     C_R   0.340052 0.250000 0.750000 0.857123
C197  C     C_R   0.340074 0.250000 0.250000 0.834407
C198  C     C_R   0.340052 0.750000 0.250000 0.857235
C199  C     C_R   0.340074 0.750000 0.750000 0.834425
C200  C     C_R   0.840052 0.250000 0.250000 0.857194
C201  C     C_R   0.840074 0.250000 0.750000 0.834399
C202  C     C_R   0.840052 0.750000 0.750000 0.857312
C203  C     C_R   0.500174 0.108577 0.249341 0.804673
C204  C     C_R   0.840074 0.750000 0.250000 0.834421
C205  C     C_1   0.276709 0.250000 0.750000 -0.153929
C206  C     C_1   0.276713 0.250000 0.250000 -0.153078
C207  C     C_1   0.276709 0.750000 0.250000 -0.153920
C208  C     C_1   0.276713 0.750000 0.750000 -0.153072
C209  C     C_1   0.776709 0.250000 0.250000 -0.153921
C210  C     C_1   0.776713 0.250000 0.750000 -0.153071
C211  C     C_1   0.776709 0.750000 0.750000 -0.153908
C212  C     C_1   0.776713 0.750000 0.250000 -0.153067
C213  C     C_1   0.223299 0.250000 0.750000 -0.151726
C214  C     C_R   0.997431 0.391187 0.246936 0.926898
C215  C     C_1   0.223293 0.250000 0.250000 -0.151216
C216  C     C_1   0.223299 0.750000 0.250000 -0.151709
C217  C     C_1   0.223293 0.750000 0.750000 -0.151224
C218  C     C_1   0.723299 0.250000 0.250000 -0.151711
C219  C     C_1   0.723293 0.250000 0.750000 -0.151206
C220  C     C_1   0.723299 0.750000 0.750000 -0.151693
C221  C     C_1   0.723293 0.750000 0.250000 -0.151211
C222  C     C_3   0.435963 0.028618 0.731525 -0.092427
C223  C     C_3   0.435512 0.030925 0.262204 -0.095416
C224  C     C_3   0.436026 0.971381 0.268831 -0.092314
H1    H     H_    0.434032 0.035676 0.683176 0.173958
H2    H     H_    0.923336 0.046331 0.806881 0.208043
H3    H     H_    0.014385 0.912386 0.134590 0.254416
H4    H     H_    0.998735 0.555996 0.623023 0.224122
H5    H     H_    0.050456 0.601794 0.648856 0.232512
H6    H     H_    0.076160 0.546102 0.612847 0.238828
H7    H     H_    0.980766 0.526713 0.376305 0.214458
H8    H     H_    0.055403 0.537269 0.397388 0.244241
H9    H     H_    0.014843 0.587622 0.365274 0.254189
H10   H     H_    0.999413 0.444010 0.376928 0.224049
H11   H     H_    0.050980 0.398216 0.350794 0.232303
H12   H     H_    0.076890 0.453908 0.386677 0.238949
H13   H     H_    0.934642 0.964311 0.817431 0.173841
H14   H     H_    0.980088 0.473276 0.623764 0.214387
H15   H     H_    0.054608 0.462779 0.602244 0.244130
H16   H     H_    0.014304 0.412388 0.634563 0.254451
H17   H     H_    0.600182 0.063647 0.840401 0.219394
H18   H     H_    0.544116 0.096845 0.878543 0.279967
H19   H     H_    0.564337 0.037204 0.904747 0.238825
H20   H     H_    0.618822 0.018599 0.171482 0.200394
H21   H     H_    0.588561 0.044919 0.108833 0.254188
H22   H     H_    0.600409 0.083128 0.170971 0.261188
H23   H     H_    0.599584 0.936444 0.158890 0.219368
H24   H     H_    0.922794 0.953663 0.193898 0.208070
H25   H     H_    0.543285 0.903056 0.121320 0.279942
H26   H     H_    0.563172 0.962658 0.094739 0.239200
H27   H     H_    0.619389 0.981468 0.827701 0.200375
H28   H     H_    0.589616 0.954864 0.890416 0.254136
H29   H     H_    0.601074 0.916928 0.827952 0.261048
H30   H     H_    0.600176 0.563647 0.340406 0.219374
H31   H     H_    0.544107 0.596845 0.378545 0.279975
H32   H     H_    0.564327 0.537205 0.404750 0.238966
H33   H     H_    0.619216 0.518564 0.672045 0.200347
H34   H     H_    0.589285 0.545059 0.609343 0.254221
H35   H     H_    0.933953 0.535677 0.683255 0.173974
H36   H     H_    0.600862 0.583100 0.671687 0.261078
H37   H     H_    0.600009 0.436396 0.659384 0.219341
H38   H     H_    0.543879 0.403125 0.621423 0.279988
H39   H     H_    0.563982 0.462751 0.595092 0.239055
H40   H     H_    0.619386 0.481468 0.327706 0.200361
H41   H     H_    0.589610 0.454867 0.390421 0.254202
H42   H     H_    0.601070 0.416927 0.327960 0.261041
H43   H     H_    0.100229 0.063652 0.340347 0.219417
H44   H     H_    0.044184 0.096838 0.378531 0.279963
H45   H     H_    0.064425 0.037194 0.404707 0.238689
H46   H     H_    0.923022 0.546337 0.306435 0.208053
H47   H     H_    0.118459 0.018636 0.670984 0.200420
H48   H     H_    0.087905 0.044785 0.608382 0.254190
H49   H     H_    0.099985 0.083159 0.670321 0.261288
H50   H     H_    0.099187 0.936489 0.658447 0.219438
H51   H     H_    0.042730 0.902997 0.621231 0.279887
H52   H     H_    0.062429 0.962576 0.594425 0.239354
H53   H     H_    0.119431 0.981471 0.327640 0.200382
H54   H     H_    0.089692 0.954848 0.390360 0.254085
H55   H     H_    0.101121 0.916931 0.327874 0.261040
H56   H     H_    0.100310 0.563662 0.840254 0.219364
H57   H     H_    0.934277 0.464321 0.317072 0.173886
H58   H     H_    0.044297 0.596825 0.878513 0.279985
H59   H     H_    0.064580 0.537178 0.904641 0.238851
H60   H     H_    0.119014 0.518561 0.171763 0.200370
H61   H     H_    0.088934 0.544996 0.109099 0.254238
H62   H     H_    0.100648 0.583099 0.171361 0.261123
H63   H     H_    0.099766 0.436396 0.159129 0.219412
H64   H     H_    0.043531 0.403093 0.121352 0.279929
H65   H     H_    0.063561 0.462709 0.094913 0.239198
H66   H     H_    0.119509 0.481479 0.827537 0.200357
H67   H     H_    0.089831 0.454821 0.890266 0.254171
H68   H     H_    0.922753 0.453664 0.693958 0.208064
H69   H     H_    0.101210 0.416937 0.827739 0.261003
H70   H     H_    0.422278 0.018186 0.880691 0.105528
H71   H     H_    0.455595 0.093377 0.143595 0.078969
H72   H     H_    0.421293 0.981794 0.119893 0.105251
H73   H     H_    0.456293 0.906684 0.856677 0.079397
H74   H     H_    0.422282 0.518189 0.380703 0.105489
H75   H     H_    0.456038 0.593315 0.643422 0.079185
H76   H     H_    0.421962 0.481821 0.619513 0.105229
H77   H     H_    0.456287 0.406684 0.356674 0.079373
H78   H     H_    0.922344 0.018185 0.380719 0.105580
H79   H     H_    0.359740 0.043803 0.795268 0.247603
H80   H     H_    0.955157 0.093412 0.643767 0.078728
H81   H     H_    0.920726 0.981774 0.620176 0.105369
H82   H     H_    0.956342 0.906691 0.356697 0.079440
H83   H     H_    0.922475 0.518180 0.880797 0.105480
H84   H     H_    0.955827 0.593352 0.143501 0.079087
H85   H     H_    0.921669 0.481802 0.119615 0.105451
H86   H     H_    0.956437 0.406696 0.856731 0.079469
H87   H     H_    0.616052 0.092789 0.733185 0.246303
H88   H     H_    0.635399 0.032231 0.762138 0.219563
H89   H     H_    0.646032 0.044236 0.687535 0.235215
H90   H     H_    0.377497 0.096951 0.749721 0.267642
H91   H     H_    0.604289 0.098497 0.302527 0.228043
H92   H     H_    0.636254 0.043046 0.335123 0.231378
H93   H     H_    0.636130 0.050020 0.257644 0.230380
H94   H     H_    0.646408 0.955850 0.311491 0.234947
H95   H     H_    0.616232 0.907275 0.266054 0.246771
H96   H     H_    0.635304 0.967850 0.236954 0.219480
H97   H     H_    0.604017 0.901526 0.696901 0.227794
H98   H     H_    0.635698 0.956915 0.663848 0.231620
H99   H     H_    0.636222 0.950154 0.741323 0.230316
H100  H     H_    0.616053 0.592789 0.233191 0.246307
H101  H     H_    0.340332 0.043429 0.718813 0.219410
H102  H     H_    0.635398 0.532231 0.262144 0.219570
H103  H     H_    0.646034 0.544236 0.187541 0.235189
H104  H     H_    0.604096 0.598483 0.802945 0.227853
H105  H     H_    0.635877 0.543064 0.835823 0.231515
H106  H     H_    0.636182 0.549922 0.758348 0.230330
H107  H     H_    0.646149 0.455780 0.812167 0.235093
H108  H     H_    0.616112 0.407239 0.766553 0.246466
H109  H     H_    0.635379 0.467815 0.737591 0.219549
H110  H     H_    0.604019 0.401526 0.196902 0.227788
H111  H     H_    0.635702 0.456917 0.163854 0.231589
H112  H     H_    0.423138 0.046328 0.306597 0.208047
H113  H     H_    0.379847 0.037577 0.179564 0.224684
H114  H     H_    0.636220 0.450151 0.241330 0.230316
H115  H     H_    0.116039 0.092793 0.233131 0.246271
H116  H     H_    0.135406 0.032235 0.262069 0.219569
H117  H     H_    0.146004 0.044243 0.187462 0.235218
H118  H     H_    0.104460 0.098512 0.802154 0.228213
H119  H     H_    0.136592 0.043029 0.834486 0.231237
H120  H     H_    0.136078 0.050114 0.757008 0.230440
H121  H     H_    0.146641 0.955912 0.810869 0.234809
H122  H     H_    0.116339 0.907312 0.765585 0.247054
H123  H     H_    0.135234 0.967888 0.736373 0.219426
H124  H     H_    0.339840 0.045043 0.247585 0.255428
H125  H     H_    0.103995 0.901527 0.196857 0.227774
H126  H     H_    0.135656 0.956912 0.163772 0.231624
H127  H     H_    0.136227 0.950164 0.241247 0.230307
H128  H     H_    0.116017 0.592800 0.733034 0.246211
H129  H     H_    0.135421 0.532242 0.761947 0.219584
H130  H     H_    0.145955 0.544257 0.687331 0.235226
H131  H     H_    0.104200 0.598486 0.302717 0.227954
H132  H     H_    0.136062 0.543058 0.335480 0.231437
H133  H     H_    0.136167 0.549948 0.258003 0.230363
H134  H     H_    0.146279 0.455820 0.311820 0.235025
H135  H     H_    0.385364 0.095504 0.221644 0.243875
H136  H     H_    0.116166 0.407248 0.266321 0.246604
H137  H     H_    0.135334 0.467809 0.237258 0.219510
H138  H     H_    0.103961 0.401531 0.696777 0.227729
H139  H     H_    0.135586 0.456909 0.663639 0.231626
H140  H     H_    0.136237 0.450184 0.741113 0.230292
H141  H     H_    0.359368 0.956260 0.205573 0.247281
H142  H     H_    0.377395 0.903070 0.250904 0.267914
H143  H     H_    0.340472 0.956562 0.282155 0.219346
H144  H     H_    0.380397 0.962457 0.821179 0.224779
H145  H     H_    0.339929 0.954964 0.753433 0.255524
H146  H     H_    0.385645 0.904506 0.779067 0.243569
H147  H     H_    0.359739 0.543804 0.295263 0.247613
H148  H     H_    0.434399 0.964309 0.317190 0.173910
H149  H     H_    0.377496 0.596952 0.249715 0.267641
H150  H     H_    0.340332 0.543428 0.218809 0.219390
H151  H     H_    0.380214 0.537570 0.679063 0.224728
H152  H     H_    0.339895 0.545028 0.746902 0.255498
H153  H     H_    0.385538 0.595501 0.721191 0.243700
H154  H     H_    0.359624 0.456228 0.704984 0.247461
H155  H     H_    0.377479 0.403051 0.750431 0.267704
H156  H     H_    0.340377 0.456545 0.781481 0.219408
H157  H     H_    0.380397 0.462461 0.321176 0.224769
H158  H     H_    0.339928 0.454964 0.253430 0.255520
H159  H     H_    0.422818 0.953663 0.693864 0.208064
H160  H     H_    0.385643 0.404508 0.279066 0.243565
H161  H     H_    0.859768 0.043805 0.295334 0.247622
H162  H     H_    0.877508 0.096954 0.249778 0.267616
H163  H     H_    0.840322 0.043432 0.218889 0.219423
H164  H     H_    0.879519 0.037564 0.680026 0.224648
H165  H     H_    0.839796 0.045051 0.748212 0.255372
H166  H     H_    0.885206 0.095499 0.722054 0.244034
H167  H     H_    0.859147 0.956273 0.706120 0.247195
H168  H     H_    0.877314 0.903087 0.751385 0.268126
H169  H     H_    0.840563 0.956597 0.782778 0.219258
H170  H     H_    0.434034 0.535676 0.183173 0.173947
H171  H     H_    0.880436 0.962456 0.321232 0.224797
H172  H     H_    0.839935 0.954964 0.253505 0.255532
H173  H     H_    0.885664 0.904505 0.279114 0.243551
H174  H     H_    0.859814 0.543807 0.795447 0.247643
H175  H     H_    0.877527 0.596958 0.749880 0.267564
H176  H     H_    0.840304 0.543443 0.719017 0.219422
H177  H     H_    0.880047 0.537543 0.179301 0.224707
H178  H     H_    0.839871 0.545041 0.247221 0.255454
H179  H     H_    0.885465 0.595492 0.221375 0.243745
H180  H     H_    0.859497 0.456221 0.205296 0.247486
H181  H     H_    0.422922 0.546328 0.806287 0.208061
H182  H     H_    0.877411 0.403066 0.250749 0.267841
H183  H     H_    0.840418 0.456595 0.281831 0.219300
H184  H     H_    0.880509 0.462454 0.821331 0.224785
H185  H     H_    0.839944 0.454969 0.753642 0.255538
H186  H     H_    0.885696 0.404506 0.779201 0.243514
H187  H     H_    0.498897 0.055993 0.623034 0.224101
H188  H     H_    0.550581 0.101791 0.648940 0.232461
H189  H     H_    0.576335 0.046099 0.612961 0.238886
H190  H     H_    0.481041 0.026702 0.376337 0.214481
H191  H     H_    0.555723 0.037292 0.397242 0.244308
H192  H     H_    0.434142 0.464312 0.816933 0.173955
H193  H     H_    0.515050 0.087623 0.365210 0.254083
H194  H     H_    0.499677 0.944007 0.376902 0.224007
H195  H     H_    0.551192 0.898220 0.350654 0.232233
H196  H     H_    0.577173 0.953912 0.386491 0.239009
H197  H     H_    0.480250 0.973278 0.623748 0.214398
H198  H     H_    0.554798 0.962767 0.602333 0.244184
H199  H     H_    0.514433 0.912385 0.634603 0.254394
H200  H     H_    0.498902 0.555994 0.123034 0.224107
H201  H     H_    0.550585 0.601791 0.148942 0.232460
H202  H     H_    0.576340 0.546099 0.112964 0.238864
H203  H     H_    0.422818 0.453662 0.193862 0.208063
H204  H     H_    0.480500 0.526705 0.876284 0.214438
H205  H     H_    0.555090 0.537252 0.897537 0.244203
H206  H     H_    0.514614 0.587612 0.865343 0.254299
H207  H     H_    0.499139 0.443995 0.876938 0.224077
H208  H     H_    0.550783 0.398210 0.850928 0.232391
H209  H     H_    0.576592 0.453904 0.886870 0.238894
H210  H     H_    0.480254 0.473279 0.123748 0.214407
H211  H     H_    0.554803 0.462767 0.102335 0.244160
H212  H     H_    0.514436 0.412385 0.134604 0.254390
H213  H     H_    0.998838 0.055994 0.123031 0.224109
H214  H     H_    0.934003 0.035677 0.183205 0.173975
H215  H     H_    0.050536 0.101792 0.148910 0.232479
H216  H     H_    0.076272 0.046099 0.112920 0.238877
H217  H     H_    0.981532 0.026694 0.876382 0.214533
H218  H     H_    0.056297 0.037328 0.896971 0.244397
H219  H     H_    0.015439 0.087631 0.865089 0.253894
H220  H     H_    0.000174 0.944011 0.876864 0.223959
H221  H     H_    0.051576 0.898228 0.850397 0.232083
H222  H     H_    0.077706 0.953922 0.886140 0.239107
H223  H     H_    0.980191 0.973278 0.123755 0.214392
H224  H     H_    0.054729 0.962771 0.102302 0.244180
O1    O     O_3   0.500000 0.250000 0.750000 -0.489435
O2    O     O_R   0.465380 0.366870 0.215380 -0.649076
O3    O     O_R   0.034610 0.633130 0.215390 -0.660217
O4    O     O_R   0.034610 0.866870 0.715390 -0.649748
O5    O     O_R   0.034610 0.866870 0.284610 -0.660278
O6    O     O_R   0.034610 0.133130 0.284610 -0.648995
O7    O     O_R   0.034610 0.133130 0.715390 -0.660166
O8    O     O_2   0.436698 0.090449 0.865313 -0.602355
O9    O     O_2   0.483827 0.048350 0.079073 -0.569441
O10   O     O_2   0.435963 0.909518 0.134963 -0.602783
O11   O     O_2   0.485149 0.951631 0.920997 -0.569759
O12   O     O_2   0.436685 0.590448 0.365295 -0.602439
O13   O     O_R   0.465380 0.633130 0.215380 -0.662116
O14   O     O_2   0.484750 0.548383 0.579024 -0.569547
O15   O     O_2   0.436496 0.409545 0.634726 -0.602518
O16   O     O_2   0.485145 0.451626 0.420997 -0.569669
O17   O     O_2   0.936762 0.090449 0.365344 -0.602265
O18   O     O_2   0.983023 0.048348 0.579121 -0.569355
O19   O     O_2   0.935448 0.909502 0.635227 -0.603043
O20   O     O_2   0.985245 0.951632 0.421001 -0.569890
O21   O     O_2   0.936863 0.590442 0.865391 -0.602321
O22   O     O_2   0.984312 0.548376 0.079043 -0.569507
O23   O     O_2   0.936158 0.409541 0.134940 -0.602740
O24   O     O_R   0.465380 0.633130 0.784620 -0.649111
O25   O     O_2   0.985417 0.451625 0.921011 -0.569786
O26   O     O_R   0.465380 0.866870 0.284620 -0.661963
O27   O     O_R   0.465380 0.866870 0.715380 -0.649073
O28   O     O_R   0.465380 0.133130 0.715380 -0.662108
O29   O     O_R   0.465380 0.133130 0.284620 -0.649140
O30   O     O_R   0.965380 0.366870 0.284620 -0.662031
O31   O     O_R   0.965380 0.366870 0.715380 -0.649065
O32   O     O_R   0.965380 0.633130 0.715380 -0.662142
O33   O     O_3   0.500000 0.250000 0.250000 -0.483514
O34   O     O_R   0.965380 0.633130 0.284620 -0.649114
O35   O     O_R   0.965380 0.866870 0.784620 -0.661897
O36   O     O_R   0.965380 0.866870 0.215380 -0.649070
O37   O     O_R   0.965380 0.133130 0.215380 -0.662120
O38   O     O_R   0.965380 0.133130 0.784620 -0.649173
O39   O     O_R   0.534610 0.280640 0.617980 -0.630366
O40   O     O_R   0.534610 0.280640 0.382020 -0.631476
O41   O     O_R   0.534610 0.719360 0.382020 -0.630321
O42   O     O_R   0.534610 0.719360 0.617980 -0.631498
O43   O     O_R   0.534610 0.780640 0.117980 -0.630540
O44   O     O_3   0.500000 0.750000 0.250000 -0.489419
O45   O     O_R   0.534610 0.780640 0.882020 -0.631503
O46   O     O_R   0.534610 0.219360 0.882020 -0.630349
O47   O     O_R   0.534610 0.219360 0.117980 -0.631605
O48   O     O_R   0.034610 0.280640 0.117980 -0.630462
O49   O     O_R   0.034610 0.280640 0.882020 -0.631467
O50   O     O_R   0.034610 0.719360 0.882020 -0.630286
O51   O     O_R   0.034610 0.719360 0.117980 -0.631536
O52   O     O_R   0.034610 0.780640 0.617980 -0.630694
O53   O     O_R   0.034610 0.780640 0.382020 -0.631513
O54   O     O_R   0.034610 0.219360 0.382020 -0.630356
O55   O     O_3   0.500000 0.750000 0.750000 -0.483525
O56   O     O_R   0.034610 0.219360 0.617980 -0.631681
O57   O     O_R   0.632030 0.280640 0.715400 -0.644243
O58   O     O_R   0.632030 0.280640 0.284600 -0.639486
O59   O     O_R   0.632030 0.719360 0.284600 -0.644257
O60   O     O_R   0.632030 0.719360 0.715400 -0.639489
O61   O     O_R   0.632030 0.780640 0.215400 -0.644234
O62   O     O_R   0.632030 0.780640 0.784600 -0.639498
O63   O     O_R   0.632030 0.219360 0.784600 -0.644276
O64   O     O_R   0.632030 0.219360 0.215400 -0.639496
O65   O     O_R   0.132030 0.280640 0.215400 -0.644229
O66   O     O_3   0.000000 0.250000 0.250000 -0.489426
O67   O     O_R   0.132030 0.280640 0.784600 -0.639484
O68   O     O_R   0.132030 0.719360 0.784600 -0.644266
O69   O     O_R   0.132030 0.719360 0.215400 -0.639489
O70   O     O_R   0.132030 0.780640 0.715400 -0.644215
O71   O     O_R   0.132030 0.780640 0.284600 -0.639497
O72   O     O_R   0.132030 0.219360 0.284600 -0.644285
O73   O     O_R   0.132030 0.219360 0.715400 -0.639497
O74   O     O_R   0.367970 0.280650 0.784620 -0.637142
O75   O     O_R   0.367970 0.280650 0.215380 -0.635994
O76   O     O_R   0.367970 0.719350 0.215380 -0.637130
O77   O     O_3   0.000000 0.250000 0.750000 -0.483506
O78   O     O_R   0.367970 0.719350 0.784620 -0.636042
O79   O     O_R   0.367970 0.780650 0.284620 -0.637174
O80   O     O_R   0.367970 0.780650 0.715380 -0.636012
O81   O     O_R   0.367970 0.219350 0.715380 -0.637142
O82   O     O_R   0.367970 0.219350 0.284620 -0.636098
O83   O     O_R   0.867970 0.280650 0.284620 -0.637153
O84   O     O_R   0.867970 0.280650 0.715380 -0.635972
O85   O     O_R   0.867970 0.719350 0.715380 -0.637118
O86   O     O_R   0.867970 0.719350 0.284620 -0.636057
O87   O     O_R   0.867970 0.780650 0.784620 -0.637196
O88   O     O_3   0.000000 0.750000 0.750000 -0.489406
O89   O     O_R   0.867970 0.780650 0.215380 -0.636005
O90   O     O_R   0.867970 0.219350 0.215380 -0.637137
O91   O     O_R   0.867970 0.219350 0.784620 -0.636138
O92   O     O_R   0.465380 0.219370 0.617980 -0.640069
O93   O     O_R   0.465380 0.219370 0.382020 -0.639114
O94   O     O_R   0.465380 0.780630 0.382020 -0.640067
O95   O     O_R   0.465380 0.780630 0.617980 -0.639166
O96   O     O_R   0.465380 0.719370 0.117980 -0.640002
O97   O     O_R   0.465380 0.719370 0.882020 -0.639134
O98   O     O_R   0.465380 0.280630 0.882020 -0.640055
O99   O     O_3   0.000000 0.750000 0.250000 -0.483521
O100  O     O_R   0.465380 0.280630 0.117980 -0.639142
O101  O     O_R   0.965380 0.219370 0.117980 -0.640029
O102  O     O_R   0.965380 0.219370 0.882020 -0.639072
O103  O     O_R   0.965380 0.780630 0.882020 -0.640082
O104  O     O_R   0.965380 0.780630 0.117980 -0.639167
O105  O     O_R   0.965380 0.719370 0.617980 -0.639942
O106  O     O_R   0.965380 0.719370 0.382020 -0.639105
O107  O     O_R   0.965380 0.280630 0.382020 -0.640059
O108  O     O_R   0.965380 0.280630 0.617980 -0.639143
O109  O     O_R   0.534610 0.366870 0.715390 -0.649174
O110  O     O_R   0.465380 0.366870 0.784620 -0.662050
O111  O     O_R   0.534610 0.366870 0.284610 -0.660267
O112  O     O_R   0.534610 0.633130 0.284610 -0.649047
O113  O     O_R   0.534610 0.633130 0.715390 -0.660232
O114  O     O_R   0.534610 0.866870 0.215390 -0.649466
O115  O     O_R   0.534610 0.866870 0.784610 -0.660270
O116  O     O_R   0.534610 0.133130 0.784610 -0.649033
O117  O     O_R   0.534610 0.133130 0.215390 -0.660203
O118  O     O_R   0.034610 0.366870 0.215390 -0.649344
O119  O     O_R   0.034610 0.366870 0.784610 -0.660281
O120  O     O_R   0.034610 0.633130 0.784610 -0.648949
Zn1   Zn    Zn3+2 0.450550 0.206230 0.700550 0.982691
Zn2   Zn    Zn3+2 0.950550 0.206230 0.799450 0.959923
Zn3   Zn    Zn3+2 0.950550 0.793770 0.799450 0.982898
Zn4   Zn    Zn3+2 0.950550 0.793770 0.200550 0.959969
Zn5   Zn    Zn3+2 0.950550 0.706230 0.700550 0.982775
Zn6   Zn    Zn3+2 0.950550 0.706230 0.299450 0.959959
Zn7   Zn    Zn3+2 0.950550 0.293770 0.299450 0.982793
Zn8   Zn    Zn3+2 0.950550 0.293770 0.700550 0.959988
Zn9   Zn    Zn3+2 0.549450 0.293780 0.700550 0.973579
Zn10  Zn    Zn3+2 0.549450 0.293780 0.299450 0.961311
Zn11  Zn    Zn3+2 0.549450 0.706220 0.299450 0.973655
Zn12  Zn    Zn3+2 0.450550 0.206230 0.299450 0.959927
Zn13  Zn    Zn3+2 0.549450 0.706220 0.700550 0.961274
Zn14  Zn    Zn3+2 0.549450 0.793780 0.200550 0.973440
Zn15  Zn    Zn3+2 0.549450 0.793780 0.799450 0.961280
Zn16  Zn    Zn3+2 0.549450 0.206220 0.799450 0.973609
Zn17  Zn    Zn3+2 0.549450 0.206220 0.200550 0.961144
Zn18  Zn    Zn3+2 0.049450 0.293780 0.200550 0.973509
Zn19  Zn    Zn3+2 0.049450 0.293780 0.799450 0.961333
Zn20  Zn    Zn3+2 0.049450 0.706220 0.799450 0.973693
Zn21  Zn    Zn3+2 0.049450 0.706220 0.200550 0.961222
Zn22  Zn    Zn3+2 0.049450 0.793780 0.700550 0.973318
Zn23  Zn    Zn3+2 0.450550 0.793770 0.299450 0.982819
Zn24  Zn    Zn3+2 0.049450 0.793780 0.299450 0.961277
Zn25  Zn    Zn3+2 0.049450 0.206220 0.299450 0.973608
Zn26  Zn    Zn3+2 0.049450 0.206220 0.700550 0.961050
Zn27  Zn    Zn3+2 0.450550 0.793770 0.700550 0.959969
Zn28  Zn    Zn3+2 0.450550 0.706230 0.200550 0.982752
Zn29  Zn    Zn3+2 0.450550 0.706230 0.799450 0.959950
Zn30  Zn    Zn3+2 0.450550 0.293770 0.799450 0.982731
Zn31  Zn    Zn3+2 0.450550 0.293770 0.200550 0.959979
Zn32  Zn    Zn3+2 0.950550 0.206230 0.200550 0.982723

loop_
_geom_bond_atom_site_label_1
_geom_bond_atom_site_label_2
_ccdc_geom_bond_type
C197  O75   A    
C195  O71   A    
C52   C222  S    
O88   Zn5   S    
C134  H121  S    
C39   C92   S    
O101  Zn32  S    
C186  O108  A    
C223  C224  S    
C173  O95   A    
C40   C93   S    
C125  H91   S    
O53   Zn24  S    
C178  O101  A    
C58   H152  S    
C136  H126  S    
O57   Zn9   S    
O108  Zn8   S    
C211  C220  T    
C112  O2    A    
C28   C145  S    
C179  O49   A    
C102  H61   S    
C180  O103  A    
C5    C6    S    
C99   H54   S    
C87   H17   S    
C49   C120  S    
C115  O17   D    
O1    Zn16  S    
O99   Zn24  S    
C18   C71   S    
C35   C145  S    
C127  H98   S    
C8    H214  S    
C224  H148  S    
C58   H153  S    
O118  Zn18  S    
C130  H107  S    
C12   C16   S    
O83   Zn7   S    
O43   Zn14  S    
C86   H16   S    
C9    H2    S    
C55   H146  S    
C180  O50   A    
O85   Zn5   S    
O73   Zn26  S    
C189  O59   A    
C193  O73   A    
C63   H168  S    
C47   C146  S    
O1    Zn30  S    
O113  Zn13  S    
C4    C56   S    
C106  O9    D    
C197  C206  S    
C50   C121  S    
O115  Zn15  S    
C212  C221  T    
C53   H135  S    
C32   C85   S    
C91   H28   S    
C36   C106  S    
O44   Zn14  S    
O96   Zn28  S    
C40   C135  S    
C135  C159  S    
C89   H26   S    
O46   Zn16  S    
C42   C95   S    
C105  H70   S    
C32   C139  S    
C49   C102  S    
C190  O62   A    
C40   C41   S    
C72   H194  S    
C107  H72   S    
O88   Zn20  S    
C95   H42   S    
C40   C110  S    
C51   C104  S    
O77   Zn26  S    
C183  O105  A    
O80   Zn27  S    
O52   Zn22  S    
C39   C124  S    
C9    C62   S    
C23   C130  S    
C199  O80   A    
O32   Zn5   S    
C176  O46   A    
C122  O25   D    
C7    H203  S    
C75   H205  S    
O93   Zn12  S    
C184  O53   A    
C41   C94   S    
C73   H199  S    
O7    Zn26  S    
O103  Zn3   S    
C204  C212  S    
O70   Zn22  S    
C178  O48   A    
C43   C96   S    
C101  C170  S    
C6    C141  S    
C103  H63   S    
C154  C155  T    
C98   H52   S    
C93   H33   S    
C35   O4    A    
C62   H165  S    
C94   H38   S    
C3    C222  S    
C3    C113  S    
C65   H175  S    
C3    H159  S    
C120  O22   D    
C6    H192  S    
C12   C147  S    
C79   C222  S    
C118  O20   D    
C78   H215  S    
C12   C65   S    
C187  O63   A    
C208  C217  T    
O41   Zn11  S    
C74   H201  S    
C116  O18   D    
C85   H11   S    
O33   Zn17  S    
O91   Zn2   S    
C97   H48   S    
C193  C213  S    
C83   H6    S    
C37   C89   S    
C70   H187  S    
C53   C223  S    
C81   H220  S    
C200  C209  S    
C22   C135  S    
C90   C223  S    
C18   C125  S    
C46   C146  S    
C59   H154  S    
O44   Zn23  S    
C24   O34   A    
C14   C149  S    
C207  C216  T    
C86   H14   S    
C20   C73   S    
C16   C151  S    
C34   C87   S    
O114  Zn14  S    
C84   H8    S    
O1    Zn1   S    
C31   C84   S    
C67   H183  S    
C92   H31   S    
C39   C109  S    
C167  C178  S    
C32   C150  S    
C44   C116  S    
O27   Zn27  S    
C111  H76   S    
C214  O118  A    
O40   Zn10  S    
C22   C23   S    
C23   C141  S    
C46   O5    A    
C175  O45   A    
C43   C47   S    
C136  H125  S    
O71   Zn24  S    
C96   H44   S    
O84   Zn8   S    
O104  Zn4   S    
C57   O37   A    
C25   C142  S    
C166  C182  S    
O48   Zn18  S    
C202  C211  S    
C1    O109  A    
C106  H71   S    
C53   H124  S    
C190  O60   A    
C72   H196  S    
C30   C147  S    
C110  O14   D    
C17   C79   S    
C108  H73   S    
C36   C88   S    
C188  O58   A    
C66   H179  S    
C26   C78   S    
C119  H83   S    
C5    C58   S    
C199  O78   A    
C45   C145  S    
O65   Zn18  S    
C36   C37   S    
O36   Zn4   S    
C119  O21   D    
O51   Zn21  S    
C20   C113  S    
C55   H144  S    
C1    O110  A    
C103  H65   S    
C183  O52   A    
C116  H80   S    
C133  H119  S    
C30   C83   S    
C47   C99   S    
C4    C124  S    
O98   Zn30  S    
C71   H190  S    
O97   Zn29  S    
C98   H50   S    
C82   H224  S    
C67   H180  S    
C3    C55   S    
C42   C114  S    
C131  H114  S    
C113  C181  S    
O77   Zn19  S    
C182  O104  A    
C177  O100  A    
C161  C185  S    
O66   Zn32  S    
C137  H130  S    
C127  H99   S    
C200  O83   A    
O67   Zn19  S    
C9    C10   S    
O106  Zn6   S    
O55   Zn27  S    
C77   H210  S    
O66   Zn18  S    
C44   C144  S    
C78   H213  S    
C191  O72   A    
C60   H158  S    
O55   Zn13  S    
C52   H79   S    
C148  O112  A    
C4    C7    S    
C129  H106  S    
C181  O115  A    
C2    O31   A    
C56   H147  S    
C114  O16   D    
C54   H143  S    
C194  C217  S    
C194  O68   A    
C83   H4    S    
C47   C118  S    
O100  Zn31  S    
C14   C66   S    
C153  C177  S    
C81   H222  S    
C48   C51   S    
C154  C174  S    
C4    H170  S    
O26   Zn23  S    
C20   C127  S    
C27   C80   S    
C33   C151  S    
O6    Zn25  S    
C46   O36   A    
C179  O102  A    
C91   H29   S    
C222  H1    S    
C96   H45   S    
C88   H22   S    
C156  C172  S    
C210  C219  T    
C89   H23   S    
C64   H171  S    
O33   Zn10  S    
C139  H136  S    
C57   O6    A    
C196  C205  S    
C31   C32   S    
C7    C142  S    
C15   C67   S    
O63   Zn16  S    
C29   C136  S    
O35   Zn3   S    
C128  H103  S    
C21   C128  S    
O38   Zn2   S    
C136  H127  S    
C35   O35   A    
C101  C224  S    
C12   H35   S    
O42   Zn13  S    
O55   Zn15  S    
C202  O87   A    
O45   Zn15  S    
C129  H104  S    
C13   C147  S    
C26   C143  S    
C204  O89   A    
C203  O29   A    
C36   C90   S    
C5    C135  S    
C21   C25   S    
O30   Zn7   S    
C65   H176  S    
C66   H177  S    
C214  O30   A    
C195  C216  S    
C198  C207  S    
C134  H122  S    
C6    C59   S    
C105  O8    D    
O78   Zn29  S    
C190  C220  S    
C80   H217  S    
C11   C146  S    
C188  C218  S    
C185  O54   A    
C169  O92   A    
C37   C101  S    
C99   H53   S    
O59   Zn11  S    
O88   Zn3   S    
C123  H88   S    
C199  C208  S    
C68   C144  S    
C115  H78   S    
C127  H97   S    
O56   Zn26  S    
C77   H212  S    
C51   C151  S    
C60   H160  S    
C130  H108  S    
C152  C153  T    
C10   H13   S    
C121  H85   S    
C49   C50   S    
C41   C111  S    
O81   Zn1   S    
C14   C15   S    
C123  H87   S    
C55   H145  S    
C24   O3    A    
O60   Zn13  S    
C138  H133  S    
C54   H141  S    
O110  Zn30  S    
C63   H167  S    
C206  C215  T    
C140  H139  S    
C162  C186  S    
C198  O76   A    
C197  O82   A    
C172  O94   A    
C43   C143  S    
O105  Zn5   S    
C174  O96   A    
C161  C162  T    
O107  Zn7   S    
C130  H109  S    
C91   H27   S    
O44   Zn11  S    
C124  C148  S    
C132  H115  S    
C52   H90   S    
C148  O13   A    
C28   C134  S    
C11   H24   S    
O33   Zn12  S    
C37   C107  S    
C139  H134  S    
C45   C98   S    
C31   C149  S    
C95   H41   S    
C176  O98   A    
C192  O28   A    
O37   Zn32  S    
C45   C117  S    
C48   C147  S    
C17   C20   S    
C173  O42   A    
O76   Zn28  S    
C18   C19   S    
C59   H156  S    
C171  O40   A    
C125  H93   S    
C159  O24   A    
C191  C215  S    
O102  Zn2   S    
C131  H110  S    
C80   H219  S    
C76   H207  S    
O74   Zn30  S    
C73   H198  S    
C123  H89   S    
C202  O85   A    
O89   Zn4   S    
C48   C119  S    
C71   H191  S    
C23   C76   S    
O111  Zn10  S    
C69   H186  S    
C30   C33   S    
C70   H189  S    
C184  O106  A    
C62   H166  S    
C104  H67   S    
C94   H39   S    
C205  C213  T    
C30   C137  S    
C158  C160  T    
C65   H174  S    
C170  O114  A    
C125  H92   S    
C48   C100  S    
C58   H151  S    
C9    C144  S    
C39   C42   S    
C78   H216  S    
C191  O65   A    
C74   H202  S    
C201  O84   A    
C85   H10   S    
C18   C90   S    
C102  H60   S    
O24   Zn29  S    
C167  C168  T    
C38   C113  S    
O28   Zn1   S    
C97   H47   S    
C87   H18   S    
C189  O61   A    
O39   Zn9   S    
C163  C183  S    
C38   C91   S    
O99   Zn21  S    
C114  H77   S    
C196  O81   A    
O72   Zn25  S    
C170  O26   A    
C27   C133  S    
C140  H138  S    
O116  Zn16  S    
C54   C224  S    
C110  H75   S    
O47   Zn17  S    
C56   H149  S    
C27   C144  S    
C31   C138  S    
C61   H162  S    
O88   Zn22  S    
C95   H40   S    
C117  H81   S    
O61   Zn14  S    
C79   C192  S    
C22   C129  S    
O4    Zn22  S    
O50   Zn20  S    
O29   Zn12  S    
O69   Zn21  S    
C7    C60   S    
C29   C146  S    
O62   Zn15  S    
C5    H181  S    
C44   C45   S    
C90   C203  S    
C155  C175  S    
C2    C151  S    
C132  H117  S    
C34   C105  S    
C138  H131  S    
C88   H20   S    
C14   H46   S    
C168  C179  S    
C83   H5    S    
C82   H3    S    
C19   C126  S    
C61   H161  S    
C21   C124  S    
C104  H69   S    
C75   H206  S    
C126  H96   S    
C137  H128  S    
C102  H62   S    
C126  H95   S    
O77   Zn8   S    
C192  O116  A    
C133  H118  S    
C100  H59   S    
O44   Zn28  S    
C160  C171  S    
C68   O38   A    
O112  Zn11  S    
C38   C108  S    
C29   C82   S    
C103  H64   S    
C1    C141  S    
C98   H51   S    
C93   H34   S    
C175  O97   A    
C62   H164  S    
C188  O64   A    
C94   H37   S    
C107  O10   D    
O90   Zn32  S    
C51   C122  S    
O99   Zn4   S    
O66   Zn25  S    
C137  H129  S    
C13   O32   A    
C15   C150  S    
C169  O39   A    
C157  C173  S    
C138  H132  S    
C34   C79   S    
C165  C166  T    
O120  Zn20  S    
C85   H12   S    
C19   C101  S    
C163  C164  T    
C204  O86   A    
C129  H105  S    
C10   C63   S    
C187  C219  S    
O92   Zn1   S    
O87   Zn3   S    
C81   H221  S    
C198  O79   A    
O31   Zn8   S    
C159  O113  A    
O54   Zn25  S    
C25   C77   S    
C209  C218  T    
C156  C157  T    
O55   Zn29  S    
C2    O119  A    
C189  C221  S    
C33   C140  S    
O82   Zn12  S    
C203  O117  A    
C111  O15   D    
C122  H86   S    
O95   Zn27  S    
C64   H172  S    
C112  C142  S    
C223  H112  S    
C84   H7    S    
C71   H193  S    
C43   C115  S    
C88   H21   S    
C194  O70   A    
C69   H184  S    
C17   C123  S    
C13   O120  A    
C187  O57   A    
O75   Zn31  S    
C42   C142  S    
C50   C103  S    
C8    C143  S    
O3    Zn21  S    
C8    C61   S    
C131  H111  S    
C96   H43   S    
C150  C214  S    
C17   C70   S    
C16   H68   S    
C201  O91   A    
C19   C72   S    
C56   H150  S    
C22   C75   S    
O58   Zn10  S    
C74   H200  S    
C193  O67   A    
C72   H195  S    
C86   H15   S    
O64   Zn17  S    
C109  O12   D    
C104  H66   S    
O79   Zn23  S    
C66   H178  S    
C61   H163  S    
O109  Zn9   S    
C134  H123  S    
C11   C64   S    
C89   H25   S    
C75   H204  S    
C126  H94   S    
C80   H218  S    
O77   Zn2   S    
C171  O93   A    
C133  H120  S    
C21   C74   S    
C139  H137  S    
C33   C86   S    
C41   C141  S    
C164  C184  S    
C82   H223  S    
O86   Zn6   S    
C93   H36   S    
C44   C97   S    
C50   C150  S    
C87   H19   S    
C117  O19   D    
O34   Zn6   S    
C174  O43   A    
C186  O56   A    
C120  H84   S    
C172  O41   A    
C109  H74   S    
C77   H211  S    
C26   C29   S    
C68   O7    A    
O94   Zn23  S    
C121  O23   D    
C128  H100  S    
C60   H157  S    
C76   H209  S    
O33   Zn31  S    
C70   H188  S    
C15   H57   S    
C64   H173  S    
C25   C131  S    
C92   H32   S    
C201  C210  S    
C112  O111  A    
C26   C132  S    
O66   Zn7   S    
C54   H142  S    
C53   H113  S    
O2    Zn31  S    
C140  H140  S    
C52   H101  S    
O13   Zn28  S    
C195  O69   A    
C28   C81   S    
C34   C38   S    
O117  Zn17  S    
C16   C69   S    
C181  O27   A    
C158  C169  S    
C108  O11   D    
C132  H116  S    
C49   C149  S    
C177  O47   A    
C84   H9    S    
O119  Zn19  S    
C67   H182  S    
C63   H169  S    
C8    C11   S    
C118  H82   S    
O99   Zn6   S    
O1    Zn9   S    
O49   Zn19  S    
C59   H155  S    
C69   H185  S    
O68   Zn20  S    
C200  O90   A    
C24   C149  S    
C10   C145  S    
C99   H55   S    
C152  C176  S    
C76   H208  S    
C57   C143  S    
C73   H197  S    
C100  H58   S    
C27   C28   S    
C165  C180  S    
C185  O107  A    
C97   H49   S    
O5    Zn24  S    
C182  O51   A    
C100  H56   S    
C196  O74   A    
C128  H102  S    
C92   H30   S    
