data_mof_unit_47611.cif
_audit_creation_date              2012-12-10T19:05:52-0500
_audit_creation_method            fapswitch 2.2
_symmetry_space_group_name_H-M    P1
_symmetry_Int_Tables_number       1
_space_group_crystal_system       triclinic
_cell_length_a                    19.363362
_cell_length_b                    10.824656
_cell_length_c                    9.531278
_cell_angle_alpha                 90.276311
_cell_angle_beta                  89.917759
_cell_angle_gamma                 90.101855
_cell_volume                      1997.74396209

loop_
_atom_site_label
_atom_site_type_symbol
_atom_type_description
_atom_site_fract_x
_atom_site_fract_y
_atom_site_fract_z
_atom_type_partial_charge
C1    C     C_R   0.498526 0.262317 0.499682 0.795925
C2    C     C_R   0.290775 0.504185 0.497542 -0.213139
C3    C     C_R   0.929264 0.525711 0.484410 0.389010
C4    C     C_R   0.069355 0.528922 0.479828 0.480056
C5    C     C_R   0.817276 0.550800 0.611859 -0.151528
C6    C     C_R   0.745460 0.542756 0.616306 -0.191824
C7    C     C_R   0.708375 0.505254 0.497224 -0.027168
C8    C     C_R   0.744248 0.476366 0.373303 -0.195795
C9    C     C_R   0.816012 0.483608 0.368982 -0.164443
C10   C     C_R   0.853262 0.520714 0.488292 0.062959
C11   C     C_R   0.491419 0.064500 0.625326 0.113979
C12   C     C_R   0.367198 0.500219 0.500029 0.825911
C13   C     C_R   0.491481 0.129311 0.499196 -0.100665
C14   C     C_R   0.482132 0.063798 0.372914 -0.223149
C15   C     C_R   0.482326 0.934972 0.373252 -0.190805
C16   C     C_R   0.492087 0.870942 0.499804 -0.113882
C17   C     C_R   0.491964 0.937322 0.625607 0.139282
C18   C     C_3   0.541361 0.932916 0.745608 -0.468005
C19   C     C_3   0.540218 0.072975 0.746116 -0.459115
C20   C     C_R   0.526116 0.598575 0.074389 0.259131
C21   C     C_R   0.469086 0.407837 0.074008 -0.090954
C22   C     C_R   0.469575 0.407394 0.925198 -0.073521
C23   C     C_R   0.498882 0.737789 0.500109 0.801561
C24   C     C_R   0.527147 0.597511 0.926716 0.220596
C25   C     C_3   0.600653 0.639495 0.924433 -0.588939
C26   C     C_3   0.598089 0.646333 0.083515 0.229838
C27   C     C_R   0.632534 0.500458 0.499633 0.766410
C28   C     C_R   0.250513 0.503645 0.621462 0.473118
C29   C     C_R   0.178925 0.517654 0.612347 -0.284913
C30   C     C_R   0.145509 0.523923 0.482083 -0.099222
C31   C     C_R   0.185564 0.522215 0.358349 0.409802
C32   C     C_R   0.257209 0.512573 0.367162 -0.283537
Cu1   Cu    Cu3+1 0.500000 0.499980 0.640670 0.959215
Cu2   Cu    Cu3+1 0.500000 0.500020 0.359330 0.950084
H1    H     H_    0.478249 0.886270 0.274072 0.198196
H2    H     H_    0.517620 0.892063 0.841025 0.216143
H3    H     H_    0.592364 0.894294 0.714641 0.187176
H4    H     H_    0.515315 0.112803 0.841228 0.193855
H5    H     H_    0.590624 0.115235 0.717098 0.201358
H6    H     H_    0.444945 0.332182 0.129312 0.139351
H7    H     H_    0.446636 0.330646 0.869214 0.123641
H8    H     H_    0.635977 0.566007 0.886303 0.174195
H9    H     H_    0.607663 0.730290 0.873299 0.207774
H10   H     H_    0.633410 0.581419 0.138391 0.103311
H11   H     H_    0.149192 0.520716 0.708666 0.196729
H12   H     H_    0.286754 0.513644 0.270557 0.208864
H13   H     H_    0.844527 0.579827 0.705538 0.155190
H14   H     H_    0.719086 0.567565 0.712266 0.138838
H15   H     H_    0.716906 0.447463 0.279671 0.141456
H16   H     H_    0.842206 0.460300 0.271984 0.157424
H17   H     H_    0.478011 0.111378 0.273577 0.161735
N1    N     N_R   0.033153 0.479292 0.371629 -0.152193
N2    N     N_R   0.964498 0.478167 0.373539 -0.226894
N3    N     N_R   0.965420 0.574974 0.593014 -0.233474
N4    N     N_R   0.034100 0.576387 0.590830 -0.227528
N5    N     N_R   0.500440 0.500930 0.147930 -0.218019
N6    N     N_R   0.500440 0.500890 0.852020 -0.175370
O1    O     O_R   0.500000 0.319640 0.618810 -0.589473
O2    O     O_R   0.500010 0.319680 0.381230 -0.589983
O3    O     O_R   0.400140 0.499970 0.618830 -0.541372
O4    O     O_R   0.400150 0.500010 0.381250 -0.584329
O5    O     O_R   0.499990 0.680320 0.618770 -0.572712
O6    O     O_R   0.500000 0.680360 0.381190 -0.563345
O7    O     O_R   0.599850 0.499990 0.618750 -0.576455
O8    O     O_R   0.599860 0.500030 0.381170 -0.595346
O9    O     O_3   0.280337 0.499101 0.753083 -0.576042
C33   C     C_3   0.287896 0.374512 0.794987 0.079034
H18   H     H_    0.328854 0.372942 0.875889 0.170352
H19   H     H_    0.305565 0.312903 0.707840 0.110843
C34   C     C_3   0.221520 0.324160 0.861915 -0.368925
H20   H     H_    0.201486 0.391998 0.939655 0.283473
H21   H     H_    0.181698 0.309228 0.779842 0.212209
C35   C     C_3   0.234552 0.201503 0.935514 -0.855426
H22   H     H_    0.272471 0.214010 0.021821 0.249411
H23   H     H_    0.185455 0.166510 0.980824 0.276530
H24   H     H_    0.254588 0.132050 0.859608 0.253151
O10   O     O_3   0.598099 0.769547 0.133462 -0.595734
C36   C     C_3   0.665788 0.808102 0.168741 0.078170
H25   H     H_    0.674459 0.900663 0.122013 0.158644
H26   H     H_    0.707387 0.747023 0.126224 0.125939
C37   C     C_3   0.671924 0.819580 0.328260 -0.344983
H27   H     H_    0.637187 0.894159 0.366404 0.223012
H28   H     H_    0.655418 0.731936 0.377568 0.222872
C38   C     C_3   0.745775 0.848435 0.373328 -0.895571
H29   H     H_    0.781042 0.773010 0.339858 0.269044
H30   H     H_    0.747999 0.856721 0.489387 0.257339
H31   H     H_    0.763280 0.936902 0.326573 0.258015
Cl1   Cl    Cl    0.149679 0.540190 0.189794 -0.606370

loop_
_geom_bond_atom_site_label_1
_geom_bond_atom_site_label_2
_ccdc_geom_bond_type
C8    C9    A    
Cu2   N5    S    
Cu1   O1    S    
C3    N2    A    
C35   H22   S    
C38   H31   S    
C20   N5    A    
C2    C12   S    
C25   H9    S    
C22   N6    A    
C37   H27   S    
C26   H10   S    
C7    C8    A    
O10   C36   S    
C5    H13   S    
C11   C19   S    
C6    H14   S    
C4    N1    A    
C5    C6    A    
C28   C29   A    
C18   H3    S    
C38   H30   S    
C1    O2    A    
C30   C31   A    
C3    N3    A    
C36   H26   S    
C22   H7    S    
C15   C16   A    
C7    C27   S    
C2    C32   A    
C18   C19   S    
C23   O5    A    
C31   C32   A    
C24   N6    A    
C34   H20   S    
C9    C10   A    
C23   O6    A    
O9    C33   S    
C21   C22   A    
C35   H23   S    
Cu2   O8    S    
C15   H1    S    
C37   H28   S    
Cu1   Cu2   S    
C26   O10   S    
C33   H18   S    
C20   C24   A    
C38   H29   S    
C36   H25   S    
Cu1   O5    S    
C25   C26   S    
Cu2   O4    S    
C29   H11   S    
C33   H19   S    
C28   O9    S    
C29   C30   A    
C27   O8    A    
C19   H4    S    
C14   H17   S    
C34   C35   S    
C17   C18   S    
C24   C25   S    
C19   H5    S    
Cu1   O3    S    
C4    N4    A    
Cu2   O2    S    
C35   H24   S    
C1    C13   S    
C37   C38   S    
N1    N2    A    
N3    N4    A    
C11   C17   A    
Cu1   N6    S    
C31   Cl1   S    
C32   H12   S    
C9    H16   S    
C25   H8    S    
C21   N5    A    
C34   H21   S    
C6    C7    A    
C16   C23   S    
C33   C34   S    
C5    C10   A    
C3    C10   S    
C1    O1    A    
C12   O4    A    
C11   C13   A    
C36   C37   S    
C16   C17   A    
C21   H6    S    
C20   C26   S    
Cu1   O7    S    
Cu2   O6    S    
C27   O7    A    
C12   O3    A    
C14   C15   A    
C2    C28   A    
C13   C14   A    
C18   H2    S    
C8    H15   S    
C4    C30   S    
