data_mof_unit_47294.cif
_audit_creation_date              2012-12-11T17:47:24-0500
_audit_creation_method            fapswitch 2.2
_symmetry_space_group_name_H-M    P1
_symmetry_Int_Tables_number       1
_space_group_crystal_system       triclinic
_cell_length_a                    14.881758
_cell_length_b                    14.933018
_cell_length_c                    15.150293
_cell_angle_alpha                 110.488914
_cell_angle_beta                  108.93407
_cell_angle_gamma                 108.68949
_cell_volume                      2600.81690518

loop_
_atom_site_label
_atom_site_type_symbol
_atom_type_description
_atom_site_fract_x
_atom_site_fract_y
_atom_site_fract_z
_atom_type_partial_charge
C1    C     C_R   0.908649 0.195689 0.994685 -0.111806
C2    C     C_R   0.830115 0.960972 0.919987 -0.178709
C3    C     C_R   0.117439 0.056077 0.724144 -0.333382
C4    C     C_R   0.864537 0.980990 0.221379 -0.347029
C5    C     C_R   0.032270 0.990408 0.732504 0.510316
C6    C     C_R   0.893706 0.969611 0.140114 0.556314
C7    C     C_R   0.672518 0.323725 0.198764 -0.103693
C8    C     C_R   0.396815 0.690253 0.881174 -0.118159
C9    C     C_R   0.777185 0.390153 0.288791 -0.098108
C10   C     C_R   0.305092 0.612867 0.779693 -0.120120
C11   C     C_R   0.843941 0.344675 0.314788 0.097985
C12   C     C_R   0.025657 0.751961 0.939012 -0.114934
C13   C     C_R   0.257571 0.646389 0.710061 0.098726
C14   C     C_R   0.804617 0.232110 0.249607 -0.191693
C15   C     C_R   0.306511 0.758166 0.741865 -0.157737
C16   C     C_R   0.297347 0.803235 0.207603 -0.139096
C17   C     C_R   0.685445 0.247188 0.776256 -0.109853
C18   C     C_R   0.700117 0.166123 0.159364 -0.104853
C19   C     C_R   0.399465 0.835216 0.842951 -0.097774
C20   C     C_R   0.634005 0.211911 0.134014 -0.126403
C21   C     C_R   0.443905 0.801455 0.913003 -0.116029
C22   C     C_R   0.965572 0.415601 0.504116 -0.244487
C23   C     C_R   0.301705 0.864602 0.303140 0.091931
C24   C     C_R   0.143902 0.563780 0.511938 -0.242340
C25   C     C_R   0.062141 0.491787 0.601710 0.067294
C26   C     C_R   0.045227 0.490199 0.415314 0.076701
C27   C     C_R   0.153681 0.565840 0.607072 0.025462
C28   C     C_R   0.954775 0.415017 0.410789 0.015133
C29   C     C_R   0.046405 0.014375 0.835729 0.010902
C30   C     C_R   0.817645 0.883327 0.032574 0.012428
C31   C     C_R   0.236542 0.147270 0.917069 -0.146606
C32   C     C_R   0.686541 0.823913 0.089749 -0.130697
C33   C     C_R   0.086607 0.956615 0.382224 -0.166007
C34   C     C_R   0.678284 0.225486 0.676082 0.054985
C35   C     C_R   0.835970 0.050334 0.555049 -0.148858
C36   C     C_R   0.189570 0.011491 0.394453 0.535435
C37   C     C_R   0.734966 0.038464 0.542757 0.557476
C38   C     C_R   0.281454 0.023731 0.476110 -0.062018
C39   C     C_R   0.683255 0.079109 0.482654 -0.082038
C40   C     C_R   0.224283 0.407967 0.975061 -0.048259
C41   C     C_R   0.786267 0.590678 0.091756 -0.129745
C42   C     C_R   0.268778 0.989336 0.548779 -0.204119
C43   C     C_R   0.729859 0.121298 0.429198 -0.212888
C44   C     C_R   0.165156 0.933320 0.533888 -0.142930
C45   C     C_R   0.325224 0.500067 0.049184 0.072708
C46   C     C_R   0.829578 0.129527 0.440725 -0.133564
C47   C     C_R   0.074062 0.916463 0.450335 -0.235450
C48   C     C_R   0.882891 0.094668 0.503930 -0.245765
C49   C     C_R   0.480475 0.137593 0.562827 -0.244223
C50   C     C_R   0.488917 0.002674 0.387564 -0.242553
C51   C     C_R   0.580858 0.152146 0.570302 0.067062
C52   C     C_R   0.389673 0.975997 0.386505 0.066702
C53   C     C_R   0.584599 0.084359 0.479898 0.035064
C54   C     C_R   0.384049 0.047926 0.472504 0.027952
C55   C     C_R   0.219665 0.132475 0.815670 -0.083571
C56   C     C_R   0.693642 0.498597 0.057732 0.106879
C57   C     C_R   0.761741 0.907656 0.196183 -0.107471
C58   C     C_R   0.841030 0.882700 0.944970 0.084419
C59   C     C_R   0.954007 0.960645 0.849210 0.121795
C60   C     C_R   0.149629 0.090329 0.927619 -0.236576
C61   C     C_R   0.713667 0.811411 0.007751 -0.266306
C62   C     C_R   0.899567 0.834113 0.908664 0.031949
C63   C     C_R   0.903203 0.014728 0.893056 0.073066
C64   C     C_R   0.054401 0.590758 0.314039 -0.128187
C65   C     C_R   0.002439 0.408017 0.700499 -0.163707
C66   C     C_3   0.491183 0.392883 0.015330 -0.370899
C67   C     C_R   0.034609 0.496870 0.321055 0.042529
C68   C     C_3   0.537486 0.603935 0.123500 -0.330830
C69   C     C_3   0.438269 0.450033 0.969108 0.619156
C70   C     C_3   0.591501 0.546837 0.170018 0.615932
C71   C     C_3   0.426833 0.500081 0.068957 0.070419
C72   C     C_3   0.601251 0.496869 0.069573 0.082156
C73   C     C_3   0.480441 0.443857 0.117892 -0.351945
C74   C     C_3   0.546779 0.552302 0.020888 -0.335650
C75   C     C_R   0.314971 0.592066 0.065205 -0.134328
C76   C     C_R   0.696621 0.407796 0.998817 -0.158827
C77   C     C_R   0.972155 0.406801 0.218770 -0.101730
C78   C     C_R   0.055621 0.498070 0.695571 0.060859
C79   C     C_R   0.087937 0.590635 0.788310 -0.123066
C80   C     C_R   0.210685 0.799755 0.302619 -0.129931
C81   C     C_R   0.782135 0.263729 0.691222 -0.108032
C82   C     C_R   0.996736 0.195639 0.901146 -0.129442
C83   C     C_R   0.931401 0.748697 0.028228 -0.080334
C84   C     C_R   0.937842 0.131451 0.930482 0.085828
C85   C     C_R   0.947367 0.777942 0.955006 0.081442
C86   C     C_R   0.934327 0.860347 0.841151 -0.181550
H1    H     H_    0.850700 0.169107 0.020585 0.092439
H2    H     H_    0.429931 0.663461 0.935180 0.125727
H3    H     H_    0.806241 0.476750 0.338148 0.146639
H4    H     H_    0.269404 0.527142 0.756618 0.145440
H5    H     H_    0.856392 0.196536 0.266146 0.116275
H6    H     H_    0.271044 0.786039 0.689853 0.108535
H7    H     H_    0.670784 0.079739 0.108709 0.113493
H8    H     H_    0.436006 0.921338 0.867716 0.102397
H9    H     H_    0.894325 0.362171 0.501956 0.139781
H10   H     H_    0.212302 0.620242 0.513020 0.133917
H11   H     H_    0.452960 0.402143 0.159503 0.148158
H12   H     H_    0.060441 0.764691 0.889429 0.092524
H13   H     H_    0.572331 0.590710 0.976242 0.146680
H14   H     H_    0.345039 0.831964 0.172912 0.093092
H15   H     H_    0.619448 0.227865 0.794132 0.088375
H16   H     H_    0.162034 0.106367 0.007311 0.164153
H17   H     H_    0.653024 0.747879 0.924877 0.151357
H18   H     H_    0.993469 0.871368 0.437573 0.149853
H19   H     H_    0.961311 0.103306 0.514482 0.146465
H20   H     H_    0.015385 0.940580 0.316492 0.148627
H21   H     H_    0.879210 0.027201 0.606624 0.175978
H22   H     H_    0.337728 0.996644 0.610558 0.135020
H23   H     H_    0.104239 0.048864 0.647203 0.150808
H24   H     H_    0.691317 0.152146 0.382604 0.154262
H25   H     H_    0.155210 0.900726 0.585699 0.139451
H26   H     H_    0.867520 0.165886 0.403436 0.132253
H27   H     H_    0.477290 0.190393 0.630982 0.129817
H28   H     H_    0.495604 0.949295 0.322988 0.129158
H29   H     H_    0.969284 0.817979 0.802294 0.132269
H30   H     H_    0.782770 0.995012 0.945193 0.111918
H31   H     H_    0.473543 0.307239 0.969726 0.130659
H32   H     H_    0.557092 0.689934 0.171378 0.135980
H33   H     H_    0.205224 0.323389 0.940831 0.128341
H34   H     H_    0.921609 0.046728 0.304131 0.127049
H35   H     H_    0.812880 0.674374 0.148868 0.123488
H36   H     H_    0.096768 0.674504 0.379640 0.108121
H37   H     H_    0.978610 0.324181 0.647276 0.127456
H38   H     H_    0.378685 0.676753 0.113761 0.097092
H39   H     H_    0.642324 0.323465 0.970698 0.097702
H40   H     H_    0.943911 0.321905 0.195719 0.113266
H41   H     H_    0.140419 0.674833 0.814597 0.108731
H42   H     H_    0.182841 0.819411 0.359625 0.125250
H43   H     H_    0.807202 0.269698 0.633831 0.117724
H44   H     H_    0.013733 0.168531 0.835688 0.111620
H45   H     H_    0.315728 0.205583 0.988063 0.132654
H46   H     H_    0.876002 0.753419 0.058127 0.102002
H47   H     H_    0.285535 0.180030 0.807745 0.147001
H48   H     H_    0.739550 0.916427 0.258801 0.149957
H49   H     H_    0.941392 0.894723 0.576881 0.308349
H50   H     H_    0.036138 0.099688 0.240705 0.331709
H51   H     H_    0.272947 0.091674 0.345506 0.317379
H52   H     H_    0.617556 0.978510 0.571494 0.316184
H53   H     H_    0.387532 0.375509 0.816537 0.300872
H54   H     H_    0.647108 0.621719 0.323198 0.318060
H55   H     H_    0.606123 0.770726 0.070925 0.120099
H56   H     H_    0.553104 0.160893 0.064078 0.101714
H57   H     H_    0.514377 0.861712 0.992037 0.110760
H58   H     H_    0.621226 0.358881 0.179270 0.141763
N1    N     N_R   0.947560 0.293820 0.002910 -0.048077
N2    N     N_R   0.789450 0.443190 0.997090 -0.041528
N3    N     N_R   0.945970 0.443180 0.152110 -0.042157
N4    N     N_R   0.054030 0.556820 0.847890 -0.042898
N5    N     N_R   0.151530 0.706170 0.208880 -0.044528
N6    N     N_R   0.848470 0.293830 0.791120 -0.040626
N7    N     N_R   0.004980 0.293810 0.946140 -0.051179
N8    N     N_R   0.995020 0.706190 0.053860 -0.044751
N9    N     N_R   0.052440 0.706180 0.997090 -0.043561
N10   N     N_R   0.208960 0.706170 0.152110 -0.042039
N11   N     N_R   0.791040 0.293830 0.847890 -0.039944
N12   N     N_R   0.154330 0.443160 0.946140 -0.049295
N13   N     N_R   0.845670 0.556840 0.053860 -0.051877
N14   N     N_R   0.002190 0.556820 0.208880 -0.040767
N15   N     N_R   0.997810 0.443180 0.791120 -0.043294
N16   N     N_R   0.210550 0.556810 0.002910 -0.043332
Ni1   Ni    Ni4+2 0.869690 0.369690 0.000000 0.218875
Ni2   Ni    Ni4+2 0.130310 0.630310 0.000000 0.218515
Ni3   Ni    Ni4+2 0.001390 0.369680 0.869810 0.224711
Ni4   Ni    Ni4+2 0.998610 0.630320 0.130190 0.227524
O1    O     O_3   0.935330 0.904073 0.642405 -0.764142
O2    O     O_3   0.994258 0.042910 0.162815 -0.743966
O3    O     O_3   0.195600 0.044565 0.321148 -0.753221
O4    O     O_3   0.693194 0.992182 0.594758 -0.755940
O5    O     O_3   0.355733 0.399660 0.862324 -0.786672
O6    O     O_3   0.676831 0.597461 0.275231 -0.774375

loop_
_geom_bond_atom_site_label_1
_geom_bond_atom_site_label_2
_ccdc_geom_bond_type
C75   N16   A    
C1    H1    S    
C49   H27   S    
C6    O2    S    
C58   C62   A    
C56   C76   A    
C46   H26   S    
C45   C71   S    
C22   H9    S    
C14   C18   A    
C1    N1    A    
C67   C77   A    
C24   C27   A    
C12   N9    A    
C65   N15   A    
N2    N13   A    
C6    C30   A    
N11   Ni1   S    
C1    C84   A    
C73   H11   S    
N6    Ni3   S    
C62   C86   A    
C34   C51   S    
C42   C44   A    
C12   C85   A    
C26   C67   S    
C19   C21   A    
C24   C26   A    
C32   C61   A    
C38   C42   A    
C24   H10   S    
C11   C14   A    
C66   C69   S    
C68   C74   S    
C81   N6    A    
C33   C36   A    
H52   O4    S    
C41   H35   S    
C69   C71   S    
C17   H15   S    
C31   H45   S    
C68   H32   S    
C15   H6    S    
C2    H30   S    
C66   C72   S    
C29   C59   S    
N12   Ni3   S    
C49   C51   A    
C66   H31   S    
C4    C57   A    
C50   C52   A    
C65   C78   A    
C43   H24   S    
C5    O1    S    
C23   C80   A    
C82   H44   S    
C77   N3    A    
C12   H12   S    
C82   N7    A    
C44   C47   A    
N14   Ni4   S    
N7    Ni3   S    
C76   N2    A    
C22   C28   A    
C76   H39   S    
C40   C45   A    
C3    C55   A    
C32   C57   A    
C60   H16   S    
C35   C48   A    
C7    H58   S    
N2    Ni1   S    
C52   C54   A    
C37   O4    S    
C5    C29   A    
C80   N5    A    
C62   C85   S    
C46   C48   A    
C50   C53   A    
C75   H38   S    
C64   C67   A    
C20   H56   S    
N12   N16   A    
C21   H57   S    
C72   C74   S    
N3    Ni1   S    
C74   H13   S    
C9    H3    S    
C71   C73   S    
C78   C79   A    
C16   H14   S    
C39   C43   A    
C80   H42   S    
C56   C72   S    
C55   H47   S    
C66   C73   S    
C22   C25   A    
C36   O3    S    
C25   C78   S    
C86   H29   S    
C50   H28   S    
N4    N15   A    
N16   Ni2   S    
C31   C60   A    
C15   C19   A    
N5    N10   A    
C41   C56   A    
N1    Ni1   S    
C81   H43   S    
C48   H19   S    
C38   C54   S    
C29   C60   A    
C70   C73   S    
C8    C21   A    
H49   O1    S    
C69   C74   S    
N5    Ni4   S    
C69   O5    S    
C13   C27   S    
C9    C11   A    
N13   Ni4   S    
C32   H55   S    
N8    Ni4   S    
C19   H8    S    
C41   N13   A    
C4    C6    A    
C83   C85   A    
C16   C23   A    
C82   C84   A    
N6    N11   A    
C13   C15   A    
C16   N10   A    
C33   C47   A    
N15   Ni3   S    
C57   H48   S    
C17   C34   A    
C17   N11   A    
H51   O3    S    
C2    C63   A    
C35   C37   A    
C83   N8    A    
C7    C9    A    
C79   H41   S    
H54   O6    S    
C47   H18   S    
C61   H17   S    
C26   C28   A    
N10   Ni2   S    
C8    C10   A    
C40   N12   A    
C33   H20   S    
C3    C5    A    
C10   C13   A    
C2    C58   A    
C79   N4    A    
N1    N7    A    
C25   C27   A    
C63   C84   S    
C59   C63   A    
N9    Ni2   S    
C45   C75   A    
N4    Ni2   S    
C31   C55   A    
C36   C38   A    
C70   O6    S    
C59   C86   A    
C83   H46   S    
C37   C39   A    
C23   C52   S    
C39   C53   S    
H50   O2    S    
C11   C28   S    
C3    H23   S    
C68   C71   S    
C64   H36   S    
C30   C58   S    
H53   O5    S    
C18   C20   A    
C65   H37   S    
C43   C46   A    
C14   H5    S    
C35   H21   S    
C51   C53   A    
C44   H25   S    
C40   H33   S    
N8    N9    A    
C10   H4    S    
C68   C70   S    
C7    C20   A    
C30   C61   A    
C64   N14   A    
C18   H7    S    
C4    H34   S    
C70   C72   S    
C8    H2    S    
N3    N14   A    
C42   H22   S    
C34   C81   A    
C77   H40   S    
C49   C54   A    
