data_mof_unit_21618.cif
_audit_creation_date              2013-03-05T16:01:17-0500
_audit_creation_method            fapswitch 2.2
_symmetry_space_group_name_H-M    P1
_symmetry_Int_Tables_number       1
_space_group_crystal_system       triclinic
_cell_length_a                    14.719247
_cell_length_b                    14.735032
_cell_length_c                    17.200894
_cell_angle_alpha                 106.191919
_cell_angle_beta                  72.713887
_cell_angle_gamma                 115.149155
_cell_volume                      3173.85657282

loop_
_atom_site_label
_atom_site_type_symbol
_atom_site_description
_atom_site_fract_x
_atom_site_fract_y
_atom_site_fract_z
_atom_type_partial_charge
O1    O     O_R   0.020090 0.662480 0.528530 -0.586827
O2    O     O_R   0.979910 0.337520 0.471470 -0.586364
O3    O     O_R   0.160710 0.620650 0.491980 -0.591913
O4    O     O_R   0.839290 0.379350 0.508020 -0.594060
C1    C     C_R   0.118769 0.688204 0.513826 0.809768
C2    C     C_R   0.881204 0.311902 0.487034 0.805770
O5    O     O_R   0.921540 0.523360 0.633990 -0.582802
O6    O     O_R   0.078460 0.476640 0.366010 -0.579843
O7    O     O_R   0.062170 0.481520 0.597440 -0.574787
O8    O     O_R   0.937830 0.518480 0.402560 -0.575164
C3    C     C_R   0.988118 0.501841 0.652552 0.788633
C4    C     C_R   0.010027 0.495079 0.347140 0.795669
Cu1   Cu    Cu3+1 0.916740 0.524770 0.521640 0.951437
Cu2   Cu    Cu3+1 0.083260 0.475230 0.478360 0.955456
C5    C     C_R   0.974117 0.493105 0.737582 -0.023403
C6    C     C_R   0.011281 0.482598 0.260147 -0.032253
C7    C     C_R   0.057419 0.537437 0.776791 -0.170171
C8    C     C_R   0.992629 0.551976 0.231890 -0.161171
C9    C     C_R   0.042895 0.526976 0.857958 -0.094891
C10   C     C_R   0.992841 0.538153 0.148513 -0.096273
C11   C     C_R   0.945969 0.467739 0.898956 0.124122
C12   C     C_R   0.006698 0.452046 0.093574 0.122225
C13   C     C_R   0.862577 0.424661 0.859567 -0.066016
C14   C     C_R   0.026619 0.383539 0.122147 -0.061490
C15   C     C_R   0.876392 0.438230 0.779480 -0.196977
C16   C     C_R   0.029969 0.399342 0.204930 -0.198319
C17   C     C_2   0.930956 0.452161 0.983717 0.152436
C18   C     C_2   0.002674 0.434429 0.005659 0.154214
H1    H     H_    0.132916 0.581077 0.745059 0.134989
H2    H     H_    0.979511 0.617301 0.273985 0.155948
H3    H     H_    0.044345 0.345091 0.226391 0.143702
H4    H     H_    0.811513 0.403485 0.749301 0.150708
H5    H     H_    0.787251 0.379421 0.890317 0.170025
H6    H     H_    0.038241 0.317225 0.080677 0.169031
H7    H     H_    0.981169 0.594078 0.127031 0.154939
H8    H     H_    0.107511 0.564095 0.888431 0.150912
C19   C     C_R   0.185409 0.796587 0.522377 -0.054935
C20   C     C_R   0.813868 0.204469 0.486548 -0.056295
C21   C     C_R   0.211589 0.974485 0.537227 0.012574
C22   C     C_R   0.784547 0.030960 0.492203 0.011327
C23   C     C_R   0.146403 0.871997 0.534250 -0.273414
C24   C     C_R   0.851141 0.131593 0.486282 -0.270656
C25   C     C_R   0.289763 0.823812 0.516482 -0.244930
C26   C     C_R   0.709683 0.176788 0.491741 -0.236798
C27   C     C_R   0.356990 0.926017 0.525223 0.067100
C28   C     C_R   0.638898 0.079579 0.505215 0.067751
C29   C     C_R   0.317812 0.002498 0.534022 0.130297
C30   C     C_R   0.676905 0.004940 0.504368 0.129937
C31   C     C_R   0.462921 0.953206 0.522733 0.082346
C32   C     C_R   0.531322 0.055153 0.519035 0.080434
C33   C     C_R   0.489581 0.130125 0.532757 -0.239805
C34   C     C_R   0.502054 0.882475 0.526788 -0.234098
C35   C     C_R   0.385303 0.104465 0.541644 -0.168361
C36   C     C_R   0.606142 0.908287 0.519102 -0.171139
H9    H     H_    0.359037 0.166417 0.555155 0.204318
H10   H     H_    0.629401 0.851283 0.526263 0.199137
H11   H     H_    0.685659 0.233110 0.484716 0.146691
H12   H     H_    0.317607 0.763167 0.502687 0.155073
H13   H     H_    0.932678 0.152959 0.480718 0.161678
H14   H     H_    0.065370 0.850491 0.537364 0.154071
H15   H     H_    0.535016 0.210580 0.540568 0.148166
H16   H     H_    0.453502 0.807111 0.539637 0.139065
N1    N     N_R   0.208390 0.438070 0.445820 -0.181339
N2    N     N_R   0.791610 0.561930 0.554180 -0.181363
C37   C     C_R   0.291525 0.323612 0.366487 -0.250837
C38   C     C_R   0.708215 0.676069 0.633871 -0.287638
C39   C     C_R   0.209843 0.355747 0.386170 0.092733
C40   C     C_R   0.790264 0.644379 0.613719 0.090201
C41   C     C_R   0.286778 0.492006 0.487354 0.030061
C42   C     C_R   0.712797 0.507508 0.513150 0.023554
C43   C     C_R   0.373030 0.463684 0.469813 -0.020849
C44   C     C_R   0.626157 0.535353 0.531195 -0.012690
C45   C     C_R   0.372891 0.376696 0.408327 0.162185
C46   C     C_R   0.626358 0.622409 0.592618 0.175049
C47   C     C_R   0.458059 0.517142 0.511099 0.089817
C48   C     C_R   0.540800 0.481504 0.490306 0.076477
C49   C     C_R   0.535164 0.393168 0.429607 -0.219544
C50   C     C_R   0.463364 0.605077 0.572204 -0.219098
C51   C     C_R   0.453257 0.342489 0.389392 -0.138764
C52   C     C_R   0.545517 0.656052 0.612122 -0.185243
H17   H     H_    0.452672 0.275211 0.342979 0.157331
H18   H     H_    0.545980 0.723206 0.658659 0.142721
H19   H     H_    0.720575 0.444317 0.465758 0.124735
H20   H     H_    0.278965 0.555216 0.534709 0.117454
H21   H     H_    0.853955 0.686576 0.644880 0.128960
H22   H     H_    0.146452 0.313925 0.354636 0.124461
H23   H     H_    0.290638 0.256976 0.319266 0.150188
H24   H     H_    0.709168 0.742774 0.681027 0.142593
H25   H     H_    0.593070 0.360662 0.411677 0.137207
H26   H     H_    0.404947 0.636977 0.590757 0.123325
N3    N     N_R   0.078231 0.400662 0.943969 0.101216
O9    O     O_R   0.169832 0.428971 0.957139 -0.349489
O10   O     O_R   0.052712 0.333559 0.878707 -0.343128
N4    N     N_R   0.839885 0.458794 0.042777 0.102462
O11   O     O_R   0.798968 0.519340 0.037935 -0.344829
O12   O     O_R   0.791834 0.396956 0.095808 -0.342241
C53   C     C_2   0.164158 0.047124 0.540937 0.341339
H27   H     H_    0.084700 0.032272 0.572170 0.071161
O13   O     O_2   0.209864 0.119621 0.504848 -0.552573
C54   C     C_2   0.832564 0.957575 0.485071 0.332751
H28   H     H_    0.904399 0.984490 0.505175 0.071138
O14   O     O_2   0.797014 0.868705 0.452132 -0.536285

loop_
_geom_bond_atom_site_label_1
_geom_bond_atom_site_label_2
_geom_bond_distance
_ccdc_geom_bond_type
C38   C40   1.391750 A    
C47   C48   1.437683 A    
C1    C19   1.468856 S    
C7    H1    1.083623 S    
C35   H9    1.079384 S    
C33   H15   1.077695 S    
C44   C48   1.438520 A    
C53   H27   1.085819 S    
C21   C23   1.399405 A    
C50   H26   1.076539 S    
O5    C3    1.292038 A    
C49   H25   1.076753 S    
O1    C1    1.297908 A    
N2    C40   1.356353 A    
C9    C11   1.407676 A    
C14   C16   1.389719 A    
C20   C24   1.396656 A    
C9    H8    1.082919 S    
C38   H24   1.083807 S    
C50   C52   1.389848 A    
C21   C53   1.485822 S    
C38   C46   1.402099 A    
C37   C45   1.402209 A    
C5    C7    1.396411 A    
O4    Cu1   1.936095 S    
C41   C43   1.424573 A    
C25   H12   1.076112 S    
C10   H7    1.083052 S    
C3    C5    1.449671 S    
C4    C6    1.451301 S    
C26   C28   1.401489 A    
C13   H5    1.083230 S    
C2    C20   1.467088 S    
C8    H2    1.083640 S    
N2    C42   1.366429 A    
C29   C35   1.400155 A    
C15   H4    1.083696 S    
C49   C51   1.389941 A    
C11   C17   1.476230 S    
C16   H3    1.083892 S    
C46   C52   1.394844 A    
Cu1   Cu2   2.688488 S    
C40   H21   1.081706 S    
O2    C2    1.297725 A    
C53   O13   1.220616 D    
C34   C36   1.386305 A    
C37   H23   1.083796 S    
N1    C39   1.356294 A    
C27   C29   1.425078 A    
C6    C16   1.401597 A    
C36   H10   1.079386 S    
N1    C41   1.366426 A    
C48   C49   1.411735 A    
C44   C46   1.415816 A    
N3    O9    1.301542 A    
C43   C45   1.415811 A    
C37   C39   1.391726 A    
C14   H6    1.083391 S    
C33   C35   1.386277 A    
C19   C25   1.391750 A    
C30   C36   1.400370 A    
O7    Cu2   1.959878 S    
C20   C26   1.390433 A    
N3    O10   1.301835 A    
O7    C3    1.296691 A    
C27   C31   1.425640 A    
C26   H11   1.076633 S    
O6    C4    1.292244 A    
C31   C34   1.413355 A    
C54   O14   1.220496 D    
C32   C33   1.413805 A    
C45   C51   1.394878 A    
N4    O12   1.301888 A    
C42   H19   1.075380 S    
C25   C27   1.401898 A    
O3    Cu2   1.936096 S    
O8    C4    1.297307 A    
C52   H18   1.084304 S    
C10   C12   1.407540 A    
C11   C13   1.400273 A    
C12   C14   1.400172 A    
O4    C2    1.298989 A    
O1    Cu1   1.948090 S    
C21   C29   1.425111 A    
C22   C30   1.425679 A    
C39   H22   1.081777 S    
O6    Cu2   1.960827 S    
C23   H14   1.084515 S    
O3    C1    1.299605 A    
O8    Cu1   1.959878 S    
C24   H13   1.084459 S    
C22   C54   1.485917 S    
C42   C44   1.424600 A    
C28   C32   1.425814 A    
C51   H17   1.084263 S    
C41   H20   1.075400 S    
C34   H16   1.077605 S    
C43   C47   1.438579 A    
Cu1   N2    2.019655 S    
Cu2   N1    2.019655 S    
C22   C24   1.399808 A    
C54   H28   1.085935 S    
C7    C9    1.390429 A    
C18   N3    1.443942 S    
C8    C10   1.390424 A    
C13   C15   1.389820 A    
C19   C23   1.397160 A    
N4    O11   1.301352 A    
O2    Cu2   1.948091 S    
C47   C50   1.411708 A    
C5    C15   1.400950 A    
C28   C30   1.425453 A    
O5    Cu1   1.960827 S    
C6    C8    1.397008 A    
C31   C32   1.415644 A    
C17   C18   1.360610 D    
C17   N4    1.444031 S    
C12   C18   1.476107 S    
