data_mof_unit_65212.cif
_audit_creation_date              2012-12-10T18:05:57-0500
_audit_creation_method            fapswitch 2.2
_symmetry_space_group_name_H-M    P1
_symmetry_Int_Tables_number       1
_space_group_crystal_system       triclinic
_cell_length_a                    21.661485
_cell_length_b                    21.661514
_cell_length_c                    30.174778
_cell_angle_alpha                 90.001328
_cell_angle_beta                  90.00072
_cell_angle_gamma                 90.000543
_cell_volume                      14158.6262432

loop_
_atom_site_label
_atom_site_type_symbol
_atom_type_description
_atom_site_fract_x
_atom_site_fract_y
_atom_site_fract_z
_atom_type_partial_charge
C1    C     C_R   0.120341 0.500000 0.500000 1.022445
C2    C     C_R   0.380025 0.500000 0.500000 0.849796
C3    C     C_R   0.985156 0.554491 0.843507 0.271254
C4    C     C_R   0.554485 0.985154 0.156497 0.271245
C5    C     C_R   0.014849 0.554486 0.156497 0.271250
C6    C     C_R   0.445510 0.014855 0.156494 0.271248
C7    C     C_R   0.985152 0.445509 0.156494 0.271248
C8    C     C_R   0.000000 0.499998 0.366226 -0.372235
C9    C     C_R   0.499998 0.000002 0.366226 -0.372234
C10   C     C_R   0.000002 0.500003 0.633774 -0.372232
C11   C     C_R   0.500001 0.999998 0.633773 -0.372235
C12   C     C_R   0.500002 0.999997 0.866226 -0.372227
C13   C     C_R   0.500000 0.619975 0.500000 0.849801
C14   C     C_R   0.999999 0.500001 0.866226 -0.372229
C15   C     C_R   0.499998 0.000003 0.133773 -0.372233
C16   C     C_R   0.000001 0.499998 0.133773 -0.372228
C17   C     C_R   0.999999 0.499997 0.274167 -0.156355
C18   C     C_R   0.499992 0.000003 0.274167 -0.156373
C19   C     C_R   0.000005 0.500007 0.725833 -0.156368
C20   C     C_R   0.500005 0.999995 0.725833 -0.156355
C21   C     C_R   0.500005 0.999993 0.774167 -0.156355
C22   C     C_R   0.000004 0.500005 0.774167 -0.156372
C23   C     C_R   0.499994 0.000005 0.225833 -0.156374
C24   C     C_R   0.619976 0.500000 0.500000 0.849795
C25   C     C_R   0.999999 0.499997 0.225833 -0.156359
C26   C     C_3   0.143237 0.475793 0.265918 0.130901
C27   C     C_3   0.208272 0.494775 0.252794 -0.777692
C28   C     C_3   0.475787 0.856767 0.265914 0.130905
C29   C     C_3   0.494768 0.791733 0.252785 -0.777706
C30   C     C_3   0.856757 0.524201 0.265925 0.130903
C31   C     C_3   0.791723 0.505216 0.252797 -0.777694
C32   C     C_3   0.524195 0.143242 0.265922 0.130907
C33   C     C_3   0.505211 0.208273 0.252789 -0.777721
C34   C     C_3   0.143241 0.524201 0.734085 0.130912
C35   C     C_R   1.000000 0.880025 1.000000 0.849807
C36   C     C_3   0.208275 0.505217 0.747212 -0.777713
C37   C     C_3   0.475787 0.143230 0.734087 0.130911
C38   C     C_3   0.494764 0.208264 0.747221 -0.777739
C39   C     C_3   0.856762 0.475813 0.734077 0.130892
C40   C     C_3   0.791730 0.494801 0.747206 -0.777692
C41   C     C_3   0.524222 0.856757 0.734073 0.130902
C42   C     C_3   0.505244 0.791719 0.747196 -0.777682
C43   C     C_3   0.643239 0.975780 0.765918 0.130918
C44   C     C_3   0.708274 0.994758 0.752788 -0.777745
C45   C     C_3   0.975771 0.356776 0.765905 0.130923
C46   C     C_R   0.880025 0.999998 1.000000 0.849798
C47   C     C_3   0.994740 0.291743 0.752764 -0.777783
C48   C     C_3   0.356764 0.024205 0.765921 0.130902
C49   C     C_3   0.291729 0.005223 0.752793 -0.777709
C50   C     C_3   0.024241 0.643239 0.765927 0.130906
C51   C     C_3   0.005273 0.708279 0.752803 -0.777704
C52   C     C_3   0.643226 0.024230 0.234090 0.130906
C53   C     C_3   0.708262 0.005259 0.247220 -0.777747
C54   C     C_3   0.975773 0.643232 0.234083 0.130913
C55   C     C_3   0.994746 0.708270 0.247211 -0.777715
C56   C     C_3   0.356759 0.975783 0.234076 0.130913
C57   C     C_R   0.000002 0.119974 0.000000 0.849804
C58   C     C_3   0.291724 0.994757 0.247207 -0.777713
C59   C     C_3   0.024222 0.356764 0.234082 0.130918
C60   C     C_3   0.005248 0.291732 0.247220 -0.777764
C61   C     C_3   0.122104 0.587137 0.369497 0.144268
C62   C     C_3   0.188450 0.595375 0.384929 -0.795078
C63   C     C_3   0.587138 0.877902 0.369492 0.144273
C64   C     C_3   0.595378 0.811558 0.384927 -0.795062
C65   C     C_3   0.877898 0.412856 0.369493 0.144253
C66   C     C_3   0.811556 0.404616 0.384930 -0.795044
C67   C     C_3   0.412858 0.122106 0.369500 0.144272
C68   C     C_R   0.119975 0.000000 0.000000 0.849803
C69   C     C_3   0.404622 0.188457 0.384920 -0.795146
C70   C     C_3   0.122098 0.412855 0.630504 0.144257
C71   C     C_3   0.188443 0.404612 0.615071 -0.795056
C72   C     C_3   0.587124 0.122114 0.630507 0.144269
C73   C     C_3   0.595352 0.188465 0.615087 -0.795127
C74   C     C_3   0.877905 0.587152 0.630507 0.144278
C75   C     C_3   0.811563 0.595393 0.615067 -0.795083
C76   C     C_3   0.412869 0.877891 0.630501 0.144262
C77   C     C_3   0.404632 0.811546 0.615066 -0.795054
C78   C     C_3   0.622114 0.087126 0.869498 0.144242
C79   C     C_R   0.314217 0.500001 0.499999 -0.299984
C80   C     C_3   0.688468 0.095359 0.884914 -0.795111
C81   C     C_3   0.087106 0.377876 0.869497 0.144265
C82   C     C_3   0.095324 0.311515 0.884900 -0.795158
C83   C     C_3   0.377895 0.912863 0.869492 0.144267
C84   C     C_3   0.311552 0.904627 0.884930 -0.795081
C85   C     C_3   0.912887 0.622124 0.869496 0.144250
C86   C     C_3   0.904662 0.688473 0.884924 -0.795035
C87   C     C_3   0.622115 0.912882 0.130509 0.144267
C88   C     C_3   0.688464 0.904655 0.115081 -0.795148
C89   C     C_3   0.087124 0.622111 0.130508 0.144263
C90   C     C_R   0.499999 0.685783 0.500001 -0.299981
C91   C     C_3   0.095356 0.688457 0.115076 -0.795076
C92   C     C_3   0.377889 0.087131 0.130501 0.144241
C93   C     C_3   0.311540 0.095364 0.115075 -0.795012
C94   C     C_3   0.912883 0.377878 0.130499 0.144251
C95   C     C_3   0.904658 0.311517 0.115095 -0.795159
C96   C     C_3   0.187158 0.649281 0.511182 0.176494
C97   C     C_3   0.150119 0.701227 0.532164 -0.791152
C98   C     C_3   0.649275 0.812851 0.511207 0.176510
C99   C     C_3   0.701193 0.849942 0.532179 -0.791137
C100  C     C_3   0.812840 0.350721 0.511194 0.176500
C101  C     C_R   0.685783 0.500001 0.500001 -0.299982
C102  C     C_3   0.849877 0.298778 0.532179 -0.791155
C103  C     C_3   0.350704 0.187177 0.511110 0.176469
C104  C     C_3   0.298681 0.150268 0.532112 -0.791178
C105  C     C_3   0.187161 0.350718 0.488818 0.176497
C106  C     C_3   0.150138 0.298763 0.467831 -0.791154
C107  C     C_3   0.649289 0.187166 0.488866 0.176489
C108  C     C_3   0.701262 0.150155 0.467893 -0.791162
C109  C     C_3   0.812850 0.649276 0.488795 0.176501
C110  C     C_3   0.849915 0.701203 0.467814 -0.791143
C111  C     C_3   0.350721 0.812844 0.488806 0.176497
C112  C     C_R   0.500000 0.879659 0.500000 1.022469
C113  C     C_R   0.500001 0.314219 0.499998 -0.299995
C114  C     C_3   0.298785 0.849898 0.467824 -0.791142
C115  C     C_3   0.687196 0.149305 0.011076 0.176463
C116  C     C_3   0.650360 0.201372 0.032089 -0.791196
C117  C     C_3   0.149297 0.312827 0.011083 0.176483
C118  C     C_3   0.201302 0.349804 0.032049 -0.791166
C119  C     C_3   0.312842 0.850720 0.011189 0.176492
C120  C     C_3   0.349886 0.798779 0.032172 -0.791140
C121  C     C_3   0.850718 0.687162 0.011168 0.176501
C122  C     C_3   0.798770 0.650113 0.032139 -0.791140
C123  C     C_3   0.687168 0.850707 0.988874 0.176486
C124  C     C_R   0.814219 0.999999 0.999999 -0.299999
C125  C     C_3   0.650189 0.798717 0.967891 -0.791156
C126  C     C_3   0.149281 0.687159 0.988823 0.176499
C127  C     C_3   0.201224 0.650108 0.967847 -0.791138
C128  C     C_3   0.312837 0.149280 0.988823 0.176499
C129  C     C_3   0.349871 0.201231 0.967843 -0.791147
C130  C     C_3   0.850689 0.312798 0.988964 0.176454
C131  C     C_3   0.798594 0.349594 0.967951 -0.791202
C132  C     C_2   0.317094 0.595660 0.548307 0.449333
C133  C     C_2   0.595650 0.682912 0.548318 0.449313
C134  C     C_2   0.682910 0.404353 0.548319 0.449336
C135  C     C_R   0.000001 0.185780 0.000002 -0.300005
C136  C     C_2   0.404315 0.317095 0.548277 0.449360
C137  C     C_2   0.317089 0.404345 0.451687 0.449333
C138  C     C_2   0.595683 0.317094 0.451716 0.449311
C139  C     C_2   0.682909 0.595649 0.451684 0.449337
C140  C     C_2   0.404346 0.682906 0.451688 0.449330
C141  C     C_2   0.817096 0.095691 0.048275 0.449358
C142  C     C_2   0.095706 0.182906 0.048263 0.449287
C143  C     C_2   0.182908 0.904346 0.048311 0.449337
C144  C     C_2   0.904341 0.817092 0.048306 0.449320
C145  C     C_2   0.817093 0.904312 0.951719 0.449308
C146  C     C_R   0.185783 1.000000 1.000000 -0.299985
C147  C     C_2   0.095660 0.817091 0.951694 0.449316
C148  C     C_2   0.182910 0.095651 0.951685 0.449323
C149  C     C_2   0.904290 0.182901 0.951746 0.449362
C150  C     C_R   0.999999 0.814217 0.999999 -0.299983
C151  C     C_R   0.282897 0.547366 0.522817 -0.128454
C152  C     C_R   0.547360 0.717106 0.522824 -0.128461
C153  C     C_R   0.717104 0.452640 0.522823 -0.128450
C154  C     C_R   0.452621 0.282899 0.522799 -0.128457
C155  C     C_R   0.282895 0.452636 0.477180 -0.128455
C156  C     C_R   0.879659 0.500000 0.499999 1.022465
C157  C     C_R   0.547378 0.282898 0.477194 -0.128460
C158  C     C_R   0.717104 0.547360 0.477178 -0.128456
C159  C     C_R   0.452637 0.717103 0.477180 -0.128453
C160  C     C_R   0.782900 0.047384 0.022796 -0.128444
C161  C     C_R   0.047390 0.217101 0.022794 -0.128465
C162  C     C_R   0.217104 0.952637 0.022819 -0.128456
C163  C     C_R   0.952633 0.782897 0.022816 -0.128456
C164  C     C_R   0.782898 0.952619 0.977197 -0.128454
C165  C     C_R   0.047366 0.782896 0.977183 -0.128460
C166  C     C_R   0.217104 0.047362 0.977180 -0.128449
C167  C     C_R   0.500000 0.120342 0.499999 1.022373
C168  C     C_R   0.952606 0.217098 0.977216 -0.128452
C169  C     C_R   0.000000 0.499999 0.413962 1.078220
C170  C     C_R   0.499999 0.000001 0.413962 1.078202
C171  C     C_R   0.000001 0.500001 0.586038 1.078225
C172  C     C_R   0.500000 1.000000 0.586038 1.078195
C173  C     C_R   0.500001 0.999999 0.913962 1.078181
C174  C     C_R   1.000000 0.500000 0.913962 1.078156
C175  C     C_R   0.500000 0.000001 0.086038 1.078178
C176  C     C_R   0.000000 0.499999 0.086038 1.078160
C177  C     C_R   0.186924 0.500000 0.500000 -0.349826
C178  C     C_R   0.620342 0.000001 0.999998 1.022334
C179  C     C_R   0.499999 0.813076 0.500002 -0.349834
C180  C     C_R   0.813076 0.499999 0.499999 -0.349832
C181  C     C_R   0.499998 0.186926 0.499996 -0.349838
C182  C     C_R   0.686926 0.000004 0.999994 -0.349849
C183  C     C_R   0.999996 0.313073 0.000006 -0.349850
C184  C     C_R   0.313075 0.000000 0.000001 -0.349839
C185  C     C_R   1.000000 0.686925 1.000000 -0.349847
C186  C     C_R   0.218681 0.549472 0.520047 0.423476
C187  C     C_R   0.549465 0.781322 0.520056 0.423470
C188  C     C_R   0.781321 0.450533 0.520052 0.423476
C189  C     C_R   0.999999 0.379657 0.000002 1.022293
C190  C     C_R   0.450512 0.218683 0.520024 0.423504
C191  C     C_R   0.218679 0.450529 0.479952 0.423482
C192  C     C_R   0.549483 0.218682 0.479966 0.423511
C193  C     C_R   0.781321 0.549465 0.479945 0.423465
C194  C     C_R   0.450531 0.781319 0.479949 0.423463
C195  C     C_R   0.718685 0.049497 0.020014 0.423537
C196  C     C_R   0.049496 0.281317 0.020019 0.423541
C197  C     C_R   0.281320 0.950531 0.020050 0.423470
C198  C     C_R   0.950527 0.718681 0.020044 0.423481
C199  C     C_R   0.718682 0.950513 0.979969 0.423517
C200  C     C_R   0.379659 1.000000 0.000000 1.022439
C201  C     C_R   0.049472 0.718680 0.979954 0.423476
C202  C     C_R   0.281320 0.049470 0.979953 0.423486
C203  C     C_R   0.950493 0.281313 0.979998 0.423538
C204  C     C_R   0.054979 0.513186 0.297204 0.374152
C205  C     C_R   0.513183 0.945024 0.297202 0.374161
C206  C     C_R   0.945021 0.486808 0.297203 0.374147
C207  C     C_R   0.486803 0.054981 0.297206 0.374154
C208  C     C_R   0.054982 0.486812 0.702796 0.374160
C209  C     C_R   0.513187 0.054976 0.702798 0.374159
C210  C     C_R   0.945026 0.513200 0.702796 0.374146
C211  C     C_R   0.000000 0.620341 1.000000 1.022436
C212  C     C_R   0.486820 0.945015 0.702794 0.374151
C213  C     C_R   0.554984 0.013180 0.797205 0.374162
C214  C     C_R   0.013180 0.445022 0.797202 0.374168
C215  C     C_R   0.445025 0.986808 0.797202 0.374145
C216  C     C_R   0.986826 0.554986 0.797206 0.374158
C217  C     C_R   0.554976 0.986823 0.202798 0.374164
C218  C     C_R   0.013180 0.554978 0.202797 0.374154
C219  C     C_R   0.445015 0.013188 0.202794 0.374157
C220  C     C_R   0.986818 0.445016 0.202795 0.374163
C221  C     C_R   0.054486 0.514855 0.343505 0.271250
C222  C     C_R   0.500002 0.380025 0.499999 0.849802
C223  C     C_R   0.514854 0.945517 0.343503 0.271251
C224  C     C_R   0.945514 0.485140 0.343504 0.271235
C225  C     C_R   0.485138 0.054488 0.343506 0.271239
C226  C     C_R   0.054487 0.485142 0.656495 0.271253
C227  C     C_R   0.514853 0.054485 0.656497 0.271235
C228  C     C_R   0.945519 0.514866 0.656496 0.271236
C229  C     C_R   0.485150 0.945510 0.656493 0.271251
C230  C     C_R   0.554490 0.014849 0.843506 0.271254
C231  C     C_R   0.014844 0.445513 0.843503 0.271243
C232  C     C_R   0.445516 0.985142 0.843503 0.271237
H1    H     H_    0.122629 0.450157 0.237679 0.105612
H2    H     H_    0.524761 0.793264 0.222941 0.244513
H3    H     H_    0.429443 0.195905 0.416644 0.244192
H4    H     H_    0.090935 0.390700 0.605927 0.139133
H5    H     H_    0.117067 0.388719 0.662932 0.176297
H6    H     H_    0.220642 0.423455 0.640314 0.269823
H7    H     H_    0.198514 0.354818 0.610144 0.198313
H8    H     H_    0.195878 0.429428 0.583345 0.244197
H9    H     H_    0.609279 0.090963 0.605923 0.139127
H10   H     H_    0.611267 0.117075 0.662933 0.176294
H11   H     H_    0.576508 0.220652 0.640336 0.269825
H12   H     H_    0.645144 0.198548 0.610159 0.198306
H13   H     H_    0.877362 0.549846 0.237691 0.105606
H14   H     H_    0.570531 0.195907 0.583362 0.244198
H15   H     H_    0.909073 0.609309 0.605936 0.139135
H16   H     H_    0.882929 0.611285 0.662938 0.176310
H17   H     H_    0.779359 0.576547 0.640304 0.269823
H18   H     H_    0.801491 0.645187 0.610143 0.198307
H19   H     H_    0.804135 0.570580 0.583337 0.244196
H20   H     H_    0.390711 0.909053 0.605927 0.139134
H21   H     H_    0.388734 0.882918 0.662930 0.176299
H22   H     H_    0.423481 0.779348 0.640305 0.269827
H23   H     H_    0.354838 0.801469 0.610141 0.198306
H24   H     H_    0.853359 0.555134 0.295401 0.163642
H25   H     H_    0.429444 0.804116 0.583337 0.244195
H26   H     H_    0.590967 0.109280 0.894085 0.139113
H27   H     H_    0.617067 0.111269 0.837074 0.176294
H28   H     H_    0.720651 0.076516 0.859662 0.269830
H29   H     H_    0.698549 0.145152 0.889841 0.198323
H30   H     H_    0.695918 0.070541 0.916638 0.244191
H31   H     H_    0.109258 0.409011 0.894093 0.139129
H32   H     H_    0.111258 0.382931 0.837077 0.176279
H33   H     H_    0.076485 0.279344 0.859638 0.269823
H34   H     H_    0.145114 0.301427 0.889834 0.198311
H35   H     H_    0.769527 0.479568 0.280400 0.262077
H36   H     H_    0.070493 0.304057 0.916618 0.244204
H37   H     H_    0.409060 0.890704 0.894065 0.139135
H38   H     H_    0.382918 0.888728 0.837062 0.176309
H39   H     H_    0.279350 0.923477 0.859693 0.269823
H40   H     H_    0.301475 0.854834 0.889854 0.198312
H41   H     H_    0.304127 0.929440 0.916660 0.244194
H42   H     H_    0.890723 0.590970 0.894073 0.139128
H43   H     H_    0.888750 0.617094 0.837067 0.176301
H44   H     H_    0.923519 0.720664 0.859683 0.269821
H45   H     H_    0.854871 0.698560 0.889846 0.198322
H46   H     H_    0.763792 0.546889 0.245229 0.205366
H47   H     H_    0.929474 0.695905 0.916654 0.244195
H48   H     H_    0.590960 0.890720 0.105930 0.139121
H49   H     H_    0.617084 0.888745 0.162937 0.176313
H50   H     H_    0.720655 0.923508 0.140326 0.269827
H51   H     H_    0.698548 0.854863 0.110157 0.198320
H52   H     H_    0.695897 0.929470 0.083354 0.244187
H53   H     H_    0.109283 0.590951 0.105932 0.139135
H54   H     H_    0.111261 0.617084 0.162937 0.176301
H55   H     H_    0.076506 0.720653 0.140318 0.269826
H56   H     H_    0.145149 0.698538 0.110152 0.198307
H57   H     H_    0.793254 0.475229 0.222949 0.244516
H58   H     H_    0.070542 0.695887 0.083348 0.244198
H59   H     H_    0.409045 0.109286 0.105921 0.139137
H60   H     H_    0.382925 0.111271 0.162928 0.176288
H61   H     H_    0.279349 0.076518 0.140320 0.269823
H62   H     H_    0.301461 0.145157 0.110150 0.198327
H63   H     H_    0.304101 0.070548 0.083348 0.244197
H64   H     H_    0.890731 0.409014 0.105905 0.139107
H65   H     H_    0.888735 0.382935 0.162921 0.176286
H66   H     H_    0.923500 0.279345 0.140355 0.269836
H67   H     H_    0.854867 0.301430 0.110167 0.198317
H68   H     H_    0.549836 0.122630 0.237688 0.105604
H69   H     H_    0.929481 0.304057 0.083374 0.244192
H70   H     H_    0.165908 0.638125 0.478588 0.125676
H71   H     H_    0.234919 0.666352 0.505383 0.117683
H72   H     H_    0.170821 0.714271 0.564512 0.266227
H73   H     H_    0.150308 0.742165 0.510006 0.184010
H74   H     H_    0.101665 0.686155 0.537494 0.249652
H75   H     H_    0.638119 0.834063 0.478600 0.125629
H76   H     H_    0.666373 0.765094 0.505435 0.117715
H77   H     H_    0.714233 0.829282 0.564541 0.266206
H78   H     H_    0.742139 0.849751 0.510031 0.184002
H79   H     H_    0.555132 0.146646 0.295396 0.163628
H80   H     H_    0.686093 0.898393 0.537480 0.249662
H81   H     H_    0.834089 0.361869 0.478598 0.125678
H82   H     H_    0.765077 0.333652 0.505397 0.117707
H83   H     H_    0.829176 0.285743 0.564529 0.266227
H84   H     H_    0.849684 0.257835 0.510025 0.184018
H85   H     H_    0.898332 0.313848 0.537508 0.249654
H86   H     H_    0.361860 0.165831 0.478548 0.125789
H87   H     H_    0.333709 0.234949 0.505242 0.117597
H88   H     H_    0.285636 0.171074 0.564425 0.266289
H89   H     H_    0.257767 0.150461 0.509932 0.184031
H90   H     H_    0.479568 0.230476 0.280392 0.262065
H91   H     H_    0.313676 0.101807 0.537515 0.249623
H92   H     H_    0.165900 0.361869 0.521409 0.125690
H93   H     H_    0.234924 0.333659 0.494623 0.117724
H94   H     H_    0.170849 0.285727 0.435485 0.266240
H95   H     H_    0.150335 0.257824 0.489987 0.184020
H96   H     H_    0.101682 0.313822 0.462496 0.249643
H97   H     H_    0.638119 0.165896 0.521451 0.125696
H98   H     H_    0.666340 0.234930 0.494684 0.117680
H99   H     H_    0.714317 0.170876 0.435555 0.266242
H100  H     H_    0.742186 0.150350 0.490064 0.184019
H101  H     H_    0.546885 0.236201 0.245215 0.205365
H102  H     H_    0.686211 0.101698 0.462545 0.249638
H103  H     H_    0.834082 0.638126 0.521397 0.125656
H104  H     H_    0.765091 0.666362 0.494580 0.117687
H105  H     H_    0.829232 0.714240 0.435459 0.266216
H106  H     H_    0.849728 0.742148 0.489964 0.184004
H107  H     H_    0.898366 0.686114 0.462498 0.249662
H108  H     H_    0.361875 0.834084 0.521404 0.125662
H109  H     H_    0.333641 0.765084 0.494596 0.117701
H110  H     H_    0.285746 0.829208 0.435472 0.266221
H111  H     H_    0.257843 0.849708 0.489977 0.184008
H112  H     H_    0.146633 0.444850 0.295388 0.163618
H113  H     H_    0.475221 0.206735 0.222943 0.244522
H114  H     H_    0.313867 0.898350 0.462504 0.249656
H115  H     H_    0.665801 0.138150 0.978531 0.125848
H116  H     H_    0.734976 0.166257 0.005174 0.117637
H117  H     H_    0.671219 0.214418 0.064385 0.266318
H118  H     H_    0.650560 0.242274 0.009898 0.184059
H119  H     H_    0.601892 0.186422 0.037528 0.249605
H120  H     H_    0.138112 0.334121 0.978509 0.125722
H121  H     H_    0.166324 0.265059 0.005244 0.117678
H122  H     H_    0.214371 0.329058 0.064377 0.266260
H123  H     H_    0.242210 0.349604 0.009863 0.184032
H124  H     H_    0.122632 0.549836 0.762324 0.105609
H125  H     H_    0.186276 0.398263 0.037416 0.249621
H126  H     H_    0.334088 0.861872 0.978593 0.125672
H127  H     H_    0.265081 0.833647 0.005394 0.117690
H128  H     H_    0.329190 0.785743 0.064523 0.266226
H129  H     H_    0.349693 0.757837 0.010018 0.184013
H130  H     H_    0.398340 0.813854 0.037498 0.249654
H131  H     H_    0.861880 0.665920 0.978572 0.125662
H132  H     H_    0.833646 0.734923 0.005375 0.117737
H133  H     H_    0.785723 0.670803 0.064489 0.266220
H134  H     H_    0.757835 0.650308 0.009978 0.184021
H135  H     H_    0.146640 0.555145 0.704616 0.163610
H136  H     H_    0.813843 0.601658 0.037462 0.249650
H137  H     H_    0.665874 0.861873 0.021451 0.125726
H138  H     H_    0.734935 0.833674 0.994708 0.117665
H139  H     H_    0.670934 0.785667 0.935560 0.266261
H140  H     H_    0.650386 0.757796 0.990064 0.184027
H141  H     H_    0.601730 0.813748 0.962529 0.249626
H142  H     H_    0.138122 0.665918 0.021420 0.125661
H143  H     H_    0.166356 0.734920 0.994616 0.117698
H144  H     H_    0.214267 0.670798 0.935496 0.266224
H145  H     H_    0.242162 0.650303 0.990005 0.184012
H146  H     H_    0.230475 0.479582 0.719605 0.262078
H147  H     H_    0.186148 0.601654 0.962525 0.249651
H148  H     H_    0.334089 0.138126 0.021417 0.125680
H149  H     H_    0.265074 0.166345 0.994623 0.117738
H150  H     H_    0.329169 0.214270 0.935495 0.266230
H151  H     H_    0.349674 0.242169 0.990001 0.184029
H152  H     H_    0.398327 0.186167 0.962515 0.249647
H153  H     H_    0.861852 0.334224 0.021497 0.125881
H154  H     H_    0.833760 0.265016 0.994891 0.117593
H155  H     H_    0.785539 0.328703 0.935668 0.266338
H156  H     H_    0.757704 0.349395 0.990154 0.184061
H157  H     H_    0.236202 0.546890 0.754792 0.205361
H158  H     H_    0.813519 0.398064 0.962487 0.249594
H159  H     H_    0.363899 0.608209 0.539351 0.036696
H160  H     H_    0.608206 0.636110 0.539359 0.036700
H161  H     H_    0.636105 0.391801 0.539365 0.036701
H162  H     H_    0.391788 0.363909 0.539330 0.036697
H163  H     H_    0.363896 0.391798 0.460638 0.036703
H164  H     H_    0.608217 0.363904 0.460667 0.036694
H165  H     H_    0.636108 0.608206 0.460644 0.036694
H166  H     H_    0.391794 0.636103 0.460644 0.036699
H167  H     H_    0.863918 0.108203 0.039341 0.036718
H168  H     H_    0.206743 0.475220 0.777054 0.244520
H169  H     H_    0.108223 0.136089 0.039318 0.036697
H170  H     H_    0.136105 0.891794 0.039354 0.036693
H171  H     H_    0.891795 0.863898 0.039355 0.036698
H172  H     H_    0.863906 0.891782 0.960668 0.036694
H173  H     H_    0.108207 0.863897 0.960649 0.036702
H174  H     H_    0.136103 0.108198 0.960635 0.036705
H175  H     H_    0.891789 0.136075 0.960679 0.036713
H176  H     H_    0.450149 0.122614 0.762322 0.105608
H177  H     H_    0.444847 0.146629 0.704615 0.163619
H178  H     H_    0.520402 0.230470 0.719618 0.262068
H179  H     H_    0.453087 0.236186 0.754798 0.205361
H180  H     H_    0.230472 0.520411 0.280402 0.262075
H181  H     H_    0.524756 0.206731 0.777066 0.244522
H182  H     H_    0.877368 0.450169 0.762312 0.105611
H183  H     H_    0.853360 0.444877 0.704603 0.163638
H184  H     H_    0.769533 0.520447 0.719603 0.262075
H185  H     H_    0.763798 0.453130 0.754777 0.205370
H186  H     H_    0.793265 0.524790 0.777053 0.244516
H187  H     H_    0.549860 0.877364 0.762311 0.105608
H188  H     H_    0.555160 0.853364 0.704600 0.163629
H189  H     H_    0.479605 0.769521 0.719590 0.262079
H190  H     H_    0.546921 0.763795 0.754768 0.205367
H191  H     H_    0.236199 0.453101 0.245217 0.205365
H192  H     H_    0.475253 0.793245 0.777041 0.244514
H193  H     H_    0.622625 0.950145 0.737680 0.105605
H194  H     H_    0.646637 0.944840 0.795388 0.163612
H195  H     H_    0.730480 0.020394 0.780393 0.262066
H196  H     H_    0.736196 0.953082 0.745209 0.205360
H197  H     H_    0.706742 0.024753 0.722945 0.244523
H198  H     H_    0.950140 0.377401 0.737671 0.105604
H199  H     H_    0.944829 0.353373 0.795375 0.163604
H200  H     H_    0.020372 0.269526 0.780366 0.262060
H201  H     H_    0.953060 0.263828 0.745181 0.205356
H202  H     H_    0.206744 0.524771 0.222952 0.244516
H203  H     H_    0.024735 0.293280 0.722921 0.244525
H204  H     H_    0.377372 0.049847 0.737686 0.105609
H205  H     H_    0.353367 0.055140 0.795396 0.163636
H206  H     H_    0.269531 0.979579 0.780396 0.262075
H207  H     H_    0.263802 0.046897 0.745222 0.205367
H208  H     H_    0.293260 0.975234 0.722946 0.244516
H209  H     H_    0.049877 0.622628 0.737690 0.105609
H210  H     H_    0.055179 0.646629 0.795401 0.163626
H211  H     H_    0.979637 0.730481 0.780409 0.262073
H212  H     H_    0.046954 0.736198 0.745232 0.205365
H213  H     H_    0.450150 0.877377 0.237677 0.105609
H214  H     H_    0.975282 0.706756 0.722958 0.244515
H215  H     H_    0.622610 0.049862 0.262327 0.105616
H216  H     H_    0.646621 0.055173 0.204620 0.163600
H217  H     H_    0.730470 0.979626 0.219614 0.262070
H218  H     H_    0.736181 0.046937 0.254799 0.205360
H219  H     H_    0.706733 0.975263 0.277062 0.244522
H220  H     H_    0.950137 0.622620 0.262319 0.105609
H221  H     H_    0.944833 0.646624 0.204610 0.163621
H222  H     H_    0.020382 0.730472 0.219605 0.262079
H223  H     H_    0.953068 0.736190 0.254785 0.205362
H224  H     H_    0.444847 0.853369 0.295385 0.163619
H225  H     H_    0.024739 0.706744 0.277055 0.244515
H226  H     H_    0.377372 0.950145 0.262311 0.105602
H227  H     H_    0.353361 0.944846 0.204602 0.163632
H228  H     H_    0.269519 0.020397 0.219604 0.262075
H229  H     H_    0.263801 0.953080 0.254780 0.205363
H230  H     H_    0.293254 0.024748 0.277052 0.244515
H231  H     H_    0.049860 0.377385 0.262316 0.105600
H232  H     H_    0.055159 0.353361 0.204610 0.163621
H233  H     H_    0.979609 0.269519 0.219619 0.262057
H234  H     H_    0.046925 0.263813 0.254799 0.205361
H235  H     H_    0.520406 0.769532 0.280390 0.262082
H236  H     H_    0.975256 0.293269 0.277065 0.244524
H237  H     H_    0.090944 0.609292 0.394075 0.139132
H238  H     H_    0.117071 0.611275 0.337070 0.176297
H239  H     H_    0.220647 0.576531 0.359686 0.269825
H240  H     H_    0.198526 0.645169 0.389856 0.198304
H241  H     H_    0.195886 0.570560 0.416656 0.244196
H242  H     H_    0.609294 0.909066 0.394067 0.139141
H243  H     H_    0.611273 0.882930 0.337063 0.176297
H244  H     H_    0.576535 0.779357 0.359685 0.269822
H245  H     H_    0.645172 0.801486 0.389854 0.198301
H246  H     H_    0.453093 0.763807 0.245208 0.205363
H247  H     H_    0.570563 0.804127 0.416654 0.244204
H248  H     H_    0.909064 0.390700 0.394066 0.139134
H249  H     H_    0.882924 0.388721 0.337063 0.176303
H250  H     H_    0.779353 0.423462 0.359691 0.269821
H251  H     H_    0.801482 0.354822 0.389854 0.198317
H252  H     H_    0.804127 0.429429 0.416659 0.244197
H253  H     H_    0.390707 0.090954 0.394084 0.139120
H254  H     H_    0.388716 0.117061 0.337074 0.176291
H255  H     H_    0.423463 0.220645 0.359670 0.269833
H256  H     H_    0.354830 0.198533 0.389848 0.198303
O1    O     O_R   0.091600 0.448290 0.500030 -0.612018
O2    O     O_R   0.948290 0.408400 0.000030 -0.611967
O3    O     O_2   0.378524 0.293593 0.580064 -0.529918
O4    O     O_2   0.293591 0.378589 0.419882 -0.529908
O5    O     O_2   0.621462 0.293594 0.419922 -0.529912
O6    O     O_2   0.706398 0.621390 0.419872 -0.529895
O7    O     O_2   0.378598 0.706397 0.419878 -0.529897
O8    O     O_2   0.793583 0.121500 0.080052 -0.529939
O9    O     O_2   0.121514 0.206412 0.080042 -0.529925
O10   O     O_2   0.206401 0.878599 0.080120 -0.529901
O11   O     O_2   0.878583 0.793596 0.080110 -0.529909
O12   O     O_2   0.793592 0.878524 0.919929 -0.529922
O13   O     O_R   0.408400 0.051710 0.000030 -0.612015
O14   O     O_2   0.121415 0.793597 0.919889 -0.529903
O15   O     O_2   0.206408 0.121404 0.919881 -0.529913
O16   O     O_2   0.878460 0.206416 0.919980 -0.529943
O17   O     O_R   0.051710 0.591600 0.000030 -0.612018
O18   O     O_R   0.591600 0.051710 0.999970 -0.611980
O19   O     O_R   0.948290 0.591600 0.999970 -0.612007
O20   O     O_R   0.408400 0.948290 0.999970 -0.612025
O21   O     O_R   0.051710 0.408400 0.999970 -0.611968
O22   O     O_R   0.999980 0.448290 0.434550 -0.639397
O23   O     O_R   0.448290 0.000020 0.434550 -0.639414
O24   O     O_R   0.000020 0.551710 0.434550 -0.639413
O25   O     O_R   0.448290 0.908400 0.500030 -0.612028
O26   O     O_R   0.551710 0.999980 0.434550 -0.639396
O27   O     O_R   0.999980 0.551710 0.565450 -0.639400
O28   O     O_R   0.448290 0.999980 0.565450 -0.639380
O29   O     O_R   0.000020 0.448290 0.565450 -0.639408
O30   O     O_R   0.551710 0.000020 0.565450 -0.639416
O31   O     O_R   0.499980 0.948290 0.934550 -0.639388
O32   O     O_R   0.948290 0.500020 0.934550 -0.639356
O33   O     O_R   0.500020 0.051710 0.934550 -0.639412
O34   O     O_R   0.051710 0.499980 0.934550 -0.639417
O35   O     O_R   0.499980 0.051710 0.065450 -0.639372
O36   O     O_R   0.908400 0.551710 0.500030 -0.612028
O37   O     O_R   0.948290 0.499980 0.065450 -0.639416
O38   O     O_R   0.500020 0.948290 0.065450 -0.639406
O39   O     O_R   0.051710 0.500020 0.065450 -0.639385
O40   O     O_R   0.499980 0.408290 0.536960 -0.620376
O41   O     O_R   0.408290 0.500020 0.536960 -0.620360
O42   O     O_R   0.500020 0.591710 0.536960 -0.620362
O43   O     O_R   0.591710 0.499980 0.536960 -0.620374
O44   O     O_R   0.499980 0.591710 0.463040 -0.620365
O45   O     O_R   0.408290 0.499980 0.463040 -0.620375
O46   O     O_R   0.500020 0.408290 0.463040 -0.620366
O47   O     O_R   0.551710 0.091600 0.500030 -0.611996
O48   O     O_R   0.591710 0.500020 0.463040 -0.620359
O49   O     O_R   0.999980 0.908290 0.036960 -0.620371
O50   O     O_R   0.908290 0.000020 0.036960 -0.620391
O51   O     O_R   0.000020 0.091710 0.036960 -0.620367
O52   O     O_R   0.091710 0.999980 0.036960 -0.620359
O53   O     O_R   0.999980 0.091710 0.963040 -0.620392
O54   O     O_R   0.908290 0.999980 0.963040 -0.620363
O55   O     O_R   0.000020 0.908290 0.963040 -0.620363
O56   O     O_R   0.091710 0.000020 0.963040 -0.620378
O57   O     O_3   0.108289 0.529336 0.274716 -0.561485
O58   O     O_R   0.091600 0.551710 0.499970 -0.612024
O59   O     O_3   0.529331 0.891715 0.274712 -0.561484
O60   O     O_3   0.891711 0.470659 0.274713 -0.561488
O61   O     O_3   0.470653 0.108291 0.274718 -0.561470
O62   O     O_3   0.108291 0.470660 0.725284 -0.561478
O63   O     O_3   0.529332 0.108287 0.725289 -0.561481
O64   O     O_3   0.891718 0.529353 0.725286 -0.561492
O65   O     O_3   0.470676 0.891703 0.725281 -0.561485
O66   O     O_3   0.608296 0.029326 0.774717 -0.561474
O67   O     O_3   0.029321 0.391710 0.774712 -0.561462
O68   O     O_3   0.391714 0.970661 0.774712 -0.561492
O69   O     O_R   0.448290 0.091600 0.499970 -0.611993
O70   O     O_3   0.970690 0.608300 0.774718 -0.561484
O71   O     O_3   0.608287 0.970681 0.225288 -0.561482
O72   O     O_3   0.029321 0.608290 0.225288 -0.561485
O73   O     O_3   0.391702 0.029330 0.225282 -0.561471
O74   O     O_3   0.970675 0.391704 0.225282 -0.561465
O75   O     O_3   0.109097 0.523397 0.366535 -0.577642
O76   O     O_3   0.523398 0.890906 0.366531 -0.577638
O77   O     O_3   0.890904 0.476596 0.366533 -0.577642
O78   O     O_3   0.476598 0.109098 0.366537 -0.577663
O79   O     O_3   0.109096 0.476596 0.633466 -0.577642
O80   O     O_R   0.908400 0.448290 0.499970 -0.612026
O81   O     O_3   0.523386 0.109098 0.633470 -0.577670
O82   O     O_3   0.890908 0.523411 0.633466 -0.577648
O83   O     O_3   0.476609 0.890900 0.633462 -0.577632
O84   O     O_3   0.609101 0.023387 0.866536 -0.577660
O85   O     O_3   0.023370 0.390898 0.866530 -0.577690
O86   O     O_3   0.390905 0.976602 0.866532 -0.577649
O87   O     O_3   0.976624 0.609103 0.866538 -0.577640
O88   O     O_3   0.609098 0.976620 0.133469 -0.577676
O89   O     O_3   0.023385 0.609098 0.133469 -0.577643
O90   O     O_3   0.390900 0.023392 0.133463 -0.577640
O91   O     O_R   0.551710 0.908400 0.499970 -0.612027
O92   O     O_3   0.976621 0.390897 0.133463 -0.577676
O93   O     O_3   0.186434 0.597469 0.539801 -0.533127
O94   O     O_3   0.597454 0.813572 0.539817 -0.533125
O95   O     O_3   0.813568 0.402540 0.539808 -0.533134
O96   O     O_3   0.402493 0.186440 0.539752 -0.533113
O97   O     O_3   0.186431 0.402531 0.460200 -0.533129
O98   O     O_3   0.597494 0.186435 0.460230 -0.533120
O99   O     O_3   0.813569 0.597453 0.460184 -0.533129
O100  O     O_3   0.402539 0.813566 0.460191 -0.533128
O101  O     O_3   0.686443 0.097528 0.039730 -0.533116
O102  O     O_R   0.591600 0.948290 0.000030 -0.611989
O103  O     O_3   0.097522 0.313563 0.039737 -0.533109
O104  O     O_3   0.313568 0.902538 0.039805 -0.533125
O105  O     O_3   0.902526 0.686434 0.039792 -0.533123
O106  O     O_3   0.686435 0.902499 0.960236 -0.533118
O107  O     O_3   0.097469 0.686432 0.960202 -0.533117
O108  O     O_3   0.313568 0.097468 0.960203 -0.533130
O109  O     O_3   0.902450 0.313552 0.960296 -0.533105
O110  O     O_2   0.293602 0.621415 0.580114 -0.529899
O111  O     O_2   0.621393 0.706403 0.580130 -0.529893
O112  O     O_2   0.706405 0.378608 0.580128 -0.529904
Zn1   Zn    Zn3+2 0.000000 0.430950 0.500000 0.950559
Zn2   Zn    Zn3+2 0.500000 0.500000 0.450630 0.985017
Zn3   Zn    Zn3+2 0.000000 0.000000 0.049370 0.984981
Zn4   Zn    Zn3+2 0.000000 0.000000 0.950630 0.984977
Zn5   Zn    Zn3+2 0.430950 0.000000 0.500000 0.950607
Zn6   Zn    Zn3+2 0.000000 0.569050 0.500000 0.950534
Zn7   Zn    Zn3+2 0.569050 0.000000 0.500000 0.950549
Zn8   Zn    Zn3+2 0.500000 0.930950 0.000000 0.950591
Zn9   Zn    Zn3+2 0.930950 0.500000 0.000000 0.950686
Zn10  Zn    Zn3+2 0.500000 0.069050 0.000000 0.950664
Zn11  Zn    Zn3+2 0.069050 0.500000 0.000000 0.950598
Zn12  Zn    Zn3+2 0.500000 0.500000 0.549370 0.985012

loop_
_geom_bond_atom_site_label_1
_geom_bond_atom_site_label_2
_ccdc_geom_bond_type
C159  C194  A    
C89   H53   S    
C126  C127  S    
C177  C191  A    
C112  O25   A    
C135  C161  A    
C91   H55   S    
C167  O69   A    
C196  O103  S    
C100  H81   S    
C209  O63   S    
C68   C146  S    
C210  O64   S    
O31   Zn8   S    
C97   H74   S    
C96   H70   S    
C17   C206  A    
C43   O66   S    
C141  O8    D    
C140  C159  S    
C53   H219  S    
C35   O55   A    
C217  O71   S    
C37   H176  S    
C131  H156  S    
C218  O72   S    
C48   H204  S    
C85   H42   S    
C166  C202  A    
C86   H45   S    
C117  H120  S    
C102  H84   S    
C163  C198  A    
O102  Zn8   S    
C78   H27   S    
C112  O91   A    
O19   Zn9   S    
C96   H71   S    
C114  H110  S    
C125  H141  S    
C89   O89   S    
C171  O27   A    
C128  H149  S    
C44   H195  S    
C190  O96   S    
C59   C60   S    
C68   O56   A    
C45   H198  S    
C200  O20   A    
C2    O41   A    
O36   Zn6   S    
C25   C218  A    
C149  C168  S    
C152  C187  A    
C94   O92   S    
C214  C231  A    
C183  C189  S    
O38   Zn8   S    
C45   C47   S    
C23   C219  A    
O13   Zn10  S    
C158  C193  A    
C51   H211  S    
C118  H125  S    
C123  O106  S    
O20   Zn8   S    
C125  H140  S    
C26   H112  S    
C66   H252  S    
C39   O64   S    
C109  H103  S    
C87   O88   S    
C10   C171  S    
C31   H35   S    
C205  C223  A    
C122  H136  S    
C177  C186  A    
C42   H190  S    
C176  O39   A    
C88   H50   S    
C117  O103  S    
C143  H170  S    
C43   C44   S    
C37   C38   S    
C150  C163  A    
C146  C162  A    
C181  C190  A    
C193  O99   S    
C69   H255  S    
C119  C120  S    
C134  H161  S    
C183  C196  A    
O2    Zn9   S    
C56   H227  S    
C32   O61   S    
C137  H163  S    
C28   H224  S    
C54   H221  S    
C114  H114  S    
C45   O67   S    
C130  H154  S    
C101  C158  A    
C135  C168  A    
C127  H147  S    
C18   C205  A    
C48   H205  S    
C172  O28   A    
C76   H20   S    
C227  O81   S    
C216  O70   S    
C8    C169  S    
C52   H216  S    
C67   C69   S    
C197  O104  S    
C98   H75   S    
C49   H207  S    
C210  C228  A    
C104  H91   S    
C182  C199  A    
C47   H200  S    
C67   H254  S    
C72   C73   S    
O48   Zn2   S    
C133  H160  S    
C222  O46   A    
C174  O34   A    
C121  H132  S    
C222  O40   A    
C71   H8    S    
C130  C131  S    
C17   C25   S    
C39   H182  S    
C34   H135  S    
C156  C180  S    
C142  H169  S    
C124  C160  A    
C29   H235  S    
C82   H33   S    
C87   H48   S    
C20   C212  A    
O37   Zn9   S    
O34   Zn11  S    
O41   Zn12  S    
C79   C155  A    
C46   O54   A    
C37   H177  S    
C6    O90   S    
C20   C21   S    
C130  O109  S    
C106  H96   S    
C98   C99   S    
C57   C135  S    
C25   C220  A    
C113  C157  A    
C203  O109  S    
C145  O12   D    
C111  O100  S    
C205  O59   S    
C151  C186  A    
C36   H146  S    
C23   C217  A    
C204  C221  A    
C85   O87   S    
C19   C210  A    
C52   O71   S    
C119  H127  S    
O32   Zn9   S    
C199  O106  S    
C128  C129  S    
C66   H250  S    
C142  C161  S    
C170  O26   A    
C85   C86   S    
C207  O61   S    
C137  O4    D    
C189  O2    A    
C115  H115  S    
C122  H134  S    
C220  O74   S    
C13   O42   A    
C178  O102  A    
O26   Zn7   S    
C41   H187  S    
C181  C192  A    
C78   C80   S    
C134  C153  S    
C61   H238  S    
C185  C201  A    
C115  C116  S    
O18   Zn10  S    
C27   H180  S    
C137  C155  S    
C24   C101  S    
C90   C159  A    
C147  C165  S    
C39   H183  S    
C40   H184  S    
C206  C224  A    
C127  H145  S    
C105  H92   S    
C107  C108  S    
C185  C211  S    
C2    C79   S    
C35   C150  S    
C89   C91   S    
C75   H18   S    
C83   O86   S    
C105  O97   S    
C164  C199  A    
C40   H185  S    
C11   C229  A    
C103  H86   S    
C77   H25   S    
O91   Zn7   S    
C57   O51   A    
C117  H121  S    
C99   H80   S    
C94   C95   S    
O42   Zn12  S    
C132  H159  S    
C88   H52   S    
C100  C102  S    
C172  O30   A    
C113  C222  S    
O49   Zn3   S    
O23   Zn5   S    
C174  O32   A    
C215  C232  A    
C71   H6    S    
C72   H10   S    
C80   H30   S    
C39   C40   S    
C48   O68   S    
C50   H209  S    
C60   H234  S    
C59   O74   S    
C230  O84   S    
C111  H109  S    
C27   H191  S    
C18   C207  A    
C59   H232  S    
C83   H38   S    
C9    C225  A    
C74   H16   S    
C83   C84   S    
C106  H94   S    
C36   H157  S    
C92   H60   S    
C2    O45   A    
C173  O33   A    
C221  O75   S    
C93   H61   S    
C225  O78   S    
C108  H100  S    
C44   H197  S    
C7    C220  A    
C63   H242  S    
O25   Zn5   S    
O80   Zn1   S    
C70   H5    S    
C81   H31   S    
O1    Zn1   S    
C19   C208  A    
C30   H24   S    
C55   H222  S    
C56   H226  S    
C98   O94   S    
C187  O94   S    
O24   Zn6   S    
C144  O11   D    
C129  H150  S    
C192  O98   S    
C54   C55   S    
C47   H203  S    
C127  H144  S    
C13   O44   A    
C123  H138  S    
C1    O1    A    
C100  H82   S    
C31   H57   S    
C97   H73   S    
O17   Zn11  S    
C120  H128  S    
C141  H167  S    
C69   H3    S    
C58   H228  S    
C37   O63   S    
C117  C118  S    
C212  C229  A    
C73   H12   S    
C131  H155  S    
C219  O73   S    
C208  O62   S    
C43   H194  S    
C56   C58   S    
O52   Zn3   S    
C34   C36   S    
C148  O15   D    
C36   H168  S    
C61   C62   S    
C64   H244  S    
C63   C64   S    
C89   H54   S    
C102  H85   S    
C134  O112  D    
C136  H162  S    
O30   Zn7   S    
C69   H256  S    
C54   O72   S    
C116  H117  S    
C198  O105  S    
C57   O53   A    
C111  H108  S    
C99   H78   S    
C82   H36   S    
C182  C195  A    
C58   H229  S    
C114  H111  S    
C52   H215  S    
C180  C193  A    
C35   O49   A    
C87   C88   S    
C44   H196  S    
C13   C90   S    
C148  C166  S    
C41   C42   S    
C77   H23   S    
C113  C154  A    
C46   C124  S    
C32   H68   S    
C52   C53   S    
C40   H186  S    
C60   H236  S    
C26   C27   S    
C51   H214  S    
C138  H164  S    
O35   Zn10  S    
C28   C29   S    
C184  C200  S    
C125  H139  S    
C121  O105  S    
C103  O96   S    
C30   C31   S    
C46   O50   A    
C123  C125  S    
C179  C187  A    
C38   H178  S    
C70   O79   S    
C93   H63   S    
C107  H98   S    
C108  H102  S    
C94   H64   S    
C226  O79   S    
C31   H46   S    
C165  C201  A    
C119  O104  S    
C180  C188  A    
C62   H240  S    
C169  O22   A    
C28   O59   S    
C178  O18   A    
C64   H245  S    
C21   C215  A    
C70   C71   S    
C231  O85   S    
C67   O78   S    
C120  H129  S    
C126  H142  S    
C142  O9    D    
C110  H107  S    
C8    C224  A    
O22   Zn1   S    
C16   C176  S    
C154  C190  A    
O69   Zn5   S    
C11   C172  S    
C47   H201  S    
C84   H41   S    
C81   O85   S    
C91   H56   S    
C133  C152  S    
C75   H19   S    
C1    O58   A    
C214  O67   S    
O45   Zn2   S    
O55   Zn4   S    
C103  H87   S    
C80   H29   S    
C98   H76   S    
C49   H206  S    
C215  O68   S    
C67   H253  S    
C5    O89   S    
C76   O83   S    
C189  O21   A    
C73   H14   S    
C211  O19   A    
O50   Zn3   S    
C211  O17   A    
C85   H43   S    
C202  O108  S    
C121  H131  S    
C71   H7    S    
C84   H39   S    
C136  C154  S    
C26   O57   S    
C5    C218  A    
C175  O38   A    
C27   H202  S    
C224  O77   S    
C28   H213  S    
C116  H119  S    
C50   C51   S    
C78   H26   S    
C82   H34   S    
C97   H72   S    
C70   H4    S    
C20   C209  A    
C14   C231  A    
C3    C14   A    
C160  C195  A    
C90   C152  A    
C48   C49   S    
C148  H174  S    
C3    O87   S    
C45   H199  S    
C144  C163  S    
C95   H66   S    
C72   O81   S    
C133  O111  D    
C136  O3    D    
C107  O98   S    
C63   H243  S    
C51   H212  S    
C34   O62   S    
C41   O65   S    
C55   H223  S    
O58   Zn6   S    
C129  H152  S    
C195  O101  S    
C66   H251  S    
C109  H104  S    
O43   Zn12  S    
C12   C230  A    
C153  C188  A    
C15   C175  S    
C105  C106  S    
C213  O66   S    
C42   H189  S    
C32   C33   S    
C3    C216  A    
C157  C192  A    
C14   C174  S    
C109  C110  S    
C169  O24   A    
C204  O57   S    
O56   Zn4   S    
C61   H237  S    
C184  C197  A    
C92   C93   S    
O47   Zn7   S    
C33   H90   S    
C61   O75   S    
C111  C114  S    
C126  O107  S    
C156  O80   A    
C29   H246  S    
C29   H2    S    
C110  H105  S    
C54   H220  S    
C100  O95   S    
C130  H153  S    
C161  C196  A    
C212  O65   S    
C175  O35   A    
C103  C104  S    
C132  C151  S    
C209  C227  A    
C75   H17   S    
O53   Zn4   S    
O29   Zn1   S    
C213  C230  A    
C64   H247  S    
C86   H44   S    
C12   C173  S    
C124  C164  A    
C179  C194  A    
C33   H113  S    
C228  O82   S    
C91   H58   S    
C206  O60   S    
O33   Zn10  S    
C53   H218  S    
C30   H13   S    
C22   C216  A    
C49   H208  S    
C156  O36   A    
C232  O86   S    
C81   C82   S    
C143  O10   D    
C65   H249  S    
C167  C181  S    
C128  O108  S    
C162  C197  A    
C149  O16   D    
C96   O93   S    
C50   H210  S    
C167  O47   A    
C109  O99   S    
C145  H172  S    
C62   H239  S    
C59   H231  S    
C83   H37   S    
C21   C213  A    
C188  O95   S    
C6    C15   A    
C1    C177  S    
C207  C225  A    
C63   O76   S    
C102  H83   S    
C139  C158  S    
C106  H95   S    
C5    C16   A    
C200  O13   A    
C176  O37   A    
O51   Zn3   S    
C80   H28   S    
C185  C198  A    
O27   Zn6   S    
C191  O97   S    
C143  C162  S    
C92   O90   S    
C208  C226  A    
C7    O92   S    
C65   O77   S    
C118  H122  S    
C10   C228  A    
C139  H165  S    
C33   H101  S    
C43   H193  S    
C12   C232  A    
O46   Zn2   S    
C115  H116  S    
C173  O31   A    
C122  H133  S    
C184  C202  A    
C74   C75   S    
C84   H40   S    
C18   C23   S    
C104  H88   S    
C123  H137  S    
C19   C22   S    
C78   O84   S    
C76   C77   S    
C38   H181  S    
O54   Zn4   S    
C41   H188  S    
O40   Zn12  S    
C74   O82   S    
C229  O83   S    
C150  C165  A    
O44   Zn2   S    
C65   H248  S    
O28   Zn5   S    
C68   O52   A    
C24   O43   A    
C17   C204  A    
C104  H89   S    
C87   H49   S    
C186  O93   S    
C53   H217  S    
C9    C223  A    
C141  C160  S    
C73   H11   S    
C101  C153  A    
C50   O70   S    
C131  H158  S    
C96   C97   S    
C105  H93   S    
C121  C122  S    
C110  H106  S    
C86   H47   S    
C76   H21   S    
C155  C191  A    
C170  O23   A    
C112  C179  S    
C26   H1    S    
C11   C227  A    
C147  H173  S    
C118  H123  S    
C140  H166  S    
C4    C217  A    
C56   O73   S    
C22   C214  A    
C116  H118  S    
C99   H77   S    
C58   H230  S    
C55   H225  S    
C88   H51   S    
C138  O5    D    
C79   C151  A    
C171  O29   A    
C7    C16   A    
C95   H67   S    
C72   H9    S    
C201  O107  S    
C77   H22   S    
C147  O14   D    
O39   Zn11  S    
C34   H124  S    
C145  C164  S    
C9    C170  S    
C60   H233  S    
C4    O88   S    
C32   H79   S    
C168  C203  A    
C30   O60   S    
C183  C203  A    
C4    C15   A    
C149  H175  S    
C194  O100  S    
C139  O6    D    
C74   H15   S    
C138  C157  S    
C128  H148  S    
C38   H179  S    
C144  H171  S    
C92   H59   S    
C95   H69   S    
C42   H192  S    
C93   H62   S    
C107  H97   S    
C108  H99   S    
C115  O101  S    
C94   H65   S    
C146  C166  A    
C132  O110  D    
C6    C219  A    
C62   H241  S    
C223  O76   S    
C81   H32   S    
C65   C66   S    
C10   C226  A    
C24   O48   A    
C119  H126  S    
C120  H130  S    
C126  H143  S    
O21   Zn11  S    
C178  C182  S    
C140  O7    D    
C8    C221  A    
C129  H151  S    
