data_mof_unit_7984.cif
_audit_creation_date              2012-12-11T15:07:05-0500
_audit_creation_method            fapswitch 2.2
_symmetry_space_group_name_H-M    P1
_symmetry_Int_Tables_number       1
_space_group_crystal_system       triclinic
_cell_length_a                    19.648323
_cell_length_b                    11.321495
_cell_length_c                    18.709917
_cell_angle_alpha                 90.000023
_cell_angle_beta                  90.50645
_cell_angle_gamma                 89.999963
_cell_volume                      4161.82833408

loop_
_atom_site_label
_atom_site_type_symbol
_atom_type_description
_atom_site_fract_x
_atom_site_fract_y
_atom_site_fract_z
_atom_type_partial_charge
C1    C     C_R   0.760568 0.525920 0.639916 0.547200
C2    C     C_3   0.252070 0.058488 0.563682 0.063183
C3    C     C_R   0.741228 0.038415 0.153140 0.555113
C4    C     C_R   0.774112 0.131448 0.858647 0.536619
C5    C     C_R   0.225888 0.131448 0.141352 0.536619
C6    C     C_R   0.274112 0.631448 0.858647 0.536620
C7    C     C_R   0.725888 0.631448 0.141352 0.536620
C8    C     C_R   0.945847 0.356959 0.861127 0.537584
C9    C     C_R   0.054153 0.356959 0.138873 0.537584
C10   C     C_R   0.445847 0.856959 0.861127 0.537584
C11   C     C_R   0.554153 0.856959 0.138873 0.537584
C12   C     C_3   0.690391 0.140173 0.464175 -0.244702
C13   C     C_3   0.247930 0.558487 0.436318 0.063183
C14   C     C_3   0.309609 0.140174 0.535825 -0.244704
C15   C     C_3   0.190391 0.640173 0.464175 -0.244704
C16   C     C_3   0.809608 0.640175 0.535826 -0.244704
C17   C     C_3   0.690813 0.139844 0.545901 -0.233389
C18   C     C_3   0.309186 0.139844 0.454099 -0.233390
C19   C     C_3   0.190813 0.639844 0.545901 -0.233389
C20   C     C_3   0.809186 0.639846 0.454099 -0.233390
C21   C     C_3   0.753246 0.939307 0.478836 -0.223799
C22   C     C_3   0.246756 0.939307 0.521164 -0.223799
C23   C     C_3   0.253244 0.439306 0.478836 -0.223799
C24   C     C_3   0.752070 0.558488 0.563682 0.063183
C25   C     C_3   0.746756 0.439307 0.521164 -0.223798
C26   C     C_3   0.759021 0.087037 0.574867 0.067790
C27   C     C_3   0.240979 0.087037 0.425133 0.067790
C28   C     C_3   0.259020 0.587036 0.574867 0.067790
C29   C     C_3   0.740979 0.587038 0.425133 0.067788
C30   C     C_3   0.756247 0.955484 0.560570 -0.265026
C31   C     C_3   0.243754 0.955484 0.439429 -0.265025
C32   C     C_3   0.256247 0.455483 0.560571 -0.265025
C33   C     C_R   0.239432 0.525920 0.360084 0.547200
C34   C     C_3   0.743754 0.455485 0.439430 -0.265026
C35   C     C_3   0.822310 0.130958 0.533224 -0.225780
C36   C     C_3   0.177690 0.130957 0.466776 -0.225780
C37   C     C_3   0.322310 0.630957 0.533224 -0.225781
C38   C     C_3   0.677689 0.630958 0.466776 -0.225780
C39   C     C_3   0.005030 0.209449 0.459215 -0.249202
C40   C     C_3   0.994969 0.209449 0.540785 -0.249202
C41   C     C_3   0.505031 0.709449 0.459215 -0.249201
C42   C     C_3   0.494969 0.709449 0.540785 -0.249200
C43   C     C_3   0.074604 0.391938 0.490340 -0.296870
C44   C     C_R   0.260568 0.025920 0.639916 0.547200
C45   C     C_3   0.925396 0.391939 0.509660 -0.296868
C46   C     C_3   0.574602 0.891943 0.490339 -0.296861
C47   C     C_3   0.425395 0.891937 0.509659 -0.296872
C48   C     C_3   0.958613 0.412829 0.437678 0.097613
C49   C     C_3   0.041387 0.412829 0.562322 0.097613
C50   C     C_3   0.458611 0.912827 0.437677 0.097610
C51   C     C_3   0.541386 0.912829 0.562322 0.097613
C52   C     C_3   0.023926 0.337004 0.435107 0.050655
C53   C     C_3   0.976074 0.337004 0.564893 0.050655
C54   C     C_3   0.523925 0.837004 0.435106 0.050657
C55   C     C_R   0.739432 0.025920 0.360084 0.547200
C56   C     C_3   0.476073 0.837004 0.564893 0.050654
C57   C     C_3   0.812771 0.003350 0.044301 0.106855
C58   C     C_3   0.187229 0.003350 0.955699 0.106855
C59   C     C_3   0.312771 0.503350 0.044301 0.106854
C60   C     C_3   0.687229 0.503350 0.955699 0.106855
C61   C     C_R   0.772884 0.118185 0.650609 0.554217
C62   C     C_R   0.227116 0.118185 0.349391 0.554217
C63   C     C_R   0.272884 0.618184 0.650609 0.554217
C64   C     C_R   0.727116 0.618185 0.349392 0.554218
C65   C     C_3   0.818859 0.019654 0.964531 -0.183798
C66   C     C_3   0.814031 0.125284 0.451416 -0.255108
C67   C     C_3   0.181141 0.019653 0.035469 -0.183798
C68   C     C_3   0.318859 0.519654 0.964531 -0.183798
C69   C     C_3   0.681141 0.519653 0.035469 -0.183799
C70   C     C_3   0.684968 0.042913 0.035150 -0.267641
C71   C     C_3   0.315032 0.042913 0.964850 -0.267641
C72   C     C_3   0.184968 0.542913 0.035150 -0.267641
C73   C     C_3   0.815032 0.542913 0.964850 -0.267641
C74   C     C_3   0.766739 0.203466 0.061880 -0.253022
C75   C     C_3   0.233261 0.203466 0.938120 -0.253022
C76   C     C_3   0.266739 0.703466 0.061880 -0.253022
C77   C     C_3   0.185969 0.125281 0.548583 -0.255107
C78   C     C_3   0.733261 0.703466 0.938120 -0.253022
C79   C     C_3   0.751769 0.074070 0.076399 0.059771
C80   C     C_3   0.248231 0.074070 0.923601 0.059771
C81   C     C_3   0.251769 0.574070 0.076399 0.059771
C82   C     C_3   0.748231 0.574070 0.923601 0.059771
C83   C     C_3   0.761694 0.102660 0.936222 0.027363
C84   C     C_3   0.238306 0.102660 0.063778 0.027363
C85   C     C_3   0.261694 0.602660 0.936222 0.027363
C86   C     C_3   0.738306 0.602660 0.063778 0.027363
C87   C     C_3   0.694493 0.038577 0.952358 -0.278073
C88   C     C_3   0.314030 0.625282 0.451417 -0.255107
C89   C     C_3   0.305507 0.038576 0.047642 -0.278073
C90   C     C_3   0.194493 0.538577 0.952358 -0.278073
C91   C     C_3   0.805507 0.538577 0.047642 -0.278073
C92   C     C_3   0.759684 0.220255 0.979750 -0.240796
C93   C     C_3   0.240316 0.220255 0.020251 -0.240796
C94   C     C_3   0.259684 0.720255 0.979750 -0.240796
C95   C     C_3   0.740316 0.720255 0.020251 -0.240796
C96   C     C_3   0.006966 0.483432 0.039869 -0.225427
C97   C     C_3   0.993034 0.483432 0.960131 -0.225427
C98   C     C_3   0.506966 0.983432 0.039869 -0.225427
C99   C     C_3   0.685969 0.625282 0.548584 -0.255106
C100  C     C_3   0.493034 0.983432 0.960131 -0.225427
C101  C     C_3   0.073884 0.298035 0.009516 -0.277452
C102  C     C_3   0.926116 0.298035 0.990484 -0.277452
C103  C     C_3   0.573884 0.798035 0.009516 -0.277452
C104  C     C_3   0.426116 0.798035 0.990484 -0.277452
C105  C     C_3   0.961060 0.281345 0.063173 -0.200139
C106  C     C_3   0.038940 0.281345 0.936827 -0.200139
C107  C     C_3   0.461060 0.781345 0.063173 -0.200139
C108  C     C_3   0.538940 0.781345 0.936827 -0.200139
C109  C     C_R   0.946731 0.344755 0.637435 0.585425
C110  C     C_3   0.747930 0.058488 0.436318 0.063184
C111  C     C_R   0.053269 0.344755 0.362565 0.585425
C112  C     C_R   0.446731 0.844755 0.637435 0.585424
C113  C     C_R   0.553269 0.844755 0.362565 0.585426
C114  C     C_3   0.025538 0.355951 0.064896 0.027127
C115  C     C_3   0.974462 0.355951 0.935104 0.027127
C116  C     C_3   0.525538 0.855951 0.064896 0.027126
C117  C     C_3   0.474462 0.855951 0.935104 0.027127
C118  C     C_R   0.758772 0.538415 0.846860 0.555112
C119  C     C_R   0.241228 0.538415 0.153140 0.555114
C120  C     C_R   0.258772 0.038415 0.846860 0.555113
Cl1   Cl    Cl    0.596976 0.879685 0.637085 -0.666861
Cl2   Cl    Cl    0.403023 0.879682 0.362911 -0.666857
Cl3   Cl    Cl    0.096976 0.379687 0.637087 -0.666857
Cl4   Cl    Cl    0.903024 0.379687 0.362912 -0.666856
Cl5   Cl    Cl    0.893716 0.021520 0.087808 -0.660161
Cl6   Cl    Cl    0.106284 0.021520 0.912192 -0.660161
Cl7   Cl    Cl    0.393716 0.521520 0.087808 -0.660161
Cl8   Cl    Cl    0.606284 0.521520 0.912192 -0.660161
Cr1   Cr    Cr6+3 0.885690 0.492860 0.745310 1.023274
Cr2   Cr    Cr6+3 0.111880 0.178590 0.246990 1.047990
Cr3   Cr    Cr6+3 0.388120 0.678590 0.753010 1.047990
Cr4   Cr    Cr6+3 0.611880 0.678590 0.246990 1.047991
Cr5   Cr    Cr6+3 0.114310 0.492860 0.254690 1.023274
Cr6   Cr    Cr6+3 0.385690 0.992860 0.745310 1.023273
Cr7   Cr    Cr6+3 0.614310 0.992860 0.254690 1.023273
Cr8   Cr    Cr6+3 0.729880 0.332270 0.748190 1.052593
Cr9   Cr    Cr6+3 0.270120 0.332270 0.251810 1.052593
Cr10  Cr    Cr6+3 0.229880 0.832270 0.748190 1.052593
Cr11  Cr    Cr6+3 0.770120 0.832270 0.251810 1.052594
Cr12  Cr    Cr6+3 0.888120 0.178590 0.753010 1.047990
H1    H     H_    0.639371 0.125036 0.441580 0.130308
H2    H     H_    0.197687 0.899130 0.535522 0.131169
H3    H     H_    0.884191 0.353848 0.003977 0.106396
H4    H     H_    0.573476 0.805384 0.892156 0.158193
H5    H     H_    0.426524 0.805384 0.107844 0.158194
H6    H     H_    0.073476 0.305384 0.892156 0.158194
H7    H     H_    0.926524 0.305383 0.107844 0.158194
H8    H     H_    0.976489 0.188185 0.069693 0.225739
H9    H     H_    0.023511 0.188185 0.930306 0.225739
H10   H     H_    0.476489 0.688185 0.069693 0.225739
H11   H     H_    0.523511 0.688185 0.930306 0.225739
H12   H     H_    0.906997 0.214198 0.970140 0.152311
H13   H     H_    0.302314 0.399131 0.464478 0.131168
H14   H     H_    0.093003 0.214198 0.029859 0.152311
H15   H     H_    0.406997 0.714198 0.970140 0.152311
H16   H     H_    0.593003 0.714198 0.029859 0.152311
H17   H     H_    0.647451 0.086583 0.565275 0.162214
H18   H     H_    0.352549 0.086584 0.434726 0.162210
H19   H     H_    0.147451 0.586583 0.565275 0.162214
H20   H     H_    0.852549 0.586586 0.434726 0.162213
H21   H     H_    0.713048 0.878718 0.462440 0.105263
H22   H     H_    0.286957 0.878722 0.537559 0.105262
H23   H     H_    0.213044 0.378721 0.462441 0.105263
H24   H     H_    0.697686 0.399132 0.535522 0.131168
H25   H     H_    0.786956 0.378722 0.537559 0.105263
H26   H     H_    0.712618 0.914062 0.585991 0.188511
H27   H     H_    0.287382 0.914062 0.414008 0.188511
H28   H     H_    0.212618 0.414061 0.585992 0.188510
H29   H     H_    0.787383 0.414064 0.414009 0.188511
H30   H     H_    0.857947 0.077977 0.427616 0.141040
H31   H     H_    0.142053 0.077972 0.572383 0.141040
H32   H     H_    0.357947 0.577974 0.427617 0.141041
H33   H     H_    0.642053 0.577973 0.572383 0.141041
H34   H     H_    0.812781 0.214759 0.427718 0.159823
H35   H     H_    0.802293 0.912860 0.583856 0.119443
H36   H     H_    0.187217 0.214757 0.572283 0.159823
H37   H     H_    0.312781 0.714758 0.427718 0.159824
H38   H     H_    0.687217 0.714758 0.572283 0.159828
H39   H     H_    0.836821 0.216075 0.555022 0.094930
H40   H     H_    0.163181 0.216076 0.444979 0.094929
H41   H     H_    0.336820 0.716074 0.555022 0.094930
H42   H     H_    0.663179 0.716076 0.444980 0.094929
H43   H     H_    0.197707 0.912860 0.416144 0.119443
H44   H     H_    0.302293 0.412860 0.583856 0.119443
H45   H     H_    0.697708 0.412860 0.416144 0.119443
H46   H     H_    0.042194 0.143386 0.443445 0.115487
H47   H     H_    0.957805 0.143387 0.556554 0.115487
H48   H     H_    0.542195 0.643388 0.443445 0.115487
H49   H     H_    0.360629 0.125039 0.558420 0.130306
H50   H     H_    0.457806 0.643387 0.556554 0.115486
H51   H     H_    0.957279 0.181177 0.432415 0.179661
H52   H     H_    0.042720 0.181176 0.567584 0.179660
H53   H     H_    0.457280 0.681175 0.432415 0.179660
H54   H     H_    0.542721 0.681177 0.567584 0.179664
H55   H     H_    0.616575 0.834797 0.502536 0.144564
H56   H     H_    0.383426 0.834781 0.497459 0.144568
H57   H     H_    0.116573 0.334783 0.502540 0.144567
H58   H     H_    0.883426 0.334785 0.497459 0.144567
H59   H     H_    0.971480 0.508551 0.433990 0.144721
H60   H     H_    0.139371 0.625037 0.441580 0.130307
H61   H     H_    0.028520 0.508550 0.566010 0.144721
H62   H     H_    0.471477 0.008549 0.433988 0.144722
H63   H     H_    0.528519 0.008550 0.566012 0.144723
H64   H     H_    0.906014 0.474390 0.530158 0.095397
H65   H     H_    0.093986 0.474387 0.469842 0.095396
H66   H     H_    0.406012 0.974387 0.530158 0.095397
H67   H     H_    0.593977 0.974397 0.469840 0.095392
H68   H     H_    0.801893 0.912982 0.054568 0.152804
H69   H     H_    0.198107 0.912982 0.945432 0.152804
H70   H     H_    0.301893 0.412982 0.054568 0.152804
H71   H     H_    0.860629 0.625040 0.558420 0.130307
H72   H     H_    0.698107 0.412982 0.945432 0.152804
H73   H     H_    0.700140 0.230571 0.445767 0.110059
H74   H     H_    0.299858 0.230572 0.554233 0.110060
H75   H     H_    0.200141 0.730572 0.445767 0.110060
H76   H     H_    0.799858 0.730573 0.554234 0.110060
H77   H     H_    0.870663 0.048480 0.951099 0.189733
H78   H     H_    0.129337 0.048480 0.048901 0.189733
H79   H     H_    0.370663 0.548480 0.951099 0.189733
H80   H     H_    0.629337 0.548480 0.048901 0.189733
H81   H     H_    0.814884 0.932603 0.937741 0.098281
H82   H     H_    0.864334 0.069438 0.546195 0.132460
H83   H     H_    0.185116 0.932603 0.062259 0.098281
H84   H     H_    0.314884 0.432603 0.937741 0.098281
H85   H     H_    0.685116 0.432603 0.062259 0.098281
H86   H     H_    0.665002 0.962532 0.058721 0.102213
H87   H     H_    0.334998 0.962532 0.941279 0.102213
H88   H     H_    0.165002 0.462532 0.058721 0.102212
H89   H     H_    0.834998 0.462532 0.941279 0.102213
H90   H     H_    0.696025 0.946485 0.932392 0.113676
H91   H     H_    0.303975 0.946485 0.067608 0.113676
H92   H     H_    0.196025 0.446485 0.932392 0.113676
H93   H     H_    0.135666 0.069438 0.453804 0.132461
H94   H     H_    0.803975 0.446485 0.067608 0.113676
H95   H     H_    0.729968 0.259573 0.091000 0.107577
H96   H     H_    0.270032 0.259573 0.908999 0.107577
H97   H     H_    0.229968 0.759573 0.091000 0.107577
H98   H     H_    0.770032 0.759573 0.908999 0.107577
H99   H     H_    0.818181 0.227996 0.081079 0.169110
H100  H     H_    0.181819 0.227996 0.918921 0.169109
H101  H     H_    0.318181 0.727996 0.081079 0.169110
H102  H     H_    0.681819 0.727996 0.918921 0.169109
H103  H     H_    0.793489 0.287404 0.957821 0.092791
H104  H     H_    0.364334 0.569438 0.546195 0.132460
H105  H     H_    0.206511 0.287404 0.042180 0.092791
H106  H     H_    0.293489 0.787404 0.957821 0.092791
H107  H     H_    0.706511 0.787404 0.042180 0.092791
H108  H     H_    0.706939 0.249633 0.972725 0.138764
H109  H     H_    0.293061 0.249633 0.027275 0.138764
H110  H     H_    0.206939 0.749633 0.972725 0.138764
H111  H     H_    0.793061 0.749633 0.027275 0.138764
H112  H     H_    0.647429 0.113297 0.046981 0.139480
H113  H     H_    0.352571 0.113297 0.953019 0.139480
H114  H     H_    0.147429 0.613297 0.046981 0.139480
H115  H     H_    0.635666 0.569437 0.453805 0.132460
H116  H     H_    0.852571 0.613297 0.953019 0.139481
H117  H     H_    0.680333 0.228588 0.566183 0.135552
H118  H     H_    0.319667 0.228589 0.433817 0.135552
H119  H     H_    0.180332 0.728588 0.566183 0.135552
H120  H     H_    0.819666 0.728591 0.433818 0.135552
H121  H     H_    0.651199 0.083449 0.925073 0.140770
H122  H     H_    0.348801 0.083448 0.074927 0.140770
H123  H     H_    0.151199 0.583449 0.925073 0.140770
H124  H     H_    0.848801 0.583449 0.074927 0.140770
H125  H     H_    0.047013 0.548233 0.052123 0.132604
H126  H     H_    0.802317 0.899135 0.464479 0.131167
H127  H     H_    0.952987 0.548233 0.947877 0.132605
H128  H     H_    0.547013 0.048233 0.052123 0.132604
H129  H     H_    0.452987 0.048233 0.947877 0.132605
H130  H     H_    0.960868 0.514393 0.068351 0.147790
H131  H     H_    0.039132 0.514393 0.931649 0.147790
H132  H     H_    0.460867 0.014394 0.068351 0.147790
H133  H     H_    0.539132 0.014393 0.931649 0.147790
H134  H     H_    0.615809 0.853848 0.996022 0.106396
H135  H     H_    0.384191 0.853848 0.003977 0.106396
H136  H     H_    0.115809 0.353848 0.996022 0.106396
O1    O     O_R   0.957210 0.449410 0.665480 -0.477608
O2    O     O_R   0.167480 0.095300 0.164000 -0.531279
O3    O     O_R   0.332520 0.595300 0.836000 -0.531280
O4    O     O_R   0.667480 0.595300 0.164000 -0.531279
O5    O     O_R   0.946380 0.253940 0.826940 -0.477425
O6    O     O_R   0.053620 0.253940 0.173060 -0.477425
O7    O     O_R   0.446380 0.753940 0.826940 -0.477425
O8    O     O_R   0.553620 0.753940 0.173060 -0.477424
O9    O     O_3   0.834560 0.334570 0.748840 -0.326109
O10   O     O_3   0.165440 0.334570 0.251160 -0.326109
O11   O     O_3   0.334560 0.834570 0.748840 -0.326108
O12   O     O_R   0.042790 0.449410 0.334520 -0.477608
O13   O     O_3   0.665440 0.834570 0.251160 -0.326109
O14   O     O_R   0.820730 0.541240 0.668250 -0.528840
O15   O     O_R   0.179270 0.541240 0.331750 -0.528839
O16   O     O_R   0.320730 0.041240 0.668250 -0.528840
O17   O     O_R   0.679270 0.041240 0.331750 -0.528839
O18   O     O_R   0.714240 0.455060 0.663710 -0.519084
O19   O     O_R   0.285760 0.455060 0.336290 -0.519082
O20   O     O_R   0.214240 0.955060 0.663710 -0.519083
O21   O     O_R   0.785760 0.955060 0.336290 -0.519083
O22   O     O_R   0.736780 0.204870 0.675910 -0.506589
O23   O     O_R   0.457210 0.949410 0.665480 -0.477610
O24   O     O_R   0.263220 0.204870 0.324090 -0.506589
O25   O     O_R   0.236780 0.704870 0.675910 -0.506589
O26   O     O_R   0.763220 0.704870 0.324090 -0.506588
O27   O     O_R   0.833070 0.087590 0.673490 -0.535453
O28   O     O_R   0.166930 0.087590 0.326510 -0.535453
O29   O     O_R   0.333070 0.587590 0.673490 -0.535453
O30   O     O_R   0.666930 0.587590 0.326510 -0.535453
O31   O     O_R   0.946890 0.246800 0.676300 -0.470071
O32   O     O_R   0.053110 0.246800 0.323700 -0.470071
O33   O     O_R   0.446890 0.746800 0.676300 -0.470070
O34   O     O_R   0.542790 0.949410 0.334520 -0.477611
O35   O     O_R   0.553110 0.746800 0.323700 -0.470071
O36   O     O_R   0.956650 0.457120 0.827980 -0.500537
O37   O     O_R   0.043350 0.457120 0.172020 -0.500537
O38   O     O_R   0.456650 0.957120 0.827980 -0.500537
O39   O     O_R   0.543350 0.957120 0.172020 -0.500537
O40   O     O_R   0.820220 0.548390 0.818890 -0.528609
O41   O     O_R   0.179780 0.548390 0.181110 -0.528609
O42   O     O_R   0.320220 0.048390 0.818890 -0.528609
O43   O     O_R   0.679780 0.048390 0.181110 -0.528609
O44   O     O_R   0.713680 0.462770 0.826210 -0.454923
O45   O     O_R   0.736260 0.212010 0.826560 -0.495439
O46   O     O_R   0.286320 0.462770 0.173790 -0.454923
O47   O     O_R   0.213680 0.962770 0.826210 -0.454923
O48   O     O_R   0.786320 0.962770 0.173790 -0.454923
O49   O     O_R   0.263740 0.212010 0.173440 -0.495439
O50   O     O_R   0.236260 0.712010 0.826560 -0.495439
O51   O     O_R   0.763740 0.712010 0.173440 -0.495439
O52   O     O_R   0.832520 0.095300 0.836000 -0.531279

loop_
_geom_bond_atom_site_label_1
_geom_bond_atom_site_label_2
_ccdc_geom_bond_type
C30   H35   S    
C108  H4    S    
C3    C79   S    
C21   C110  S    
C88   H37   S    
C40   H47   S    
C91   H94   S    
C6    C85   S    
C1    O18   A    
C9    C114  S    
C19   H119  S    
Cr8   O9    S    
C25   H24   S    
C74   C92   S    
Cr11  O26   S    
C41   H53   S    
C76   C94   S    
C14   H49   S    
C93   H109  S    
C50   Cl2   S    
C2    C22   S    
C3    O43   A    
Cr12  O9    S    
C97   C115  S    
C64   O30   A    
Cr6   O38   S    
C59   H70   S    
C25   C34   S    
C29   C64   S    
C78   H98   S    
C37   H104  S    
C96   C114  S    
C75   H100  S    
C46   H67   S    
C11   O8    A    
Cr1   O36   S    
Cr11  O51   S    
C100  H129  S    
C50   H62   S    
C112  O23   A    
C48   H59   S    
C27   C31   S    
Cr9   O19   S    
C15   H75   S    
C35   C66   S    
C118  O44   A    
C66   H30   S    
C119  O41   A    
C76   H97   S    
C13   C33   S    
C108  H11   S    
C39   H51   S    
C78   C82   S    
C40   H52   S    
C77   H31   S    
C119  O46   A    
C37   H41   S    
C43   H57   S    
C89   H91   S    
C67   H83   S    
C60   H72   S    
C73   C91   S    
C33   O19   A    
Cr8   O18   S    
Cr7   O39   S    
C31   H27   S    
C74   C79   S    
C23   H13   S    
C51   Cl1   S    
C82   C118  S    
Cr11  O13   S    
C75   C93   S    
C104  C117  S    
Cr1   O40   S    
C53   C109  S    
C5    O49   A    
C70   C79   S    
C67   H78   S    
C70   H86   S    
C103  H134  S    
C85   C90   S    
C81   C119  S    
C61   O27   A    
C106  C115  S    
C36   C77   S    
Cr10  O25   S    
Cr1   O9    S    
C76   H101  S    
C36   H93   S    
C19   H19   S    
C65   H77   S    
C49   C53   S    
C46   C51   S    
C103  C116  S    
C84   C93   S    
C2    C14   S    
C86   C95   S    
Cr5   O41   S    
C28   C63   S    
C58   C67   S    
C48   C52   S    
Cr11  O48   S    
Cr5   O10   S    
C20   H20   S    
Cr4   O13   S    
C66   H34   S    
C100  C117  S    
C104  C107  S    
C112  O33   A    
C69   H80   S    
Cr2   O10   S    
C12   C110  S    
C92   H108  S    
Cr3   O33   S    
C113  O35   A    
C106  H6    S    
Cr5   O15   S    
C57   Cl5   S    
C43   C52   S    
C7    C86   S    
C59   Cl7   S    
C4    O52   A    
C12   H1    S    
C13   C23   S    
C6    O50   A    
C95   H107  S    
C97   H127  S    
C2    C44   S    
C29   C38   S    
C111  O12   A    
C17   H17   S    
C45   C53   S    
C68   C85   S    
C107  H10   S    
C90   H92   S    
C68   H84   S    
C70   C87   S    
C94   H110  S    
C28   C32   S    
C47   C50   S    
C9    O37   A    
C35   H39   S    
Cr4   O4    S    
C49   H61   S    
Cr8   O45   S    
C99   H38   S    
C39   C40   S    
C5    C84   S    
C105  H8    S    
Cr10  O11   S    
C27   C62   S    
C73   H116  S    
C72   C90   S    
C103  H16   S    
Cr5   O12   S    
C8    O36   A    
Cr12  O52   S    
C75   H96   S    
C19   C28   S    
C34   H29   S    
C21   H126  S    
Cr1   O14   S    
C58   Cl6   S    
C77   H36   S    
C7    O51   A    
C4    O45   A    
C72   H114  S    
C17   H117  S    
C70   H112  S    
C58   H69   S    
C101  C106  S    
C118  O40   A    
Cr2   O28   S    
C108  C117  S    
C16   H71   S    
C5    O2    A    
Cr4   O30   S    
C109  O1    A    
C26   C30   S    
C109  O31   A    
C38   H42   S    
C62   O28   A    
Cr7   O17   S    
C10   C117  S    
C15   H60   S    
Cr7   O43   S    
Cr9   O10   S    
Cr8   O44   S    
Cr10  O50   S    
C9    O6    A    
Cr4   O35   S    
C107  C116  S    
C55   O17   A    
C1    C24   S    
C102  H3    S    
C74   H95   S    
C73   H89   S    
C102  H12   S    
C47   C56   S    
C83   C87   S    
C41   C42   S    
C37   C88   S    
C36   H40   S    
Cr5   O37   S    
C65   H81   S    
C15   C19   S    
C57   H68   S    
C50   C54   S    
C26   C61   S    
Cr6   O16   S    
C86   C91   S    
C22   H22   S    
C92   H103  S    
C49   Cl3   S    
C14   H74   S    
C102  C105  S    
C16   H76   S    
C14   C18   S    
C71   H113  S    
C102  C115  S    
C42   C56   S    
C39   H46   S    
C55   O21   A    
Cr9   O49   S    
C12   C17   S    
C101  H136  S    
C87   H121  S    
Cr3   O3    S    
C72   C81   S    
C58   C80   S    
C38   H115  S    
Cr3   O29   S    
Cr10  O47   S    
C101  C114  S    
C71   H87   S    
C12   H73   S    
C6    O3    A    
Cr3   O7    S    
C51   H63   S    
C64   O26   A    
C47   H56   S    
C68   H79   S    
C35   H82   S    
C95   H111  S    
C97   H131  S    
C25   H25   S    
C29   C34   S    
C41   H48   S    
C10   O7    A    
C34   H45   S    
C18   H18   S    
C99   H33   S    
C60   Cl8   S    
C78   C95   S    
C46   C54   S    
Cr6   O11   S    
C11   C116  S    
C94   H106  S    
Cr4   O8    S    
C98   C100  S    
C7    O4    A    
C73   C82   S    
C45   C48   S    
C96   H125  S    
C47   H66   S    
C59   C81   S    
C57   C65   S    
C38   C99   S    
C69   H85   S    
C27   C36   S    
C87   H90   S    
C21   C30   S    
C113  O34   A    
C98   H132  S    
C23   C32   S    
C2    C77   S    
C4    C83   S    
C45   H64   S    
C1    O14   A    
Cr6   O23   S    
C18   H118  S    
C72   H88   S    
C89   H122  S    
C91   H124  S    
C80   C120  S    
C88   H32   S    
C43   H65   S    
C24   C99   S    
C62   O24   A    
C57   C79   S    
C63   O29   A    
Cr12  O5    S    
Cr6   O42   S    
C46   H55   S    
C83   C92   S    
C78   H102  S    
C17   C26   S    
C60   C69   S    
Cr11  O21   S    
C107  H5    S    
C65   C83   S    
C120  O47   A    
C96   H130  S    
C105  H7    S    
C54   C113  S    
C51   C56   S    
C74   H99   S    
C42   H54   S    
C42   H50   S    
Cr7   O34   S    
C60   C82   S    
C28   C37   S    
Cr1   O1    S    
C103  C108  S    
C120  O42   A    
C75   C80   S    
C8    C115  S    
C16   C20   S    
C39   C52   S    
C67   C84   S    
C104  H15   S    
C106  H9    S    
C71   C80   S    
C33   O15   A    
Cr8   O22   S    
C23   H23   S    
C20   C29   S    
C111  O32   A    
C21   H21   S    
C22   C31   S    
C105  C114  S    
C24   C25   S    
C30   H26   S    
Cr10  O20   S    
C98   H128  S    
Cr9   O46   S    
C43   C49   S    
C52   C111  S    
C45   H58   S    
C66   C110  S    
Cr2   O2    S    
C59   C68   S    
Cr7   O13   S    
C85   C94   S    
C98   C116  S    
C3    O48   A    
C71   C89   S    
C96   C97   S    
C90   H123  S    
C104  H135  S    
C93   H105  S    
C20   H120  S    
Cr12  O27   S    
C63   O25   A    
C13   C15   S    
C55   C110  S    
C84   C89   S    
C61   O22   A    
C44   O16   A    
C31   H43   S    
C44   O20   A    
C32   H44   S    
C18   C27   S    
C101  H14   S    
C76   C81   S    
C48   Cl4   S    
C10   O38   A    
C100  H133  S    
C32   H28   S    
Cr2   O6    S    
Cr3   O11   S    
C8    O5    A    
Cr2   O32   S    
C22   H2    S    
C11   O39   A    
C13   C88   S    
C26   C35   S    
C41   C54   S    
Cr12  O31   S    
C16   C24   S    
C40   C53   S    
Cr9   O24   S    
C56   C112  S    
C69   C86   S    
