data_mof_unit_47428.cif
_audit_creation_date              2013-03-05T15:56:48-0500
_audit_creation_method            fapswitch 2.2
_symmetry_space_group_name_H-M    P1
_symmetry_Int_Tables_number       1
_space_group_crystal_system       triclinic
_cell_length_a                    20.827962
_cell_length_b                    21.798321
_cell_length_c                    13.867794
_cell_angle_alpha                 90.052831
_cell_angle_beta                  90.002687
_cell_angle_gamma                 90.044409
_cell_volume                      6296.17639099

loop_
_atom_site_label
_atom_site_type_symbol
_atom_site_description
_atom_site_fract_x
_atom_site_fract_y
_atom_site_fract_z
_atom_type_partial_charge
O1    O     O_R   0.064880 0.435140 0.582280 -0.531654
O2    O     O_R   0.935120 0.564860 0.417720 -0.565590
O3    O     O_R   0.935120 0.564860 0.582280 -0.531820
O4    O     O_R   0.064880 0.435140 0.417720 -0.564701
O5    O     O_R   0.935120 0.435140 0.417720 -0.605129
O6    O     O_R   0.064880 0.564860 0.582280 -0.548622
O7    O     O_R   0.064880 0.564860 0.417720 -0.605301
O8    O     O_R   0.935120 0.435140 0.582280 -0.551488
O9    O     O_R   0.564880 0.935140 0.582280 -0.608434
O10   O     O_R   0.435120 0.064860 0.417720 -0.594662
O11   O     O_R   0.435120 0.064860 0.582280 -0.608623
O12   O     O_R   0.564880 0.935140 0.417720 -0.594749
O13   O     O_R   0.435120 0.935140 0.417720 -0.558534
O14   O     O_R   0.564880 0.064860 0.582280 -0.544261
O15   O     O_R   0.564880 0.064860 0.417720 -0.559909
O16   O     O_R   0.435120 0.935140 0.582280 -0.545630
C1    C     C_R   0.087246 0.416331 0.500009 0.784705
C2    C     C_R   0.912748 0.583664 0.500052 0.784568
C3    C     C_R   0.913014 0.416075 0.500012 0.788055
C4    C     C_R   0.087008 0.583908 0.500066 0.788079
C5    C     C_R   0.587035 0.916063 0.499981 0.780648
C6    C     C_R   0.412966 0.083935 0.500026 0.780637
C7    C     C_R   0.412910 0.916120 0.499948 0.801610
C8    C     C_R   0.587066 0.083900 0.500001 0.801750
Cu1   Cu    Cu3+1 0.000000 0.500000 0.597420 1.027971
Cu2   Cu    Cu3+1 1.000000 0.500000 0.402580 0.967756
Cu3   Cu    Cu3+1 0.500000 0.000000 0.597420 0.964742
Cu4   Cu    Cu3+1 0.500000 1.000000 0.402580 0.967817
C9    C     C_R   0.123667 0.685335 0.547188 -0.229859
C10   C     C_R   0.876561 0.314525 0.546462 -0.231143
C11   C     C_R   0.874357 0.683463 0.448235 -0.237523
C12   C     C_R   0.125517 0.316364 0.448484 -0.237277
C13   C     C_R   0.623879 0.185270 0.452722 -0.204719
C14   C     C_R   0.375877 0.814883 0.451991 -0.203929
C15   C     C_R   0.375659 0.184764 0.549969 -0.262358
C16   C     C_R   0.624438 0.815378 0.550202 -0.262427
C17   C     C_R   0.137292 0.630309 0.500507 -0.080013
C18   C     C_R   0.862766 0.369646 0.500333 -0.080327
C19   C     C_R   0.862391 0.630002 0.500060 -0.034923
C20   C     C_R   0.137610 0.370000 0.499944 -0.034880
C21   C     C_R   0.637405 0.130338 0.499684 -0.069454
C22   C     C_R   0.362528 0.869717 0.499508 -0.070009
C23   C     C_R   0.362874 0.130628 0.500133 -0.041603
C24   C     C_R   0.637107 0.869349 0.500008 -0.041864
C25   C     C_R   0.197272 0.620809 0.455186 0.138280
C26   C     C_R   0.802633 0.379241 0.455547 0.137833
C27   C     C_R   0.804160 0.622065 0.550895 0.129124
C28   C     C_R   0.195946 0.378093 0.550479 0.129630
C29   C     C_R   0.697478 0.120895 0.544863 0.156109
C30   C     C_R   0.302605 0.879073 0.545202 0.155006
C31   C     C_R   0.304145 0.122411 0.450778 0.134206
C32   C     C_R   0.695733 0.877404 0.450344 0.133587
C33   C     C_R   0.241953 0.669792 0.452507 0.087771
C34   C     C_R   0.757884 0.330302 0.453023 0.087752
C35   C     C_R   0.759032 0.670607 0.551468 0.040831
C36   C     C_R   0.241090 0.329565 0.551045 0.040803
C37   C     C_R   0.742510 0.169607 0.546347 0.083015
C38   C     C_R   0.257626 0.830325 0.546819 0.082787
C39   C     C_R   0.259749 0.171470 0.448300 0.044553
C40   C     C_R   0.740101 0.828321 0.447857 0.044467
C41   C     C_R   0.227338 0.725819 0.499762 -0.044358
C42   C     C_R   0.772668 0.274179 0.499729 -0.044355
C43   C     C_R   0.772227 0.725369 0.499862 -0.012961
C44   C     C_R   0.227761 0.274618 0.499846 -0.012857
C45   C     C_R   0.727797 0.225639 0.499353 -0.046293
C46   C     C_R   0.272172 0.774387 0.499285 -0.046078
C47   C     C_R   0.273361 0.226602 0.498772 -0.014339
C48   C     C_R   0.726618 0.773371 0.498734 -0.014350
C49   C     C_R   0.168024 0.733221 0.547922 0.084996
C50   C     C_R   0.832193 0.266650 0.547229 0.085218
C51   C     C_R   0.830913 0.732189 0.449326 0.013951
C52   C     C_R   0.168947 0.267623 0.449672 0.014139
C53   C     C_R   0.668319 0.233118 0.451718 0.083675
C54   C     C_R   0.331438 0.767032 0.450997 0.083647
C55   C     C_R   0.332303 0.233641 0.548593 0.015772
C56   C     C_R   0.667802 0.766509 0.548917 0.015592
C57   C     C_R   0.301048 0.663986 0.403998 -0.292887
C58   C     C_R   0.698552 0.336245 0.405224 -0.292751
C59   C     C_R   0.700489 0.665269 0.601429 -0.189841
C60   C     C_R   0.299772 0.335089 0.600614 -0.191383
C61   C     C_R   0.802068 0.163519 0.593520 -0.284187
C62   C     C_R   0.198291 0.836283 0.594674 -0.285301
C63   C     C_R   0.201426 0.166188 0.397774 -0.194305
C64   C     C_R   0.798279 0.833413 0.396937 -0.194429
C65   C     C_R   0.846940 0.211359 0.594203 0.411407
C66   C     C_R   0.153464 0.788407 0.595488 0.411349
C67   C     C_R   0.155566 0.212327 0.400201 0.406248
C68   C     C_R   0.844150 0.787291 0.399398 0.405595
C69   C     C_R   0.345832 0.711937 0.402983 0.415463
C70   C     C_R   0.653728 0.288326 0.404319 0.414838
C71   C     C_R   0.654397 0.711225 0.598283 0.404073
C72   C     C_R   0.345849 0.289114 0.597506 0.404220
H1    H     H_    0.077390 0.690725 0.582082 0.200387
H2    H     H_    0.922970 0.309064 0.580924 0.200087
H3    H     H_    0.918542 0.686241 0.407382 0.165915
H4    H     H_    0.081238 0.313455 0.407870 0.165810
H5    H     H_    0.577569 0.190660 0.417936 0.202282
H6    H     H_    0.422056 0.809561 0.416783 0.202646
H7    H     H_    0.420221 0.187808 0.589845 0.164664
H8    H     H_    0.579968 0.812466 0.590319 0.164799
H9    H     H_    0.313072 0.622337 0.365724 0.157503
H10   H     H_    0.686357 0.377988 0.367443 0.157905
H11   H     H_    0.688638 0.624577 0.642272 0.185490
H12   H     H_    0.311747 0.375942 0.641092 0.185450
H13   H     H_    0.814485 0.121705 0.630915 0.154759
H14   H     H_    0.186026 0.878014 0.632523 0.155155
H15   H     H_    0.189619 0.125426 0.356942 0.188240
H16   H     H_    0.809963 0.874013 0.355747 0.188622
C73   C     C_R   0.056741 0.496261 0.792689 0.548930
C74   C     C_R   0.944796 0.513692 0.205138 0.518938
C75   C     C_R   0.943250 0.503665 0.792732 0.542579
C76   C     C_R   0.055367 0.486900 0.205147 0.516302
C77   C     C_R   0.554770 0.015069 0.794242 0.527528
C78   C     C_R   0.445534 0.983786 0.205542 0.522834
C79   C     C_R   0.445411 0.984566 0.794304 0.529844
C80   C     C_R   0.554250 0.016661 0.205479 0.525144
N1    N     N_R   1.000000 0.500000 0.743810 -0.233758
N2    N     N_R   0.000000 0.500000 0.256190 -0.307942
N3    N     N_R   0.500000 1.000000 0.743810 -0.306567
N4    N     N_R   0.500000 0.000000 0.256190 -0.311730
C81   C     C_R   0.942456 0.510173 0.895605 -0.131339
C82   C     C_R   0.056557 0.486212 0.101977 -0.063733
C83   C     C_R   0.057449 0.490398 0.895532 -0.134720
C84   C     C_R   0.943859 0.515069 0.102049 -0.068383
C85   C     C_R   0.445362 0.980702 0.896770 -0.064578
C86   C     C_R   0.554388 0.019968 0.102910 -0.062144
C87   C     C_R   0.554991 0.018937 0.896881 -0.063591
C88   C     C_R   0.445127 0.980722 0.102800 -0.061254
C89   C     C_R   0.000072 0.500680 0.947343 -0.118141
C90   C     C_R   0.000041 0.500179 0.050447 -0.166002
C91   C     C_R   0.499948 0.000284 0.948410 -0.172791
C92   C     C_R   0.499992 0.999867 0.051316 -0.171697
C93   C     C_R   0.886265 0.526251 0.947237 0.296896
C94   C     C_R   0.113670 0.473465 0.049352 0.371275
C95   C     C_R   0.112987 0.472294 0.946691 0.288085
C96   C     C_R   0.887877 0.531704 0.049587 0.371335
C97   C     C_R   0.391556 0.958244 0.948280 0.338897
C98   C     C_R   0.608162 0.042479 0.051167 0.340316
C99   C     C_R   0.609907 0.038648 0.948917 0.336636
C100  C     C_R   0.390067 0.961336 0.050597 0.338655
C101  C     C_3   0.215093 0.558551 0.414328 -0.850258
H17   H     H_    0.219215 0.561409 0.334644 0.253498
H18   H     H_    0.261530 0.543227 0.445310 0.232379
H19   H     H_    0.180213 0.522184 0.432492 0.219611
C102  C     C_3   0.784759 0.441534 0.415030 -0.849697
H20   H     H_    0.780165 0.438649 0.335400 0.254182
H21   H     H_    0.738546 0.456990 0.446645 0.232121
H22   H     H_    0.819855 0.477831 0.432721 0.219759
C103  C     C_3   0.788185 0.561615 0.599595 -0.789995
H23   H     H_    0.784347 0.568565 0.678698 0.280561
H24   H     H_    0.741965 0.543684 0.571338 0.209530
H25   H     H_    0.823785 0.525097 0.586151 0.255138
C104  C     C_3   0.211983 0.438666 0.598927 -0.792198
H26   H     H_    0.216142 0.431868 0.678007 0.278446
H27   H     H_    0.258058 0.456624 0.570242 0.210457
H28   H     H_    0.176244 0.475088 0.585771 0.255584
C105  C     C_3   0.715107 0.059057 0.587208 -0.804885
H29   H     H_    0.721976 0.063360 0.666293 0.280293
H30   H     H_    0.678790 0.023183 0.573906 0.217738
H31   H     H_    0.760189 0.042237 0.553703 0.216306
C106  C     C_3   0.285039 0.940872 0.587905 -0.803284
H32   H     H_    0.278495 0.936544 0.667033 0.281183
H33   H     H_    0.321228 0.976807 0.574350 0.217723
H34   H     H_    0.239786 0.957615 0.554871 0.216257
C107  C     C_3   0.286653 0.060959 0.406638 -0.862948
H35   H     H_    0.239324 0.045559 0.434384 0.233038
H36   H     H_    0.284613 0.065007 0.326902 0.254646
H37   H     H_    0.320467 0.024015 0.425718 0.222630
C108  C     C_3   0.713184 0.938737 0.405947 -0.861271
H38   H     H_    0.760638 0.954117 0.433294 0.232851
H39   H     H_    0.714938 0.934528 0.326205 0.255356
H40   H     H_    0.679516 0.975777 0.425250 0.222654
O17   O     O_3   0.905416 0.204991 0.640460 -0.734069
H41   H     H_    0.908252 0.163520 0.669475 0.331720
O18   O     O_3   0.095219 0.794636 0.642451 -0.733816
H42   H     H_    0.092515 0.836029 0.671882 0.331826
O19   O     O_3   0.098386 0.201211 0.353104 -0.707756
H43   H     H_    0.063030 0.217577 0.393246 0.324057
O20   O     O_3   0.901194 0.798225 0.351864 -0.707991
H44   H     H_    0.936667 0.782056 0.391929 0.323921
O21   O     O_3   0.403904 0.705836 0.355508 -0.729426
H45   H     H_    0.406521 0.664495 0.325883 0.331783
O22   O     O_3   0.595419 0.294568 0.357558 -0.729860
H46   H     H_    0.592666 0.335990 0.328350 0.331899
O23   O     O_3   0.597090 0.700044 0.644955 -0.711084
H47   H     H_    0.561840 0.716578 0.604818 0.325420
O24   O     O_3   0.403288 0.300471 0.643744 -0.711175
H48   H     H_    0.438422 0.283756 0.603523 0.325715
O25   O     O_3   0.112400 0.499601 0.739828 -0.672119
H49   H     H_    0.143330 0.525106 0.776559 0.339981
O26   O     O_3   0.888617 0.525666 0.252979 -0.644123
H50   H     H_    0.885555 0.495597 0.305221 0.351353
O27   O     O_3   0.887691 0.500206 0.739862 -0.669066
H51   H     H_    0.859302 0.470260 0.772681 0.335177
O28   O     O_3   0.111007 0.473394 0.253261 -0.642071
H52   H     H_    0.114889 0.503714 0.305171 0.351324
O29   O     O_3   0.610762 0.026190 0.745744 -0.651872
H53   H     H_    0.616184 0.991848 0.700388 0.341952
O30   O     O_3   0.389872 0.970692 0.253768 -0.639631
H54   H     H_    0.385481 0.002513 0.303372 0.347778
O31   O     O_3   0.388955 0.974383 0.746376 -0.653493
H55   H     H_    0.384275 0.008300 0.700201 0.342113
O32   O     O_3   0.610483 0.028563 0.253136 -0.641195
H56   H     H_    0.614070 0.997209 0.303477 0.347898
O33   O     O_3   0.830843 0.539558 0.896748 -0.725803
H57   H     H_    0.793408 0.526876 0.936089 0.334098
O34   O     O_3   0.170240 0.463143 0.098811 -0.670369
H58   H     H_    0.206724 0.477552 0.058910 0.329362
O35   O     O_3   0.164611 0.449309 0.895446 -0.730259
H59   H     H_    0.187723 0.419063 0.935842 0.346257
O36   O     O_3   0.835569 0.554834 0.098953 -0.667280
H60   H     H_    0.813673 0.585557 0.057917 0.339853
O37   O     O_3   0.341589 0.931441 0.897846 -0.676194
H61   H     H_    0.321906 0.899009 0.938223 0.335162
O38   O     O_3   0.657919 0.069899 0.101230 -0.662909
H62   H     H_    0.677369 0.102224 0.060386 0.336287
O39   O     O_3   0.665081 0.054195 0.899228 -0.677724
H63   H     H_    0.702867 0.044113 0.939633 0.331818
O40   O     O_3   0.334844 0.945758 0.100129 -0.665173
H64   H     H_    0.297078 0.956439 0.060060 0.332572

loop_
_geom_bond_atom_site_label_1
_geom_bond_atom_site_label_2
_geom_bond_distance
_ccdc_geom_bond_type
C25   C101  1.516578 S    
C28   C104  1.517916 S    
C107  H35   1.110062 S    
C8    C21   1.456825 S    
O5    Cu2   1.966393 S    
C58   H10   1.080833 S    
O31   H55   0.983441 S    
C57   H9    1.080815 S    
C14   C22   1.392587 A    
C2    C19   1.456710 S    
C29   C105  1.516188 S    
C102  H22   1.104200 S    
C51   C68   1.413922 A    
C106  H32   1.109857 S    
O15   Cu4   1.966098 S    
C72   O24   1.379446 S    
C29   C37   1.416352 A    
C12   C52   1.396014 A    
C31   C107  1.516427 S    
O37   H61   0.990809 S    
O10   C6    1.299260 A    
C10   C18   1.391907 A    
C105  H29   1.109898 S    
C7    C22   1.456936 S    
C32   C40   1.414678 A    
O12   Cu4   1.967884 S    
C54   C69   1.405236 A    
C27   C35   1.415869 A    
C80   O32   1.369306 S    
C39   C63   1.406901 A    
C53   C70   1.405239 A    
C38   C62   1.408796 A    
C26   C102  1.516679 S    
C75   C81   1.433623 A    
C93   O33   1.381186 S    
C5    C24   1.458161 S    
C74   O26   1.370277 S    
C45   C53   1.413503 A    
C94   O34   1.381999 S    
O13   C7    1.298787 A    
O3    C2    1.298679 A    
C20   C28   1.413448 A    
C66   O18   1.383636 S    
C108  H38   1.110083 S    
O14   C8    1.299367 A    
C14   C54   1.394049 A    
C99   O39   1.382085 S    
C82   C94   1.423037 A    
C16   C56   1.397254 A    
C39   C47   1.418622 A    
C77   N3    1.377409 A    
C33   C41   1.418732 A    
C41   C46   1.411145 A    
C38   C46   1.418553 A    
C6    C23   1.458112 S    
C62   H14   1.080627 S    
C73   O25   1.373540 S    
C35   C43   1.419048 A    
C93   C96   1.424624 A    
C65   O17   1.383658 S    
C36   C44   1.419036 A    
O13   Cu4   1.966393 S    
O11   Cu3   1.967884 S    
O14   Cu3   1.966390 S    
C104  H27   1.110022 S    
C15   C23   1.392522 A    
C10   C50   1.393444 A    
C63   H15   1.081352 S    
C59   C71   1.388739 A    
C74   C84   1.430098 A    
C24   C32   1.412844 A    
O16   Cu3   1.966101 S    
C44   C52   1.416817 A    
C71   O23   1.379459 S    
C25   C33   1.416351 A    
O30   H54   0.980777 S    
C107  H36   1.110179 S    
C80   C86   1.424298 A    
C83   C89   1.412378 A    
C30   C106  1.516101 S    
O1    Cu1   1.967619 S    
O8    Cu1   1.966101 S    
C108  H39   1.110159 S    
C42   C50   1.413637 A    
C59   H11   1.081262 S    
O29   H53   0.983905 S    
C87   C99   1.418503 A    
C15   H7    1.082335 S    
C88   C92   1.410543 A    
C21   C29   1.414553 A    
C106  H34   1.110059 S    
C106  H33   1.102927 S    
C102  H20   1.110152 S    
C9    C49   1.393462 A    
C97   C100  1.420776 A    
C61   H13   1.080660 S    
C98   O38   1.382554 S    
O8    C3    1.298106 A    
C78   C88   1.426341 A    
C102  H21   1.110161 S    
C9    H1    1.084944 S    
C73   N1    1.364904 A    
O34   H58   0.991101 S    
C30   C38   1.416271 A    
C44   C47   1.413969 A    
C27   C103  1.517940 S    
O3    Cu1   1.967884 S    
O2    Cu2   1.967619 S    
Cu4   N4    2.030106 S    
C103  H25   1.104032 S    
C37   C45   1.418627 A    
O40   H64   0.991054 S    
C84   C96   1.421753 A    
C73   C83   1.432116 A    
C34   C42   1.418808 A    
C103  H24   1.110033 S    
C85   C97   1.416224 A    
Cu1   Cu2   2.702000 S    
O21   H45   0.991596 S    
O12   C5    1.299370 A    
C58   C70   1.400480 A    
O26   H50   0.979487 S    
C83   C95   1.413605 A    
C1    C20   1.456698 S    
C69   O21   1.383564 S    
C60   C72   1.388750 A    
C33   C57   1.408414 A    
O22   H46   0.991646 S    
C76   O28   1.369554 S    
C76   C82   1.431023 A    
C3    C18   1.455315 S    
C67   O19   1.379426 S    
C96   O36   1.382078 S    
C35   C59   1.407260 A    
C85   C91   1.409347 A    
C100  O40   1.382028 S    
O36   H60   0.990704 S    
C86   C92   1.409285 A    
C22   C30   1.414582 A    
C57   C69   1.400460 A    
C26   C34   1.416459 A    
O35   H59   0.990648 S    
C84   C90   1.409585 A    
C16   H8    1.082330 S    
C78   N4    1.379851 A    
C48   C56   1.416797 A    
C104  H28   1.104029 S    
C74   N2    1.383175 A    
O7    Cu2   1.966098 S    
C43   C51   1.416789 A    
C32   C108  1.516398 S    
C55   C72   1.414167 A    
C75   O27   1.371861 S    
C15   C55   1.397303 A    
C77   C87   1.425810 A    
O4    C1    1.299419 A    
C13   C53   1.394038 A    
O15   C8    1.298692 A    
C95   O35   1.382908 S    
C60   H12   1.081237 S    
O7    C4    1.299099 A    
O16   C7    1.299342 A    
C79   N3    1.377019 A    
C78   O30   1.368463 S    
C108  H40   1.102629 S    
C37   C61   1.408778 A    
C101  H19   1.104146 S    
C31   C39   1.414737 A    
C17   C25   1.413784 A    
C91   C92   1.427128 A    
C52   C67   1.413926 A    
O9    Cu3   1.967619 S    
C68   O20   1.379433 S    
C19   C27   1.413447 A    
C89   C90   1.429869 A    
O10   Cu4   1.967619 S    
C28   C36   1.415891 A    
O33   H57   0.990950 S    
C43   C48   1.413911 A    
C86   C98   1.417722 A    
C42   C45   1.411193 A    
C97   O37   1.382683 S    
Cu2   N2    2.030106 S    
C81   C89   1.413597 A    
O2    C2    1.299326 A    
Cu1   N1    2.030106 S    
C63   C67   1.387964 A    
O4    Cu2   1.967884 S    
C94   C95   1.423950 A    
O5    C3    1.299115 A    
Cu3   N3    2.030106 S    
C105  H31   1.110074 S    
C107  H37   1.102629 S    
O6    C4    1.298202 A    
O11   C6    1.299268 A    
O1    C1    1.298573 A    
C36   C60   1.407280 A    
C75   N1    1.365244 A    
C41   C49   1.413663 A    
C101  H18   1.110127 S    
O39   H63   0.991011 S    
C13   C21   1.392578 A    
O24   H48   0.989666 S    
C10   H2    1.084958 S    
O18   H42   0.991609 S    
C62   C66   1.399820 A    
C103  H23   1.110160 S    
C76   N2    1.382986 A    
C4    C17   1.455448 S    
C40   C64   1.406874 A    
O9    C5    1.299191 A    
O23   H47   0.989685 S    
C64   C68   1.387916 A    
C23   C31   1.412858 A    
C11   H3    1.082392 S    
C79   C85   1.423557 A    
C79   O31   1.368553 S    
C11   C51   1.395911 A    
C12   H4    1.082396 S    
C14   H6    1.084914 S    
C11   C19   1.392052 A    
C13   H5    1.084925 S    
C12   C20   1.392009 A    
O38   H62   0.990846 S    
C88   C100  1.419991 A    
O25   H49   0.991172 S    
C87   C91   1.410723 A    
C18   C26   1.413760 A    
C16   C24   1.392587 A    
C98   C99   1.420835 A    
O19   H43   0.989702 S    
C56   C71   1.414179 A    
O17   H41   0.991639 S    
O28   H52   0.980106 S    
O6    Cu1   1.966390 S    
C80   N4    1.379523 A    
C64   H16   1.081379 S    
C47   C55   1.416830 A    
C70   O22   1.383578 S    
C40   C48   1.418618 A    
C105  H30   1.102964 S    
O27   H51   0.991379 S    
C9    C17   1.391919 A    
Cu3   Cu4   2.702000 S    
O20   H44   0.989723 S    
C77   O29   1.367867 S    
O32   H56   0.980315 S    
C81   C93   1.416156 A    
C104  H26   1.110156 S    
C101  H17   1.110172 S    
C50   C65   1.404752 A    
C82   C90   1.410621 A    
C61   C65   1.399841 A    
C49   C66   1.404741 A    
C34   C58   1.408409 A    
C46   C54   1.413531 A    
