data_mof_unit_27560.cif
_audit_creation_date              2012-10-26T18:51:48-0400
_audit_creation_method            fapswitch 2.2
_symmetry_space_group_name_H-M    P1
_symmetry_Int_Tables_number       1
_space_group_crystal_system       triclinic
_cell_length_a                    11.678762
_cell_length_b                    14.718767
_cell_length_c                    14.831205
_cell_angle_alpha                 64.209278
_cell_angle_beta                  104.108358
_cell_angle_gamma                 101.857996
_cell_volume                      2211.76823975

loop_
_atom_site_label
_atom_site_type_symbol
_atom_type_description
_atom_site_fract_x
_atom_site_fract_y
_atom_site_fract_z
_atom_type_partial_charge
C1    C     C_R   0.477671 0.120171 0.312231 0.546476
C2    C     C_R   0.499909 0.612696 0.100829 -0.137162
C3    C     C_R   0.745890 0.324801 0.570542 -0.164666
C4    C     C_R   0.274978 0.711849 0.348733 -0.171523
C5    C     C_R   0.695603 0.226465 0.585940 0.036689
C6    C     C_R   0.318721 0.794530 0.374685 0.031087
C7    C     C_R   0.501065 0.276361 0.536822 0.153409
C8    C     C_R   0.494644 0.717460 0.473965 0.151797
C9    C     C_R   0.548544 0.381393 0.506606 0.012097
C10   C     C_R   0.460461 0.639342 0.435914 0.024134
C11   C     C_R   0.673800 0.403157 0.526643 0.028108
C12   C     C_R   0.516799 0.880080 0.687745 0.537242
C13   C     C_R   0.343726 0.632047 0.382451 0.023111
C14   C     C_R   0.478685 0.465544 0.460212 0.007862
C15   C     C_R   0.532755 0.562353 0.457405 0.020841
C16   C     C_R   0.284465 0.000556 0.500019 0.547463
C17   C     C_R   0.715565 0.999365 0.500136 0.547852
C18   C     C_R   0.656851 0.581846 0.466492 -0.146322
C19   C     C_R   0.361171 0.460285 0.407396 -0.154920
C20   C     C_R   0.726515 0.503246 0.501958 -0.136934
C21   C     C_R   0.296580 0.544011 0.365375 -0.133917
C22   C     C_1   0.162993 0.001184 0.500456 -0.034584
C23   C     C_R   0.386847 0.324370 0.001117 0.050543
C24   C     C_1   0.837125 0.998620 0.500032 -0.032570
C25   C     C_1   0.060234 0.000538 0.500464 -0.050824
C26   C     C_1   0.939943 0.999243 0.500217 -0.050232
C27   C     C_R   0.451350 0.188945 0.204172 -0.027487
C28   C     C_R   0.515020 0.812842 0.795622 -0.026117
C29   C     C_R   0.369293 0.217725 0.027059 0.018589
C30   C     C_R   0.537762 0.787134 0.973144 0.017121
C31   C     C_R   0.401086 0.151465 0.129574 -0.114894
C32   C     C_R   0.543053 0.851404 0.870453 -0.115898
C33   C     C_R   0.469739 0.293235 0.177406 -0.143736
C34   C     C_R   0.502429 0.681299 0.999439 0.047896
C35   C     C_R   0.479177 0.709789 0.822286 -0.146428
C36   C     C_R   0.433948 0.362305 0.077759 0.017872
C37   C     C_R   0.469556 0.642738 0.922659 0.018971
C38   C     C_3   0.316993 0.176845 0.945034 -0.281090
C39   C     C_3   0.299096 0.061235 0.980942 -0.454285
C40   C     C_3   0.569680 0.829247 0.055034 -0.279787
C41   C     C_3   0.608542 0.943514 0.019261 -0.453060
C42   C     C_3   0.594923 0.703274 0.565693 -0.234523
C43   C     C_3   0.569617 0.605312 0.658145 -0.450161
C44   C     C_3   0.380417 0.241652 0.570202 -0.246017
C45   C     C_R   0.448626 0.468711 0.052246 0.033203
C46   C     C_3   0.387714 0.159459 0.678771 -0.412184
C47   C     C_R   0.433530 0.537165 0.948699 0.035332
C48   C     C_R   0.381772 0.497944 0.874542 -0.143017
C49   C     C_R   0.475679 0.508881 0.126873 -0.138898
C50   C     C_R   0.358194 0.394264 0.900255 -0.139442
Cu1   Cu    Cu3+1 0.469550 0.918260 0.475690 0.914578
Cu2   Cu    Cu3+1 0.530450 0.081740 0.524310 0.912759
H1    H     H_    0.318975 0.370220 0.839067 0.100530
H2    H     H_    0.474991 0.461844 0.206469 0.112568
H3    H     H_    0.822331 0.520812 0.511010 0.110021
H4    H     H_    0.207327 0.538036 0.323496 0.111899
H5    H     H_    0.265614 0.856642 0.346286 0.132025
H6    H     H_    0.754185 0.168394 0.614353 0.135055
H7    H     H_    0.841626 0.340168 0.588385 0.091368
H8    H     H_    0.187208 0.709967 0.303240 0.093939
H9    H     H_    0.384998 0.029192 0.017873 0.148625
H10   H     H_    0.234932 0.026602 0.034533 0.148312
H11   H     H_    0.262551 0.041555 0.914368 0.139069
H12   H     H_    0.519628 0.637667 0.162161 0.112140
H13   H     H_    0.228721 0.204372 0.906779 0.141278
H14   H     H_    0.376384 0.207890 0.887551 0.139120
H15   H     H_    0.690994 0.963978 0.986598 0.149854
H16   H     H_    0.537016 0.987317 0.962125 0.143287
H17   H     H_    0.627324 0.964686 0.085180 0.145476
H18   H     H_    0.491204 0.812011 0.092137 0.144752
H19   H     H_    0.643633 0.789974 0.113463 0.143674
H20   H     H_    0.475080 0.594070 0.665963 0.147189
H21   H     H_    0.589259 0.538169 0.651516 0.162558
H22   H     H_    0.626633 0.609536 0.728404 0.136144
H23   H     H_    0.700458 0.658647 0.441088 0.107631
H24   H     H_    0.682979 0.707033 0.549101 0.107705
H25   H     H_    0.609982 0.764444 0.590475 0.213980
H26   H     H_    0.419019 0.090235 0.685934 0.205700
H27   H     H_    0.449538 0.188536 0.732752 0.127825
H28   H     H_    0.298382 0.138255 0.700593 0.120022
H29   H     H_    0.345457 0.304645 0.573190 0.118267
H30   H     H_    0.313887 0.217172 0.515545 0.160835
H31   H     H_    0.320395 0.393426 0.393845 0.104988
H32   H     H_    0.462208 0.682713 0.763250 0.128835
H33   H     H_    0.515069 0.319423 0.235723 0.132550
H34   H     H_    0.569388 0.931942 0.847438 0.132817
H35   H     H_    0.386853 0.070168 0.152731 0.135220
H36   H     H_    0.354069 0.545940 0.795715 0.101546
N1    N     N_R   0.576230 0.204580 0.560790 -0.224264
N2    N     N_R   0.423770 0.795420 0.439210 -0.228422
O1    O     O_R   0.459870 0.022090 0.338120 -0.503331
O2    O     O_R   0.540130 0.977910 0.661880 -0.514385
O3    O     O_R   0.511290 0.160150 0.379180 -0.491925
O4    O     O_R   0.488710 0.839850 0.620820 -0.516329
O5    O     O_R   0.311490 0.930960 0.479480 -0.497218
O6    O     O_R   0.688510 0.069040 0.520520 -0.504910
O7    O     O_R   0.362910 0.069020 0.520540 -0.508417
O8    O     O_R   0.637090 0.930980 0.479460 -0.511958

loop_
_geom_bond_atom_site_label_1
_geom_bond_atom_site_label_2
_ccdc_geom_bond_type
C43   H21   S    
C15   C18   A    
C30   C32   A    
C43   H20   S    
C40   H19   S    
C34   C37   A    
C41   H15   S    
C27   C33   A    
C18   H23   S    
C40   H18   S    
C5    H6    S    
C12   C28   S    
C23   C29   A    
C19   C21   A    
C24   C26   T    
C44   H30   S    
C10   C15   A    
Cu1   N2    S    
C38   C39   S    
C16   O7    A    
C49   H2    S    
C7    N1    A    
Cu2   O7    S    
C33   C36   A    
C4    C13   A    
C33   H33   S    
Cu1   O1    S    
C38   H14   S    
C28   C35   A    
C44   C46   S    
C22   C25   T    
C29   C38   S    
C48   H36   S    
C37   C47   A    
C17   O8    A    
C2    C34   A    
Cu1   O8    S    
C48   C50   A    
C1    O1    A    
C6    H5    S    
C12   O4    A    
Cu2   N1    S    
C20   H3    S    
C19   H31   S    
C28   C32   A    
C2    H12   S    
C41   H16   S    
C45   C47   A    
C39   H9    S    
C11   C20   A    
C17   C24   S    
C31   H35   S    
C30   C34   A    
C27   C31   A    
Cu1   Cu2   S    
C50   H1    S    
C36   C45   A    
C4    C6    A    
C44   H29   S    
C46   H26   S    
C23   C50   A    
C25   C26   S    
C6    N2    A    
C9    C14   A    
C2    C49   A    
C47   C48   A    
C38   H13   S    
C45   C49   A    
C32   H34   S    
C4    H8    S    
C30   C40   S    
Cu2   O3    S    
C17   O6    A    
C7    C44   S    
C9    C11   A    
C8    C10   A    
C40   C41   S    
Cu2   O2    S    
C8    N2    A    
C42   C43   S    
C41   H17   S    
C7    C9    A    
C39   H10   S    
C16   O5    A    
C16   C22   S    
C35   C37   A    
C14   C19   A    
C12   O2    A    
C8    C42   S    
C3    C5    A    
C10   C13   A    
C21   H4    S    
C35   H32   S    
C39   H11   S    
C42   H24   S    
C29   C31   A    
C13   C21   A    
C46   H28   S    
C46   H27   S    
C43   H22   S    
Cu2   O6    S    
C18   C20   A    
C3    C11   A    
Cu1   O4    S    
C42   H25   S    
C1    O3    A    
C23   C36   A    
C1    C27   S    
C14   C15   A    
C5    N1    A    
Cu1   O5    S    
C3    H7    S    
