data_mof_unit_37325.cif
_audit_creation_date              2012-12-11T20:22:08-0500
_audit_creation_method            fapswitch 2.2
_symmetry_space_group_name_H-M    P1
_symmetry_Int_Tables_number       1
_space_group_crystal_system       triclinic
_cell_length_a                    8.250206
_cell_length_b                    17.417935
_cell_length_c                    26.981739
_cell_angle_alpha                 99.792913
_cell_angle_beta                  92.649602
_cell_angle_gamma                 81.353356
_cell_volume                      3776.54570543

loop_
_atom_site_label
_atom_site_type_symbol
_atom_type_description
_atom_site_fract_x
_atom_site_fract_y
_atom_site_fract_z
_atom_type_partial_charge
Ba1   Ba    Ba6+2 0.860160 0.462360 0.521850 1.643340
Ba2   Ba    Ba6+2 0.329680 0.537570 0.478140 1.636503
C1    C     C_3   0.637167 0.193861 0.654171 -0.372534
C2    C     C_R   0.873043 0.568471 0.176506 0.573034
C3    C     C_2   0.751500 0.544752 0.273950 -0.087630
C4    C     C_3   0.154392 0.259039 0.647236 0.315336
C5    C     C_3   0.732228 0.574670 0.329452 -0.052989
C6    C     C_1   0.985882 0.487519 0.342526 0.032714
C7    C     C_2   0.028660 0.486191 0.295017 -0.109258
C8    C     C_2   0.902786 0.512960 0.256411 0.181568
C9    C     C_R   0.021368 0.504007 0.100779 -0.080996
C10   C     C_R   0.098327 0.445861 0.128099 -0.034571
C11   C     C_R   0.218701 0.387081 0.104317 -0.059231
C12   C     C_3   0.631496 0.271459 0.634736 0.368344
C13   C     C_R   0.905293 0.564579 0.125094 -0.023203
C14   C     C_2   0.845595 0.526379 0.361232 -0.292077
C15   C     C_2   0.353422 0.479641 0.639024 -0.272057
C16   C     C_3   0.095732 0.232527 0.693412 -0.359907
C17   C     C_R   0.225923 0.441653 0.974644 0.019772
C18   C     C_R   0.014529 0.557583 0.970399 0.020668
C19   C     C_R   0.139969 0.498924 0.947133 0.048667
C20   C     C_R   0.351150 0.385394 0.949669 -0.099858
C21   C     C_R   0.387142 0.384128 0.899511 -0.061745
C22   C     C_R   0.302359 0.439612 0.871841 -0.033717
C23   C     C_3   0.485023 0.663602 0.633962 0.309675
C24   C     C_R   0.180156 0.497733 0.895777 -0.078845
C25   C     C_R   0.098457 0.554891 0.868382 -0.029699
C26   C     C_R   0.143515 0.554846 0.818370 0.585478
C27   C     C_R   0.337648 0.438039 0.820691 0.586398
C28   C     C_3   0.220765 0.298381 0.410841 0.314821
C29   C     C_2   0.460051 0.485420 0.727600 -0.083746
C30   C     C_3   0.500738 0.489056 0.673729 -0.072411
C31   C     C_1   0.207861 0.512054 0.655883 0.062443
C32   C     C_2   0.169004 0.509213 0.702787 -0.104162
C33   C     C_2   0.301413 0.495740 0.742088 0.199645
C34   C     C_3   0.473000 0.690781 0.690989 -0.211755
C35   C     C_R   0.184502 0.442533 0.025813 0.019786
C36   C     C_R   0.060924 0.502018 0.049264 0.048540
C37   C     C_R   0.976671 0.559851 0.021897 0.020185
C38   C     C_R   0.262000 0.385751 0.054720 -0.099342
C39   C     C_R   0.824259 0.621358 0.097802 -0.059115
C40   C     C_3   0.247635 0.209234 0.395927 -0.369889
C41   C     C_R   0.931436 0.612502 0.941047 -0.099961
C42   C     C_R   0.973570 0.611486 0.891572 -0.062197
C43   C     C_R   0.857547 0.618764 0.047477 -0.102771
C44   C     C_2   0.447860 0.279093 0.514745 -0.251182
C45   C     C_3   0.020287 0.705358 0.344992 0.347551
C46   C     C_3   0.375136 0.227423 0.544860 -0.052702
C47   C     C_2   0.420660 0.141333 0.525795 -0.102135
C48   C     C_2   0.550976 0.115403 0.495748 0.009925
C49   C     C_2   0.634390 0.174216 0.476130 -0.125373
C50   C     C_1   0.573963 0.250093 0.485163 0.058512
C51   C     C_R   0.786391 0.861739 0.470168 -0.123909
C52   C     C_3   0.933799 0.712792 0.611814 0.321493
C53   C     C_R   0.844022 0.781167 0.463348 0.012201
C54   C     C_R   0.616961 0.759471 0.510664 0.040190
C55   C     C_R   0.559863 0.839984 0.518081 -0.119845
C56   C     C_3   0.025795 0.728449 0.293364 -0.363246
C57   C     C_R   0.642255 0.891560 0.497218 0.014137
C58   C     C_2   0.611962 0.030126 0.481529 -0.073426
C59   C     C_2   0.584633 0.976758 0.509802 -0.072586
C60   C     C_R   0.754354 0.729836 0.481352 -0.272245
C61   C     C_3   0.852929 0.778369 0.652124 -0.318735
C62   C     C_3   0.694898 0.363157 0.368903 0.304540
C63   C     C_3   0.693715 0.343758 0.311777 -0.358177
C64   C     C_3   0.012277 0.749632 0.573616 -0.312131
C65   C     C_3   0.363280 0.770306 0.704364 -0.351649
C66   C     C_3   0.479825 0.745210 0.367284 0.376248
C67   C     C_3   0.430418 0.821624 0.346757 -0.359075
C68   C     C_R   0.053150 0.447354 0.178559 0.597845
H1    H     H_    0.708074 0.259684 0.600383 0.071835
H2    H     H_    0.600856 0.415171 0.380222 0.074980
H3    H     H_    0.766804 0.168932 0.661353 0.123778
H4    H     H_    0.790234 0.293229 0.299146 0.129876
H5    H     H_    0.717761 0.395323 0.295686 0.067376
H6    H     H_    0.571909 0.328470 0.297689 0.137249
H7    H     H_    0.502151 0.294097 0.625831 -0.076265
H8    H     H_    0.581912 0.150966 0.625686 0.063423
H9    H     H_    0.362910 0.650751 0.618861 0.050332
H10   H     H_    0.575106 0.608842 0.626957 0.010178
H11   H     H_    0.420694 0.646315 0.708280 0.069989
H12   H     H_    0.334706 0.191455 0.364438 0.120816
H13   H     H_    0.598179 0.694881 0.707792 0.099744
H14   H     H_    0.567689 0.203115 0.689671 0.134799
H15   H     H_    0.168801 0.254944 0.727135 0.095339
H16   H     H_    0.091310 0.645659 0.344163 0.070869
H17   H     H_    0.890161 0.704596 0.353194 -0.058538
H18   H     H_    0.154791 0.728269 0.282944 0.151964
H19   H     H_    0.970066 0.685569 0.264969 0.130457
H20   H     H_    0.955680 0.788375 0.293340 0.116865
H21   H     H_    0.615927 0.734913 0.369754 -0.076490
H22   H     H_    0.430126 0.752371 0.405630 0.082276
H23   H     H_    0.298779 0.181373 0.428324 0.073869
H24   H     H_    0.480793 0.870437 0.372004 0.067564
H25   H     H_    0.294270 0.836267 0.344632 0.152080
H26   H     H_    0.134355 0.324895 0.652880 0.050721
H27   H     H_    0.480799 0.815696 0.308479 0.120322
H28   H     H_    0.156315 0.470239 0.284847 0.148488
H29   H     H_    0.282046 0.341803 0.124289 0.120822
H30   H     H_    0.559512 0.479908 0.755093 0.110653
H31   H     H_    0.483918 0.339396 0.882504 0.120040
H32   H     H_    0.425236 0.341153 0.967796 0.068170
H33   H     H_    0.356544 0.338496 0.040115 0.068486
H34   H     H_    0.128826 0.188125 0.384070 0.132623
H35   H     H_    0.649687 0.559504 0.248762 0.131353
H36   H     H_    0.732439 0.668359 0.115267 0.122469
H37   H     H_    0.832006 0.657684 0.954924 0.067524
H38   H     H_    0.287673 0.236477 0.644463 -0.031724
H39   H     H_    0.906139 0.655477 0.871275 0.117875
H40   H     H_    0.041018 0.520726 0.713777 0.143784
H41   H     H_    0.788057 0.665081 0.030099 0.068313
H42   H     H_    0.827544 0.539423 0.401812 0.081779
H43   H     H_    0.365953 0.444881 0.601397 0.067537
H44   H     H_    0.516482 0.995433 0.544268 0.066028
H45   H     H_    0.839466 0.678210 0.592986 0.043065
H46   H     H_    0.742619 0.153991 0.453356 0.084438
H47   H     H_    0.859709 0.900881 0.457481 0.072340
H48   H     H_    0.683251 0.011653 0.447608 0.070784
H49   H     H_    0.350948 0.101338 0.539259 0.068434
H50   H     H_    0.964565 0.256292 0.699872 0.164652
H51   H     H_    0.454538 0.862724 0.541537 0.073240
H52   H     H_    0.407683 0.342139 0.522914 0.070332
H53   H     H_    0.800784 0.667692 0.477091 0.067310
H54   H     H_    0.111693 0.167022 0.688340 0.108860
H55   H     H_    0.340076 0.318797 0.421077 0.000210
H56   H     H_    0.803915 0.752427 0.682131 0.123434
H57   H     H_    0.139193 0.314086 0.443664 0.083169
H58   H     H_    0.045791 0.703454 0.540750 0.139569
H59   H     H_    0.926026 0.798529 0.561630 0.035779
H60   H     H_    0.124006 0.774079 0.589847 0.133549
H61   H     H_    0.413307 0.817670 0.688869 0.140738
H62   H     H_    0.235480 0.766384 0.689168 0.146269
H63   H     H_    0.358676 0.786501 0.746110 0.120635
H64   H     H_    0.751040 0.815767 0.635402 0.091982
H65   H     H_    0.944196 0.816433 0.669818 0.095557
H66   H     H_    0.817425 0.376910 0.382281 0.009335
N1    N     N_R   0.942577 0.508992 0.203071 -0.420000
N2    N     N_R   0.260306 0.496046 0.794451 -0.423037
O1    O     O_2   0.906370 0.542040 0.619810 -0.476560
O2    O     O_2   0.180980 0.781374 0.475526 -0.485117
O3    O     O_3   0.089591 0.760182 0.380675 -0.595683
O4    O     O_3   0.138370 0.541980 0.559630 -0.480176
O5    O     O_3   0.572820 0.404940 0.471170 -0.494739
O6    O     O_2   0.345130 0.693150 0.532000 -0.459068
O7    O     O_3   0.537525 0.722280 0.611388 -0.661838
O8    O     O_2   0.413930 0.531522 0.324747 -0.494096
O9    O     O_3   0.416471 0.683371 0.335489 -0.586595
O10   O     O_2   0.111050 0.392949 0.200190 -0.599430
O11   O     O_2   0.436074 0.384352 0.799422 -0.594917
O12   O     O_3   0.660854 0.297760 0.388137 -0.634429
O13   O     O_2   0.784669 0.626257 0.197700 -0.620100
O14   O     O_2   0.080541 0.608222 0.796489 -0.608022
O15   O     O_3   0.686580 0.398330 0.583860 -0.483997
O16   O     O_2   0.843468 0.443627 0.669260 -0.483830
O17   O     O_3   0.057600 0.667010 0.635422 -0.641511
O18   O     O_3   0.693032 0.326783 0.672093 -0.583816
O19   O     O_2   0.844570 0.306830 0.467970 -0.454915
O20   O     O_3   0.101900 0.357890 0.557750 -0.481108
O21   O     O_2   0.056904 0.217698 0.505482 -0.480319
O22   O     O_3   0.068374 0.227603 0.603866 -0.583006
O23   O     O_2   0.283330 0.457940 0.380160 -0.457804
O24   O     O_3   0.051340 0.457960 0.440360 -0.498796
O25   O     O_3   0.503130 0.601610 0.416130 -0.477013
O26   O     O_3   0.150431 0.331842 0.369917 -0.623605
O27   O     O_3   0.616890 0.595000 0.528820 -0.478153
O28   O     O_3   0.087820 0.642040 0.442240 -0.489136
P1    P     P_3+3 0.071770 0.565500 0.613330 0.993509
P2    P     P_3+3 0.664870 0.318630 0.453960 0.983146
P3    P     P_3+3 0.149871 0.256068 0.552050 0.954820
P4    P     P_3+3 0.117940 0.434440 0.386660 0.994310
P5    P     P_3+3 0.051309 0.742726 0.440570 0.946581
P6    P     P_3+3 0.679720 0.416061 0.649679 0.988807
P7    P     P_3+3 0.531555 0.694222 0.546015 0.932265
P8    P     P_3+3 0.516506 0.594613 0.351069 0.954596

loop_
_geom_bond_atom_site_label_1
_geom_bond_atom_site_label_2
_ccdc_geom_bond_type
C19   C24   A    
C62   H66   S    
C7    H28   S    
C44   H52   S    
C40   H23   S    
Ba2   O6    S    
C12   H1    S    
O26   P4    S    
C65   H62   S    
C40   H12   S    
C28   O26   S    
C65   H63   S    
Ba2   O24   S    
C51   C57   A    
C34   C65   S    
C15   H43   S    
C3    H35   S    
C27   N2    Am   
C24   C25   A    
C63   H6    S    
C25   C26   A    
Ba1   O20   S    
C17   C19   A    
C22   C24   A    
C32   C33   S    
C35   C38   A    
C33   N2    S    
C36   C37   A    
C51   H47   S    
C55   C57   A    
C52   C61   S    
Ba1   P1    S    
C34   H13   S    
O27   P7    S    
C23   H10   S    
C5    P8    S    
C44   C50   D    
O3    P5    S    
C66   H21   S    
C54   C55   A    
O19   P2    D    
Ba1   Ba2   S    
C12   H7    S    
C22   C27   A    
C11   C38   A    
Ba1   O4    S    
C17   C35   A    
O4    P1    S    
C9    C13   A    
C25   C42   A    
O17   P1    S    
C66   C67   S    
O6    P7    D    
C21   C22   A    
C58   H48   S    
C8    N1    S    
C7    C8    S    
Ba2   O28   S    
Ba1   O1    S    
C37   C43   A    
C64   H59   S    
C42   H39   S    
C2    N1    Am   
C28   H55   S    
O28   P5    S    
C6    C14   D    
Ba2   O5    S    
C31   P1    S    
C15   C31   D    
Ba2   O23   S    
C53   P5    S    
C60   H53   S    
C6    P4    S    
C48   C49   S    
C51   C53   A    
C4    C16   S    
C44   C46   S    
C57   C59   S    
C16   H15   S    
C39   H36   S    
C49   C50   D    
C45   H16   S    
C17   C20   A    
C26   N2    Am   
C13   C39   A    
C67   H24   S    
C52   O17   S    
C3    C5    S    
C18   C37   A    
C6    C7    D    
C23   C34   S    
Ba1   P2    S    
C27   O11   D    
O18   P6    S    
C63   H4    S    
C62   O12   S    
C58   C59   D    
C61   H65   S    
C11   H29   S    
C9    C36   A    
O1    P1    D    
C41   C42   A    
C61   H64   S    
C35   C36   A    
Ba1   O5    S    
C29   C30   S    
O24   P4    S    
Ba1   O27   S    
C34   H11   S    
O22   P3    S    
O12   P2    S    
C52   H45   S    
C31   C32   D    
O16   P6    D    
C41   H37   S    
C29   H30   S    
C18   C19   A    
Ba1   O15   S    
C56   H20   S    
Ba2   O27   S    
C66   O9    S    
Ba2   P4    S    
O23   P4    D    
C53   C60   A    
C46   C47   S    
O7    P7    S    
Ba1   O24   S    
C26   O14   D    
O2    P5    D    
C4    H26   S    
Ba2   O4    S    
C54   C60   A    
C68   O10   D    
C16   H50   S    
C67   H27   S    
C59   H44   S    
C18   C41   A    
C14   H42   S    
C2    O13   D    
C10   C68   A    
C28   H57   S    
C5    C14   S    
C39   C43   A    
O21   P3    D    
C12   O18   S    
C23   H9    S    
C65   H61   S    
C67   H25   S    
C40   H34   S    
Ba2   O25   S    
C4    O22   S    
C9    C10   A    
C43   H41   S    
O20   P3    S    
C52   C64   S    
C1    C12   S    
C45   O3    S    
C49   H46   S    
C20   H32   S    
C54   P7    S    
C48   C58   S    
C62   C63   S    
C2    C13   A    
Ba1   O19   S    
C3    C8    D    
C50   P2    S    
C38   H33   S    
C1    H8    S    
C47   H49   S    
C32   H40   S    
O8    P8    D    
O15   P6    S    
C66   H22   S    
C64   H58   S    
C29   C33   D    
C62   H2    S    
C30   P6    S    
C1    H3    S    
C56   H19   S    
O5    P2    S    
C61   H56   S    
C21   H31   S    
C55   H51   S    
C46   P3    S    
C10   C11   A    
C68   N1    Am   
C47   C48   D    
C16   H54   S    
C1    H14   S    
C15   C30   S    
C4    H38   S    
C20   C21   A    
C28   C40   S    
C23   O7    S    
C64   H60   S    
O25   P8    S    
C56   H18   S    
C63   H5    S    
C45   H17   S    
C45   C56   S    
O9    P8    S    
