data_mof_unit_35018.cif
_audit_creation_date              2012-12-11T17:11:42-0500
_audit_creation_method            fapswitch 2.2
_symmetry_space_group_name_H-M    P1
_symmetry_Int_Tables_number       1
_space_group_crystal_system       triclinic
_cell_length_a                    14.972298
_cell_length_b                    6.939873
_cell_length_c                    13.615418
_cell_angle_alpha                 89.99866
_cell_angle_beta                  100.706717
_cell_angle_gamma                 90.008317
_cell_volume                      1390.09266587

loop_
_atom_site_label
_atom_site_type_symbol
_atom_type_description
_atom_site_fract_x
_atom_site_fract_y
_atom_site_fract_z
_atom_type_partial_charge
O1    O     O_R   0.398250 0.605080 0.401520 -0.543121
O2    O     O_R   0.898250 0.394920 0.901520 -0.543747
O3    O     O_R   0.584130 0.932110 0.405450 -0.499962
O4    O     O_R   0.084130 0.067890 0.905450 -0.503299
O5    O     O_R   0.601750 0.105090 0.598480 -0.543680
O6    O     O_R   0.101750 0.894910 0.098480 -0.521219
C1    C     C_R   0.610700 0.763999 0.381542 0.824564
C2    C     C_R   0.115277 0.235407 0.886965 0.838273
O7    O     O_R   0.397870 0.934620 0.389680 -0.528682
O8    O     O_R   0.897870 0.065380 0.889680 -0.546562
O9    O     O_R   0.414160 0.107620 0.582600 -0.549718
O10   O     O_R   0.914160 0.892380 0.082600 -0.548326
C3    C     C_R   0.364064 0.765711 0.362554 0.743486
C4    C     C_R   0.863974 0.234266 0.862677 0.709702
O11   O     O_R   0.585840 0.602550 0.417400 -0.524467
O12   O     O_R   0.085840 0.397450 0.917400 -0.519584
O13   O     O_3   0.505560 0.772440 0.563310 -0.392834
O14   O     O_3   0.005560 0.227560 0.063310 -0.389734
V1    V     V_3+5 0.498970 0.046250 0.488250 1.584952
V2    V     V_3+5 0.998970 0.953750 0.988250 1.554171
O15   O     O_R   0.415870 0.437500 0.594550 -0.553940
O16   O     O_R   0.915870 0.562500 0.094550 -0.554825
C5    C     C_R   0.387866 0.269407 0.616484 0.744964
C6    C     C_R   0.886330 0.730361 0.114584 0.741240
O17   O     O_R   0.602130 0.434980 0.610320 -0.544530
O18   O     O_R   0.102130 0.565020 0.110320 -0.544521
C7    C     C_R   0.635989 0.265924 0.637313 0.732502
C8    C     C_R   0.136019 0.734075 0.137269 0.800496
V3    V     V_3+5 0.501030 0.546580 0.511750 1.500983
V4    V     V_3+5 0.001030 0.453420 0.011750 1.495860
O19   O     O_3   0.494440 0.270520 0.436690 -0.330273
O20   O     O_3   0.994440 0.729480 0.936690 -0.355812
C9    C     C_1   0.716322 0.255214 0.716912 -0.171410
C10   C     C_1   0.216436 0.744787 0.216758 -0.135071
C11   C     C_1   0.783617 0.244977 0.783108 -0.163221
C12   C     C_1   0.283755 0.755004 0.282922 -0.130373
C13   C     C_2   0.297728 0.105534 0.727496 -0.207728
C14   C     C_2   0.771717 0.891756 0.196061 -0.208435
C15   C     C_2   0.324997 0.268142 0.688489 -0.341324
C16   C     C_2   0.815332 0.730835 0.177002 -0.352452
H1    H     H_    0.322348 0.968529 0.704673 0.155032
H2    H     H_    0.791112 0.027278 0.166129 0.159904
H3    H     H_    0.305221 0.407012 0.714125 0.136954
H4    H     H_    0.794740 0.591828 0.201577 0.138880
C17   C     C_2   0.241855 0.101156 0.807559 0.453048
C18   C     C_2   0.693080 0.896227 0.249333 0.445697
C19   C     C_2   0.180699 0.242542 0.817251 -0.389193
C20   C     C_2   0.679636 0.756746 0.315897 -0.382421
H5    H     H_    0.175034 0.367504 0.768678 0.121340
H6    H     H_    0.724565 0.633134 0.327541 0.120258
S1    S     S_3+6 0.261955 0.901258 0.890233 0.038927
O21   O     O_2   0.264976 0.966653 0.996021 -0.296309
O22   O     O_2   0.186996 0.755929 0.862911 -0.362780
O23   O     O_3   0.362011 0.796883 0.882971 -0.462737
H7    H     H_    0.347536 0.697332 0.830290 0.329671
S2    S     S_3+6 0.618518 0.095734 0.219193 0.049904
O24   O     O_2   0.521270 0.031405 0.208014 -0.274245
O25   O     O_2   0.637983 0.243427 0.301168 -0.359340
O26   O     O_3   0.633260 0.196791 0.110902 -0.474304
H8    H     H_    0.678478 0.300769 0.130117 0.329372

loop_
_geom_bond_atom_site_label_1
_geom_bond_atom_site_label_2
_ccdc_geom_bond_type
V4    O20   S    
O3    V1    S    
O5    V1    S    
O8    V2    S    
O17   C7    A    
O13   V3    S    
O10   C6    A    
O5    C7    A    
O18   C8    A    
S2    O26   S    
O2    V4    S    
O4    C2    A    
S1    O23   S    
V1    O19   S    
C1    C20   S    
O10   V2    S    
C1    O11   A    
C2    C19   S    
C8    C10   S    
O26   H8    S    
C19   H5    S    
V2    O20   S    
C7    C9    S    
C14   C16   D    
C9    C11   T    
O9    V1    S    
O1    V3    S    
O15   V3    S    
C5    C15   S    
C3    C12   S    
C13   H1    S    
O14   V4    S    
C20   H6    S    
C6    C16   S    
S2    O25   D    
O11   V3    S    
O3    C1    A    
C10   C12   T    
O15   C5    A    
O17   V3    S    
O2    C4    A    
O16   C6    A    
C14   C18   S    
O1    C3    A    
C14   H2    S    
C17   S1    S    
O12   V4    S    
S1    O21   D    
O4    V2    S    
C18   C20   D    
C16   H4    S    
O6    V2    S    
S2    O24   D    
O14   V2    S    
C13   C15   D    
C2    O12   A    
C17   C19   D    
O9    C5    A    
C4    C11   S    
O7    C3    A    
O23   H7    S    
C15   H3    S    
O16   V4    S    
O13   V1    S    
V3    O19   S    
C13   C17   S    
O7    V1    S    
O6    C8    A    
O8    C4    A    
S1    O22   D    
O18   V4    S    
C18   S2    S    
