data_mof_unit_45390.cif
_audit_creation_date              2012-12-11T16:23:57-0500
_audit_creation_method            fapswitch 2.2
_symmetry_space_group_name_H-M    P1
_symmetry_Int_Tables_number       1
_space_group_crystal_system       triclinic
_cell_length_a                    14.741774
_cell_length_b                    14.748976
_cell_length_c                    33.244358
_cell_angle_alpha                 95.992785
_cell_angle_beta                  96.045355
_cell_angle_gamma                 61.264096
_cell_volume                      6290.76128569

loop_
_atom_site_label
_atom_site_type_symbol
_atom_type_description
_atom_site_fract_x
_atom_site_fract_y
_atom_site_fract_z
_atom_type_partial_charge
C1    C     C_R   0.390421 0.701362 0.446580 0.568014
C2    C     C_R   0.325748 0.337026 0.309937 0.015012
C3    C     C_R   0.402798 0.251790 0.330963 0.055237
C4    C     C_R   0.423676 0.267129 0.372646 -0.126540
C5    C     C_R   0.387815 0.251627 0.166870 -0.127677
C6    C     C_R   0.381154 0.233664 0.125003 -0.127156
C7    C     C_R   0.206212 0.376702 0.121916 -0.130576
C8    C     C_R   0.211669 0.395876 0.164178 0.058092
C9    C     C_R   0.302886 0.329707 0.186718 0.016742
C10   C     C_1   0.308971 0.333305 0.230158 0.082194
C11   C     C_1   0.315332 0.334516 0.266503 0.081352
C12   C     C_R   0.405708 0.386086 0.434103 0.547015
C13   C     C_R   0.288973 0.293554 0.102309 -0.006247
C14   C     C_R   0.762872 0.369573 0.411818 0.022314
C15   C     C_R   0.803619 0.427018 0.396831 -0.125257
C16   C     C_R   0.842673 0.400965 0.358568 -0.114432
C17   C     C_R   0.841148 0.317325 0.334595 0.032285
C18   C     C_R   0.809326 0.254215 0.351150 -0.107518
C19   C     C_R   0.770539 0.280108 0.389503 -0.119669
C20   C     C_R   0.869391 0.297473 0.209881 0.351817
C21   C     C_R   0.859993 0.304445 0.291235 0.347238
C22   C     C_R   0.875906 0.377250 0.148886 -0.110718
C23   C     C_R   0.701535 0.409586 0.447764 0.554710
C24   C     C_R   0.893037 0.370796 0.108261 -0.136616
C25   C     C_R   0.894608 0.204068 0.098943 0.041655
C26   C     C_R   0.879005 0.210992 0.140345 -0.114803
C27   C     C_R   0.873959 0.295255 0.165752 0.000907
C28   C     C_R   0.909723 0.281682 0.083321 -0.005570
C29   C     C_R   0.371089 0.759162 0.410126 -0.001483
C30   C     C_R   0.271343 0.812183 0.390033 0.042068
C31   C     C_R   0.263949 0.836676 0.349743 -0.112347
C32   C     C_R   0.352878 0.814205 0.330148 0.008060
C33   C     C_R   0.449052 0.774047 0.351989 -0.118026
C34   C     C_R   0.393464 0.701184 0.561312 0.550166
C35   C     C_R   0.458123 0.746486 0.391421 -0.149181
C36   C     C_R   0.340386 0.833437 0.205029 0.347703
C37   C     C_R   0.346652 0.825855 0.286419 0.353403
C38   C     C_R   0.252857 0.838770 0.136443 -0.104842
C39   C     C_R   0.234257 0.867575 0.096657 -0.110772
C40   C     C_R   0.381854 0.899768 0.104603 -0.127694
C41   C     C_R   0.400759 0.870434 0.144413 -0.113668
C42   C     C_R   0.333333 0.844553 0.161208 0.032016
C43   C     C_R   0.295441 0.903292 0.081067 0.017315
C44   C     C_R   0.372690 0.371238 0.586190 0.020704
C45   C     C_R   0.407552 0.389188 0.549277 0.542104
C46   C     C_R   0.288804 0.452869 0.605753 -0.121252
C47   C     C_R   0.271378 0.445397 0.645390 -0.101601
C48   C     C_R   0.337147 0.355964 0.666059 0.039630
C49   C     C_R   0.415133 0.270941 0.645195 -0.115341
C50   C     C_R   0.432865 0.278579 0.605637 -0.128729
C51   C     C_R   0.328739 0.354606 0.791438 0.378919
C52   C     C_R   0.330386 0.354320 0.709907 0.356193
C53   C     C_R   0.222920 0.401561 0.850338 -0.131844
C54   C     C_R   0.207613 0.379191 0.887872 -0.133010
C55   C     C_R   0.391391 0.261887 0.897466 -0.126345
C56   C     C_R   0.702126 0.413036 0.562518 0.578518
C57   C     C_R   0.408507 0.285788 0.860158 0.048940
C58   C     C_R   0.321771 0.350992 0.835076 0.013628
C59   C     C_R   0.290842 0.305065 0.910707 -0.008035
C60   C     C_R   0.754335 0.379021 0.602930 -0.011867
C61   C     C_R   0.815556 0.420381 0.624951 0.026431
C62   C     C_R   0.842371 0.402348 0.666838 0.051631
C63   C     C_R   0.810022 0.341613 0.685361 -0.002509
C64   C     C_R   0.756500 0.295754 0.662588 -0.138305
C65   C     C_R   0.729112 0.313979 0.621952 -0.151609
C66   C     C_R   0.883457 0.215567 0.823053 -0.094977
C67   C     C_R   0.368540 0.364376 0.393171 -0.008920
C68   C     C_R   0.911622 0.203147 0.864361 -0.114947
C69   C     C_R   0.869998 0.384029 0.874229 -0.119546
C70   C     C_R   0.841840 0.396199 0.832991 -0.097401
C71   C     C_R   0.851656 0.311276 0.807215 0.046555
C72   C     C_1   0.836685 0.320827 0.764281 0.012997
C73   C     C_1   0.825495 0.329693 0.728320 0.023974
C74   C     C_R   0.908842 0.286412 0.890073 0.021242
C75   C     C_R   0.376667 0.753348 0.602316 0.017638
C76   C     C_R   0.282082 0.786229 0.619809 -0.118769
C77   C     C_R   0.273543 0.812893 0.661266 -0.096390
C78   C     C_R   0.286475 0.444981 0.372360 -0.131592
C79   C     C_R   0.359069 0.807492 0.685637 0.038215
C80   C     C_R   0.451448 0.781325 0.668176 -0.105743
C81   C     C_R   0.460204 0.754733 0.626660 -0.118433
C82   C     C_R   0.392940 0.885321 0.831930 -0.134266
C83   C     C_R   0.372419 0.917143 0.872376 -0.126347
C84   C     C_R   0.238631 0.864896 0.865837 -0.129629
C85   C     C_R   0.259580 0.830797 0.825078 0.062003
C86   C     C_R   0.335091 0.845433 0.807827 0.017934
C87   C     C_1   0.346981 0.831183 0.764895 0.043570
C88   C     C_1   0.353766 0.821159 0.728799 0.025203
C89   C     C_R   0.265816 0.431440 0.331024 -0.125790
C90   C     C_R   0.292453 0.910880 0.889291 -0.009623
C91   C     C_R   0.962766 0.264425 0.045585 0.561082
C92   C     C_R   0.272347 0.259305 0.060165 0.548878
C93   C     C_R   0.259007 0.959674 0.043787 0.542623
C94   C     C_R   0.962256 0.267835 0.930840 0.547031
C95   C     C_R   0.270937 0.264136 0.945383 0.548447
C96   C     C_R   0.256446 0.964598 0.929048 0.542452
Cr1   Cr    Cr6+3 0.576280 0.580550 0.506370 1.048674
Cr2   Cr    Cr6+3 0.346780 0.572400 0.496520 1.053805
Cr3   Cr    Cr6+3 0.576960 0.347070 0.497150 1.033685
Cr4   Cr    Cr6+3 0.087320 0.083240 0.984860 1.079238
Cr5   Cr    Cr6+3 0.087720 0.316210 0.996740 1.029546
Cr6   Cr    Cr6+3 0.317350 0.090340 0.995890 1.032194
H1    H     H_    0.446136 0.169086 0.110764 0.145377
H2    H     H_    0.740728 0.233629 0.400519 0.145432
H3    H     H_    0.900747 0.433196 0.097258 0.166905
H4    H     H_    0.868353 0.450142 0.346931 0.144718
H5    H     H_    0.808525 0.188425 0.333628 0.155605
H6    H     H_    0.868788 0.444960 0.167438 0.177000
H7    H     H_    0.535225 0.708213 0.406139 0.146844
H8    H     H_    0.167812 0.868232 0.079057 0.160524
H9    H     H_    0.518729 0.757479 0.337824 0.153869
H10   H     H_    0.200933 0.816982 0.148354 0.155333
H11   H     H_    0.430756 0.926276 0.093280 0.136368
H12   H     H_    0.464162 0.874439 0.162702 0.143170
H13   H     H_    0.240655 0.525194 0.591493 0.137579
H14   H     H_    0.497637 0.214103 0.591246 0.136617
H15   H     H_    0.129268 0.414264 0.897531 0.143668
H16   H     H_    0.209561 0.511631 0.660429 0.147119
H17   H     H_    0.456342 0.208006 0.916001 0.176195
H18   H     H_    0.941584 0.126950 0.875591 0.143486
H19   H     H_    0.890925 0.149488 0.803233 0.131450
H20   H     H_    0.732040 0.248753 0.676729 0.137344
H21   H     H_    0.682531 0.281290 0.605988 0.149270
H22   H     H_    0.816835 0.470677 0.820940 0.128891
H23   H     H_    0.866762 0.449665 0.893237 0.135886
H24   H     H_    0.415157 0.952385 0.889646 0.150818
H25   H     H_    0.451027 0.896396 0.818896 0.135304
H26   H     H_    0.518006 0.777107 0.686880 0.136829
H27   H     H_    0.534247 0.729267 0.614187 0.152321
H28   H     H_    0.216417 0.785894 0.601938 0.140828
H29   H     H_    0.178165 0.858202 0.879068 0.168269
H30   H     H_    0.201639 0.833333 0.674593 0.135276
H31   H     H_    0.242493 0.520760 0.387362 0.153474
H32   H     H_    0.135211 0.423966 0.104440 0.164952
H33   H     H_    0.206464 0.496775 0.315021 0.159390
H34   H     H_    0.800112 0.495486 0.413653 0.138647
N1    N     N_R   0.881098 0.371081 0.234426 -0.212140
N2    N     N_R   0.265679 0.441067 0.731610 -0.215545
N3    N     N_R   0.393700 0.267682 0.729783 -0.218670
N4    N     N_R   0.392249 0.267593 0.769684 -0.180826
N5    N     N_R   0.876143 0.374725 0.274249 -0.221344
N6    N     N_R   0.849913 0.229650 0.266769 -0.214800
N7    N     N_R   0.855099 0.225856 0.226854 -0.214964
N8    N     N_R   0.259919 0.836945 0.222811 -0.209699
N9    N     N_R   0.263091 0.832936 0.262710 -0.209409
N10   N     N_R   0.427222 0.822297 0.268664 -0.214372
N11   N     N_R   0.423850 0.826759 0.228750 -0.223778
N12   N     N_R   0.264289 0.441020 0.771581 -0.205163
O1    O     O_R   0.679450 0.499830 0.463150 -0.513422
O2    O     O_R   0.356040 0.477400 0.534170 -0.502854
O3    O     O_R   0.495910 0.323070 0.537100 -0.519400
O4    O     O_R   0.663920 0.359620 0.542290 -0.504989
O5    O     O_3   0.500010 0.500010 0.500010 -0.256027
O6    O     O_R   0.170070 0.978950 0.027680 -0.504396
O7    O     O_R   0.001760 0.175230 0.026640 -0.454468
O8    O     O_R   0.984760 0.333570 0.037150 -0.523197
O9    O     O_R   0.183410 0.309240 0.041890 -0.502263
O10   O     O_R   0.340240 0.172500 0.045430 -0.511586
O11   O     O_R   0.309670 0.000990 0.032050 -0.503425
O12   O     O_R   0.480650 0.664000 0.464630 -0.509348
O13   O     O_R   0.168330 0.982130 0.939200 -0.514525
O14   O     O_R   0.000140 0.178170 0.944610 -0.491134
O15   O     O_R   0.983010 0.336750 0.948660 -0.519701
O16   O     O_R   0.181800 0.312190 0.959860 -0.499834
O17   O     O_R   0.338500 0.175680 0.956950 -0.511275
O18   O     O_R   0.308050 0.003930 0.950020 -0.499631
O19   O     O_3   0.164130 0.163270 0.992500 -0.253450
O20   O     O_R   0.323930 0.675950 0.455370 -0.472611
O21   O     O_R   0.354700 0.475360 0.451930 -0.500335
O22   O     O_R   0.494470 0.320860 0.448390 -0.513090
O23   O     O_R   0.662580 0.357570 0.460050 -0.498680
O24   O     O_R   0.680900 0.502040 0.551870 -0.480667
O25   O     O_R   0.481990 0.666040 0.546870 -0.502948
O26   O     O_R   0.325370 0.678160 0.544080 -0.505717
C97   C     C_2   0.894706 0.115158 0.073574 0.589186
O27   O     O_2   0.855210 0.127077 0.038974 -0.497835
O28   O     O_R   0.936326 0.018417 0.089878 -0.708651
H35   H     H_    0.931315 0.964085 0.069804 0.340251
H36   H     H_    0.872271 0.149700 0.152874 0.176105
C98   C     C_2   0.173866 0.844354 0.409884 0.587864
O29   O     O_2   0.168584 0.868926 0.446195 -0.491513
O30   O     O_R   0.086397 0.850758 0.386658 -0.700285
H37   H     H_    0.024356 0.874892 0.403454 0.346108
H38   H     H_    0.457950 0.201045 0.184071 0.143112
H39   H     H_    0.188620 0.873002 0.333483 0.179042
H40   H     H_    0.466312 0.200332 0.660087 0.142590
C99   C     C_2   0.464381 0.147788 0.310233 0.576774
O31   O     O_2   0.546769 0.085111 0.326152 -0.513590
O32   O     O_R   0.427656 0.120039 0.273030 -0.694601
H41   H     H_    0.476325 0.047164 0.262369 0.353560
H42   H     H_    0.155779 0.452542 0.831892 0.153141
C100  C     C_2   0.517152 0.242361 0.848699 0.589408
O33   O     O_2   0.539652 0.287709 0.826036 -0.486925
O34   O     O_R   0.594832 0.151152 0.865043 -0.699783
H43   H     H_    0.665699 0.130129 0.855414 0.347933
C101  C     C_2   0.856084 0.475724 0.603496 0.600289
O35   O     O_2   0.851749 0.557121 0.618142 -0.472222
O36   O     O_R   0.898262 0.434618 0.565941 -0.683396
H44   H     H_    0.922630 0.479148 0.554041 0.340493
H45   H     H_    0.485572 0.204096 0.388894 0.169168
C102  C     C_2   0.905142 0.444449 0.691400 0.597542
O37   O     O_2   0.991666 0.385188 0.705383 -0.502308
O38   O     O_R   0.863795 0.551278 0.699799 -0.652277
H46   H     H_    0.913647 0.570258 0.717212 0.348432
C103  C     C_2   0.199956 0.783070 0.801325 0.578843
O39   O     O_2   0.118003 0.797050 0.813051 -0.519030
O40   O     O_R   0.238053 0.720138 0.766127 -0.684806
H47   H     H_    0.190636 0.691930 0.753070 0.354850
C104  C     C_2   0.120188 0.482385 0.183719 0.581678
O41   O     O_2   0.034894 0.518968 0.165421 -0.532663
O42   O     O_R   0.131090 0.523711 0.222622 -0.698808
H48   H     H_    0.063190 0.582085 0.232297 0.351854

loop_
_geom_bond_atom_site_label_1
_geom_bond_atom_site_label_2
_ccdc_geom_bond_type
C8    C9    A    
C7    C13   A    
C66   C68   A    
O38   H46   S    
Cr6   O19   S    
C89   H33   S    
C55   C59   A    
C41   C42   A    
C74   C94   S    
C36   C42   S    
C41   H12   S    
C87   C88   T    
Cr6   O10   S    
C85   C103  S    
C7    C8    A    
C97   O28   S    
Cr3   O22   S    
C55   H17   S    
C85   C86   A    
C98   O29   D    
C25   C28   A    
C91   O7    A    
C26   C27   A    
C62   C63   A    
Cr1   O24   S    
C59   C95   S    
C46   H13   S    
Cr4   O19   S    
C5    C6    A    
Cr4   O6    S    
C93   O6    A    
C56   C60   S    
C21   N6    A    
C38   C42   A    
C43   C93   S    
Cr5   O16   S    
C30   C31   A    
Cr2   O26   S    
C22   H6    S    
Cr3   O23   S    
C68   C74   A    
C15   C16   A    
C52   N3    A    
C96   O13   A    
C92   O10   A    
C45   O2    A    
C102  O37   D    
Cr5   O19   S    
C18   H5    S    
N1    N5    A    
C32   C37   S    
C104  O42   S    
O30   H37   S    
Cr2   O21   S    
C76   H28   S    
C39   H8    S    
C49   H40   S    
C47   C48   A    
C53   C54   A    
N2    N12   A    
C16   C17   A    
C52   N2    A    
O36   H44   S    
C33   H9    S    
Cr1   O5    S    
C37   N10   A    
C56   O4    A    
C9    C10   S    
C94   O14   A    
C5    H38   S    
C50   H14   S    
C61   C62   A    
C35   H7    S    
C16   H4    S    
C34   C75   S    
C72   C73   T    
C51   N4    A    
C77   C79   A    
O34   H43   S    
C23   O1    A    
Cr2   O5    S    
Cr5   O9    S    
Cr6   O18   S    
C56   O24   A    
C102  O38   S    
C20   N7    A    
O32   H41   S    
C67   C78   A    
C84   C90   A    
C2    C11   S    
C95   O17   A    
C79   C88   S    
C44   C46   A    
C17   C18   A    
C54   C59   A    
C103  O40   S    
C78   C89   A    
C12   C67   S    
C20   N1    A    
Cr1   O25   S    
O40   H47   S    
Cr1   O12   S    
Cr5   O15   S    
C76   C77   A    
C57   C100  S    
C101  O36   S    
C86   C87   S    
C18   C19   A    
C12   O22   A    
C15   H34   S    
C63   C73   S    
Cr5   O8    S    
C25   C26   A    
C26   H36   S    
Cr3   O3    S    
C40   H11   S    
C17   C21   S    
C63   C64   A    
C92   O9    A    
C47   H16   S    
C77   H30   S    
C100  O34   S    
C14   C23   S    
C2    C89   A    
C75   C76   A    
C62   C102  S    
C5    C9    A    
C29   C30   A    
C34   O26   A    
C19   H2    S    
C25   C97   S    
C36   N11   A    
C81   H27   S    
C31   C32   A    
C4    H45   S    
N3    N4    A    
C31   H39   S    
C1    C29   S    
C104  O41   D    
C66   H19   S    
C23   O23   A    
C69   C74   A    
C51   C58   S    
C6    H1    S    
C84   C85   A    
C53   H42   S    
C61   C101  S    
Cr4   O13   S    
C66   C71   A    
C7    H32   S    
Cr4   O7    S    
C40   C41   A    
C60   C65   A    
C49   C50   A    
Cr6   O17   S    
C22   C27   A    
C55   C57   A    
C13   C92   S    
C22   C24   A    
C80   C81   A    
C83   H24   S    
C38   H10   S    
C8    C104  S    
C70   C71   A    
C44   C45   S    
N10   N11   A    
Cr2   O2    S    
C44   C50   A    
C83   C90   A    
C103  O39   D    
C46   C47   A    
C48   C49   A    
Cr1   O1    S    
C98   O30   S    
C14   C15   A    
C14   C19   A    
C1    O12   A    
C75   C81   A    
C24   C28   A    
C101  O35   D    
C3    C99   S    
Cr6   O11   S    
C4    C67   A    
C39   C43   A    
C53   C58   A    
C90   C96   S    
C12   O21   A    
C20   C27   S    
C80   H26   S    
Cr3   O4    S    
C29   C35   A    
C84   H29   S    
C1    O20   A    
N8    N9    A    
C37   N9    A    
C32   C33   A    
C40   C43   A    
C2    C3    A    
C36   N8    A    
C21   N5    A    
C71   C72   S    
C97   O27   D    
C82   C86   A    
C95   O16   A    
C100  O33   D    
C6    C13   A    
C57   C58   A    
C38   C39   A    
C51   N12   A    
C64   H20   S    
Cr3   O5    S    
C64   C65   A    
O42   H48   S    
C33   C35   A    
C28   C91   S    
C96   O18   A    
C65   H21   S    
C69   C70   A    
C78   H31   S    
C82   H25   S    
C99   O32   S    
Cr4   O14   S    
C10   C11   T    
O28   H35   S    
C69   H23   S    
C79   C80   A    
C70   H22   S    
C48   C52   S    
C91   O8    A    
C68   H18   S    
C93   O11   A    
C82   C83   A    
C54   H15   S    
C34   O25   A    
C30   C98   S    
N6    N7    A    
C60   C61   A    
C99   O31   D    
C24   H3    S    
C45   O3    A    
C94   O15   A    
Cr2   O20   S    
C3    C4    A    
