data_mof_unit_11139.cif
_audit_creation_date              2013-03-05T15:39:31-0500
_audit_creation_method            fapswitch 2.2
_symmetry_space_group_name_H-M    P1
_symmetry_Int_Tables_number       1
_space_group_crystal_system       triclinic
_cell_length_a                    19.835946
_cell_length_b                    17.107266
_cell_length_c                    15.540177
_cell_angle_alpha                 89.853483
_cell_angle_beta                  53.619024
_cell_angle_gamma                 90.141587
_cell_volume                      4245.48778018

loop_
_atom_site_label
_atom_site_type_symbol
_atom_site_description
_atom_site_fract_x
_atom_site_fract_y
_atom_site_fract_z
_atom_type_partial_charge
C1    C     C_R   0.380851 0.198304 0.988372 0.494169
C2    C     C_R   0.334819 0.833107 0.057291 0.594923
C3    C     C_R   0.884890 0.698666 0.982660 0.536493
C4    C     C_R   0.837552 0.329449 0.052643 0.617943
N1    N     N_R   0.408680 0.130160 0.995800 -0.082621
N2    N     N_R   0.408680 0.869840 0.995800 -0.062694
N3    N     N_R   0.908680 0.630160 0.995800 -0.083627
N4    N     N_R   0.908680 0.369840 0.995800 -0.069231
C5    C     C_R   0.410230 0.799281 0.204076 0.056496
C6    C     C_R   0.404778 0.199847 0.206625 -0.064019
C7    C     C_R   0.904181 0.300952 0.207703 0.127595
C8    C     C_R   0.896853 0.698506 0.208369 -0.139324
N5    N     N_R   0.421680 0.867580 0.153120 -0.036394
N6    N     N_R   0.421680 0.132420 0.153120 -0.072313
N7    N     N_R   0.921680 0.367580 0.153120 -0.029749
N8    N     N_R   0.921680 0.632420 0.153120 -0.068314
C9    C     C_R   0.330167 0.913597 0.950307 -0.155497
C10   C     C_R   0.365757 0.111326 0.896780 -0.192608
C11   C     C_R   0.831927 0.411128 0.946905 -0.195938
C12   C     C_R   0.864187 0.609870 0.898386 -0.185308
H1    H     H_    0.311787 0.945237 0.906986 0.170011
H2    H     H_    0.359454 0.085055 0.838622 0.172730
H3    H     H_    0.814891 0.440795 0.900868 0.137748
H4    H     H_    0.854679 0.582110 0.843873 0.127515
N9    N     N_R   0.403730 0.921770 0.935950 -0.079819
N10   N     N_R   0.403730 0.078230 0.935950 -0.078155
N11   N     N_R   0.903730 0.421770 0.935950 -0.075269
N12   N     N_R   0.903730 0.578230 0.935950 -0.071236
C13   C     C_R   0.422254 0.109223 0.291561 -0.208085
C14   C     C_R   0.419971 0.891498 0.293866 -0.088333
C15   C     C_R   0.907481 0.606984 0.302053 -0.066560
C16   C     C_R   0.907983 0.393999 0.302468 -0.078764
H5    H     H_    0.447223 0.080464 0.328363 0.112736
H6    H     H_    0.434037 0.924211 0.339875 0.134229
H7    H     H_    0.915622 0.576346 0.355971 0.190773
H8    H     H_    0.916663 0.424161 0.356154 0.159536
N13   N     N_R   0.426630 0.075970 0.212960 -0.043949
N14   N     N_R   0.426630 0.924030 0.212960 -0.058045
N15   N     N_R   0.926630 0.575970 0.212960 -0.068289
N16   N     N_R   0.926630 0.424030 0.212960 -0.062379
C17   C     C_R   0.350034 0.187789 0.930245 -0.005592
C18   C     C_R   0.285401 0.856029 0.027234 -0.048727
C19   C     C_R   0.850178 0.686424 0.929683 0.001431
C20   C     C_R   0.789265 0.351111 0.020338 -0.027272
C21   C     C_R   0.401856 0.813437 0.299077 0.040690
C22   C     C_R   0.397381 0.185134 0.301239 0.016957
C23   C     C_R   0.883288 0.318593 0.308067 -0.050441
C24   C     C_R   0.885033 0.683701 0.304740 -0.003318
C25   C     C_R   0.645233 0.190410 0.979156 -0.145857
C26   C     C_R   0.648078 0.812238 0.977866 -0.109744
C27   C     C_R   0.127028 0.698569 0.006732 -0.146380
C28   C     C_R   0.156194 0.318876 0.962500 -0.127392
H9    H     H_    0.650740 0.244078 0.938580 0.097528
H10   H     H_    0.651231 0.755389 0.945800 0.122532
H11   H     H_    0.123766 0.754896 0.977997 0.107181
H12   H     H_    0.164393 0.265442 0.920832 0.156236
N17   N     N_R   0.591320 0.134600 0.004200 -0.058335
N18   N     N_R   0.591320 0.865400 0.004200 -0.046011
N19   N     N_R   0.091320 0.634600 0.004200 -0.049868
N20   N     N_R   0.091320 0.365400 0.004200 -0.051492
C29   C     C_R   0.644990 0.824930 0.780846 -0.065276
C30   C     C_R   0.607463 0.196555 0.788188 -0.070363
C31   C     C_R   0.112229 0.305014 0.789677 -0.115406
C32   C     C_R   0.151502 0.666621 0.787455 -0.183435
H13   H     H_    0.657112 0.770116 0.802919 0.094190
H14   H     H_    0.618915 0.249759 0.814401 0.082211
H15   H     H_    0.112068 0.250515 0.824045 0.164606
H16   H     H_    0.166693 0.712450 0.818846 0.099727
N21   N     N_R   0.578320 0.867660 0.846880 -0.022359
N22   N     N_R   0.578320 0.132340 0.846880 -0.041074
N23   N     N_R   0.078320 0.367660 0.846880 -0.050384
N24   N     N_R   0.078320 0.632340 0.846880 -0.032319
C33   C     C_R   0.595282 0.104827 0.696121 -0.072140
C34   C     C_R   0.640558 0.922742 0.687651 -0.122357
C35   C     C_R   0.145303 0.577005 0.688747 -0.006881
C36   C     C_R   0.105740 0.395779 0.691148 -0.133784
H17   H     H_    0.588999 0.074099 0.640842 0.143606
H18   H     H_    0.651224 0.961223 0.626287 0.159408
H19   H     H_    0.158153 0.542693 0.622644 0.100347
H20   H     H_    0.105879 0.424514 0.629104 0.119272
N25   N     N_R   0.573370 0.074390 0.787040 -0.054386
N26   N     N_R   0.573370 0.925610 0.787040 -0.056718
N27   N     N_R   0.073370 0.574390 0.787040 -0.053359
N28   N     N_R   0.073370 0.425610 0.787040 -0.060879
C37   C     C_R   0.659853 0.909243 0.068031 -0.109376
C38   C     C_R   0.652587 0.097944 0.078941 -0.127385
C39   C     C_R   0.165459 0.413967 0.057592 -0.130802
C40   C     C_R   0.138790 0.603669 0.097977 -0.119072
H21   H     H_    0.677561 0.940003 0.112450 0.122820
H22   H     H_    0.663813 0.072323 0.132976 0.113137
H23   H     H_    0.184776 0.445696 0.099670 0.116235
H24   H     H_    0.146763 0.576453 0.154246 0.104680
N29   N     N_R   0.596270 0.927870 0.064040 -0.060060
N30   N     N_R   0.596270 0.072130 0.064040 -0.047821
N31   N     N_R   0.096270 0.427870 0.064040 -0.060221
N32   N     N_R   0.096270 0.572130 0.064040 -0.048165
Ni1   Ni    Ni4+2 0.500000 0.131190 0.000000 0.233304
Ni2   Ni    Ni4+2 0.500000 0.868810 0.000000 0.325659
Ni3   Ni    Ni4+2 0.000000 0.631190 0.000000 0.255987
Ni4   Ni    Ni4+2 1.000000 0.368810 0.000000 0.309697
Ni5   Ni    Ni4+2 0.488650 0.000000 0.862740 0.230726
Ni6   Ni    Ni4+2 0.988650 0.500000 0.862740 0.220887
Ni7   Ni    Ni4+2 0.511350 1.000000 0.137260 0.218284
Ni8   Ni    Ni4+2 0.011350 0.500000 0.137260 0.208560
C41   C     C_R   0.683151 0.170001 0.026088 0.161757
C42   C     C_R   0.694626 0.840412 0.010427 0.142563
C43   C     C_R   0.158526 0.681052 0.062147 0.155018
C44   C     C_R   0.204010 0.348348 0.992914 0.139085
C45   C     C_R   0.684708 0.857274 0.679368 0.029112
C46   C     C_R   0.621644 0.180193 0.691134 0.100490
C47   C     C_R   0.135969 0.321906 0.688775 0.151140
C48   C     C_R   0.194317 0.638594 0.684292 0.152094
C49   C     C_3   0.287703 0.153295 0.505897 -0.283915
C50   C     C_3   0.319666 0.824412 0.505674 -0.279812
C51   C     C_3   0.734311 0.719400 0.449699 -0.294963
C52   C     C_3   0.738111 0.350629 0.486393 -0.251419
C53   C     C_3   0.220911 0.194992 0.617531 -0.250268
C54   C     C_3   0.254322 0.777994 0.614733 -0.330998
C55   C     C_3   0.676828 0.758897 0.565201 -0.266857
C56   C     C_3   0.655748 0.306850 0.585637 -0.390214
H25   H     H_    0.761729 0.719939 0.661274 0.031236
H26   H     H_    0.759919 0.266513 0.640996 0.014456
H27   H     H_    0.297841 0.346097 0.595259 0.038636
H28   H     H_    0.375447 0.674959 0.560278 0.077196
C57   C     C_3   0.361606 0.290714 0.437900 0.831398
C58   C     C_3   0.399894 0.694554 0.404107 0.740380
C59   C     C_3   0.845032 0.701954 0.491345 0.831069
C60   C     C_3   0.844398 0.245949 0.468974 0.749635
C61   C     C_3   0.857252 0.817306 0.384018 -0.516189
C62   C     C_3   0.767507 0.219638 0.388631 -0.475883
C63   C     C_3   0.256638 0.246791 0.403675 -0.518062
C64   C     C_3   0.272042 0.735867 0.416845 -0.449819
C65   C     C_3   0.328764 0.217815 0.410595 0.012822
C66   C     C_3   0.350913 0.768250 0.404129 0.039260
C67   C     C_3   0.830698 0.729074 0.405726 0.044463
C68   C     C_3   0.809862 0.285509 0.411178 0.039918
H29   H     H_    0.921777 0.824596 0.361080 0.199300
H30   H     H_    0.812789 0.176838 0.329003 0.150938
H31   H     H_    0.278810 0.296339 0.347114 0.231953
H32   H     H_    0.288416 0.703804 0.344925 0.145390
H33   H     H_    0.859578 0.843026 0.317931 0.230310
H34   H     H_    0.735519 0.244792 0.355864 0.271114
H35   H     H_    0.237775 0.200987 0.371074 0.214289
H36   H     H_    0.229475 0.782123 0.426320 0.279399
C69   C     C_3   0.736698 0.811464 0.580280 -0.082931
C70   C     C_3   0.684771 0.221194 0.589978 -0.034119
C71   C     C_3   0.203023 0.280257 0.591343 -0.057362
C72   C     C_3   0.253833 0.688037 0.585741 0.007092
C73   C     C_3   0.796966 0.757667 0.588905 0.107485
C74   C     C_3   0.767887 0.222841 0.582727 0.211393
C75   C     C_3   0.284626 0.333050 0.536308 0.154475
C76   C     C_3   0.346564 0.657567 0.520130 0.091459
C77   C     C_3   0.796202 0.866877 0.482427 0.420909
C78   C     C_3   0.705902 0.173051 0.490169 0.334170
C79   C     C_3   0.180378 0.276136 0.511171 0.453612
C80   C     C_3   0.225210 0.679204 0.510386 0.372785
H37   H     H_    0.832960 0.903794 0.500392 0.138631
H38   H     H_    0.736434 0.117210 0.487106 0.141903
H39   H     H_    0.166252 0.335880 0.497192 0.083897
H40   H     H_    0.242295 0.619046 0.476027 0.131741
C81   C     C_2   0.208275 0.734491 0.074300 -0.189915
C82   C     C_2   0.271752 0.306374 0.980143 -0.192495
C83   C     C_2   0.736846 0.222495 0.030548 -0.194376
C84   C     C_2   0.763295 0.798809 0.994985 -0.193217
H41   H     H_    0.250072 0.706085 0.087492 0.183700
H42   H     H_    0.280835 0.317035 0.041361 0.177598
H43   H     H_    0.787088 0.195968 0.029064 0.190188
H44   H     H_    0.776042 0.808861 0.053076 0.187830
C85   C     C_2   0.727604 0.300340 0.029016 -0.197725
C86   C     C_2   0.801788 0.743076 0.920153 -0.191920
C87   C     C_2   0.214322 0.811198 0.049586 -0.154882
C88   C     C_2   0.308304 0.246789 0.911259 -0.179355
H45   H     H_    0.678874 0.326321 0.026631 0.147665
H46   H     H_    0.788384 0.732521 0.862818 0.141731
H47   H     H_    0.174633 0.838341 0.031692 0.151893
H48   H     H_    0.297320 0.235291 0.851941 0.180212
O1    O     O_3   0.412899 0.267465 0.994949 -0.792152
H49   H     H_    0.422595 0.303522 0.938530 0.346383
O2    O     O_3   0.308418 0.789522 0.146348 -0.808239
H50   H     H_    0.246795 0.794924 0.198023 0.316349
O3    O     O_3   0.927787 0.765894 0.971530 -0.757660
H51   H     H_    0.923970 0.803944 0.926385 0.337142
O4    O     O_3   0.817608 0.274690 0.129151 -0.768252
H52   H     H_    0.755834 0.268684 0.176920 0.326342
C89   C     C_2   0.250158 0.087797 0.477862 0.572037
H53   H     H_    0.289670 0.040406 0.428409 0.057629
O5    O     O_2   0.179336 0.089213 0.502044 -0.510354
C90   C     C_2   0.275812 0.899278 0.508259 0.631804
H54   H     H_    0.261140 0.943735 0.566286 0.083255
O6    O     O_2   0.249927 0.907848 0.454547 -0.582505
C91   C     C_2   0.722467 0.754331 0.367701 0.708645
H55   H     H_    0.723186 0.716247 0.311188 0.005689
O7    O     O_2   0.715130 0.824292 0.359989 -0.527404
C92   C     C_2   0.714536 0.401104 0.425977 0.744243
H56   H     H_    0.670836 0.448884 0.467863 0.061449
O8    O     O_2   0.740742 0.388643 0.333737 -0.600653
C93   C     C_2   0.605708 0.805040 0.575456 0.757981
H57   H     H_    0.609244 0.867413 0.563270 0.061579
O9    O     O_2   0.546346 0.770973 0.587495 -0.549307
C94   C     C_2   0.581228 0.297431 0.579068 0.809291
H58   H     H_    0.521581 0.276930 0.649616 0.014665
O10   O     O_2   0.586215 0.307818 0.497712 -0.584660
C95   C     C_2   0.142201 0.142859 0.686935 0.850844
H59   H     H_    0.149760 0.083335 0.704403 0.022857
O11   O     O_2   0.071518 0.165197 0.723856 -0.537534
C96   C     C_2   0.163687 0.810790 0.680216 0.700403
H60   H     H_    0.130785 0.824900 0.764254 0.013802
O12   O     O_2   0.126263 0.822086 0.641223 -0.502668
C97   C     C_2   0.256599 0.203297 0.683479 0.362977
H61   H     H_    0.309256 0.240925 0.657523 0.089841
O13   O     O_2   0.230685 0.163118 0.762791 -0.589761
C98   C     C_2   0.281096 0.787973 0.689537 0.331617
H62   H     H_    0.307328 0.740071 0.706462 0.081382
O14   O     O_2   0.274057 0.851060 0.730985 -0.537366
C99   C     C_2   0.633012 0.697156 0.656316 0.601182
H63   H     H_    0.666230 0.646037 0.653391 0.076403
O15   O     O_2   0.560302 0.704162 0.734820 -0.530665
C100  C     C_2   0.619172 0.352605 0.690119 0.429462
H64   H     H_    0.654713 0.358852 0.722143 0.024336
O16   O     O_2   0.551289 0.385288 0.737977 -0.570519
O17   O     O_3   0.416582 0.267286 0.462285 -0.852930
H65   H     H_    0.440024 0.315307 0.471338 0.345599
O18   O     O_3   0.480447 0.717476 0.370956 -0.807880
H66   H     H_    0.505508 0.673080 0.384011 0.319778
O19   O     O_3   0.814458 0.625346 0.526487 -0.820221
H67   H     H_    0.829598 0.607573 0.573863 0.313564
O20   O     O_3   0.897242 0.297132 0.475333 -0.842171
H68   H     H_    0.919720 0.267513 0.508199 0.328158
O21   O     O_3   0.752691 0.916992 0.459540 -0.753433
H69   H     H_    0.790652 0.961475 0.416970 0.327007
O22   O     O_3   0.634977 0.154401 0.494019 -0.751247
H70   H     H_    0.652197 0.113246 0.439713 0.334653
O23   O     O_3   0.109445 0.229552 0.549370 -0.650174
H71   H     H_    0.091107 0.240341 0.503331 0.317151
O24   O     O_3   0.138265 0.687860 0.564792 -0.702208
H72   H     H_    0.124210 0.665902 0.518081 0.317246
O25   O     O_3   0.404483 0.343231 0.350567 -0.668141
H73   H     H_    0.463125 0.324931 0.300116 0.320286
O26   O     O_3   0.409069 0.638236 0.331944 -0.771683
H74   H     H_    0.452688 0.600285 0.316548 0.353054
O27   O     O_3   0.932005 0.703682 0.443348 -0.737377
H75   H     H_    0.940901 0.683880 0.496011 0.334015
O28   O     O_3   0.890204 0.178110 0.412830 -0.748253
H76   H     H_    0.946383 0.195045 0.350012 0.319250
C101  C     C_2   0.433302 0.723877 0.146441 0.578795
H77   H     H_    0.411984 0.668651 0.187413 0.092559
O29   O     O_2   0.475241 0.723154 0.049039 -0.582326
C102  C     C_2   0.439301 0.274000 0.147101 0.637443
H78   H     H_    0.498201 0.273604 0.068054 0.016042
O30   O     O_2   0.401785 0.335556 0.182057 -0.530991
C103  C     C_2   0.944064 0.226538 0.152109 0.518266
H79   H     H_    0.948929 0.178554 0.193771 0.000637
O31   O     O_2   0.974655 0.218932 0.057480 -0.558518
C104  C     C_2   0.919859 0.774557 0.153963 0.608497
H80   H     H_    0.984131 0.794679 0.108144 -0.000999
O32   O     O_2   0.866984 0.816156 0.160860 -0.545145
O33   O     O_3   0.853566 0.803170 0.594804 -0.716751
H81   H     H_    0.824301 0.819014 0.670463 0.330952
O34   O     O_3   0.782161 0.149445 0.610916 -0.701774
H82   H     H_    0.821411 0.158284 0.629812 0.340145
O35   O     O_3   0.272558 0.404978 0.502347 -0.701197
H83   H     H_    0.272048 0.447045 0.546482 0.360364
O36   O     O_3   0.347436 0.575400 0.515758 -0.738793
H84   H     H_    0.402449 0.558107 0.496840 0.338205
C105  C     C_2   0.351803 0.111635 0.515366 0.434571
H85   H     H_    0.415675 0.131952 0.473516 0.137519
O37   O     O_2   0.330162 0.057053 0.577446 -0.528209
C106  C     C_2   0.397151 0.850255 0.500667 0.538714
H86   H     H_    0.435248 0.807383 0.504390 0.111977
O38   O     O_2   0.412926 0.918725 0.504251 -0.547246
C107  C     C_2   0.708296 0.633788 0.456086 0.423584
H87   H     H_    0.751842 0.586567 0.430100 0.138054
O39   O     O_2   0.636881 0.617161 0.488182 -0.551308
C108  C     C_2   0.771359 0.408545 0.529345 0.408771
H88   H     H_    0.789945 0.388968 0.578489 0.087530
O40   O     O_2   0.774199 0.478773 0.514233 -0.599218

loop_
_geom_bond_atom_site_label_1
_geom_bond_atom_site_label_2
_geom_bond_distance
_ccdc_geom_bond_type
C64   H36   1.103275 S    
C92   O8    1.220060 D    
C95   H59   1.086596 S    
C40   N32   1.344424 A    
C55   C99   1.550417 S    
N27   Ni6   1.861196 S    
C39   H23   1.080285 S    
C23   C68   1.493951 S    
N28   Ni6   1.870964 S    
C24   C67   1.493580 S    
C84   C86   1.341752 D    
O26   H74   0.992655 S    
C10   N10   1.342656 A    
C81   H41   1.081051 S    
N7    Ni4   1.920994 S    
C4    N4    1.327372 A    
C32   N24   1.306413 A    
C29   C45   1.390407 A    
C36   N28   1.328062 A    
C34   C45   1.381921 A    
C2    O2    1.370604 S    
C100  H64   1.082676 S    
C25   N17   1.306135 A    
O36   H84   0.993074 S    
N25   Ni5   1.861196 S    
O3    H51   0.991239 S    
N31   Ni8   1.843494 S    
C5    C21   1.406029 A    
C88   H48   1.083925 S    
C95   O11   1.220853 D    
C14   N14   1.306520 A    
C21   C66   1.522016 S    
C26   H10   1.078822 S    
N3    Ni3   1.850922 S    
N1    Ni1   1.850922 S    
C1    N1    1.324813 A    
C54   C72   1.606232 S    
N2    Ni2   1.851004 S    
C90   O6    1.220652 D    
C54   C96   1.555649 S    
N18   N29   1.459240 A    
C59   C67   1.585137 S    
C78   H38   1.118262 S    
C3    N3    1.324259 A    
C47   C71   1.479998 S    
C52   C92   1.537685 S    
C99   O15   1.223568 D    
N10   Ni5   1.915286 S    
O35   H83   0.991335 S    
C78   O22   1.407999 S    
C51   C107  1.534902 S    
C89   O5    1.220370 D    
N2    N9    1.329832 A    
C61   H33   1.091722 S    
C79   O23   1.402992 S    
C80   O24   1.408273 S    
C29   N21   1.317193 A    
C107  H87   1.073801 S    
N18   Ni2   1.851933 S    
C13   H5    1.072497 S    
C56   C70   1.591527 S    
O27   H75   0.992906 S    
C50   C90   1.537194 S    
C30   N22   1.318762 A    
C54   C98   1.547743 S    
O33   H81   0.992753 S    
N5    Ni2   1.920994 S    
C93   O9    1.223056 D    
N22   N25   1.403482 A    
C5    N5    1.350709 A    
C20   C85   1.437728 S    
N4    N11   1.329832 A    
C104  O32   1.220112 D    
N21   N26   1.400462 A    
C14   C21   1.371689 A    
C97   O13   1.223976 D    
C70   C74   1.584611 S    
C58   C76   1.580660 S    
C87   H47   1.083316 S    
C39   C44   1.397637 A    
C40   H24   1.081092 S    
C48   C72   1.515989 S    
C94   H58   1.087187 S    
C59   O27   1.416553 S    
O28   H76   0.992555 S    
C6    C22   1.410226 A    
O24   H72   0.993339 S    
C41   C83   1.424371 S    
C108  H88   1.079180 S    
C55   C69   1.612427 S    
C42   C84   1.427373 S    
C10   H2    1.081786 S    
C28   N20   1.314452 A    
C105  H85   1.080802 S    
C27   H11   1.079134 S    
N9    Ni5   1.905378 S    
N22   Ni1   1.920988 S    
C8    C24   1.393989 A    
C51   C91   1.545316 S    
N21   Ni2   1.921191 S    
C82   H42   1.083909 S    
C7    C23   1.389836 A    
H28   C76   1.109131 S    
N17   Ni1   1.851661 S    
C26   C42   1.376279 A    
C49   C65   1.622114 S    
O25   H73   0.993450 S    
N24   Ni3   1.920988 S    
C77   H37   1.117381 S    
C77   O21   1.404521 S    
C2    N2    1.336439 A    
C37   N29   1.338188 A    
C34   N26   1.312599 A    
C27   C43   1.363695 A    
C83   C85   1.346794 D    
C58   O26   1.408276 S    
C63   H35   1.111813 S    
C33   N25   1.312606 A    
C11   N11   1.342246 A    
C19   C86   1.433534 S    
C102  O30   1.218620 D    
C97   H61   1.078702 S    
C27   N19   1.315388 A    
C31   H15   1.072341 S    
C38   N30   1.342216 A    
C15   C24   1.379709 A    
C17   C88   1.443370 S    
H27   C75   1.115082 S    
C8    C104  1.466116 S    
C14   H6    1.067801 S    
C79   H39   1.114794 S    
C91   H55   1.088145 S    
C26   N18   1.312443 A    
C8    N8    1.328138 A    
C33   C46   1.374723 A    
C57   O25   1.411779 S    
C63   H31   1.104640 S    
O18   H66   0.992889 S    
C57   C75   1.560698 S    
C6    N6    1.345514 A    
C10   C17   1.375448 A    
C46   C70   1.478491 S    
N13   Ni7   1.889555 S    
C40   C43   1.396723 A    
C30   H14   1.075454 S    
C96   H60   1.086745 S    
C25   C41   1.367576 A    
C4    C20   1.370410 A    
C63   C65   1.577947 S    
C44   C82   1.431683 S    
C7    C103  1.480748 S    
N3    N12   1.332682 A    
C52   C56   1.614804 S    
C39   N31   1.337452 A    
C90   H54   1.081451 S    
N23   N28   1.400462 A    
C71   C75   1.585480 S    
O4    H52   0.991466 S    
C91   O7    1.220166 D    
N14   Ni7   1.879679 S    
C50   C106  1.555149 S    
C74   O34   1.412343 S    
N16   Ni8   1.879679 S    
O17   H65   0.993590 S    
C105  O37   1.220259 D    
C100  O16   1.223381 D    
O20   H68   0.993145 S    
C30   C46   1.389783 A    
C58   O18   1.411246 S    
C80   H40   1.117557 S    
C83   H43   1.083837 S    
C3    C19   1.366891 A    
C61   C67   1.565949 S    
C60   O20   1.412089 S    
O19   H67   0.993114 S    
C35   C48   1.405314 A    
C82   C88   1.341319 D    
C62   C78   1.523004 S    
C1    O1    1.374189 S    
C106  H86   1.080152 S    
C52   C108  1.544188 S    
C3    O3    1.377026 S    
C73   O33   1.411739 S    
N5    N14   1.385435 A    
C50   C54   1.601558 S    
O2    H50   0.991976 S    
N12   Ni6   1.915286 S    
C49   C53   1.599399 S    
C84   H44   1.086189 S    
C60   C74   1.547667 S    
O22   H70   0.993393 S    
C103  O31   1.220848 D    
C106  O38   1.221559 D    
N30   Ni7   1.834001 S    
O1    H49   0.991354 S    
C7    N7    1.335293 A    
N17   N30   1.456109 A    
C101  O29   1.220521 D    
C56   C100  1.545069 S    
C38   H22   1.080376 S    
C70   C78   1.580116 S    
C16   C23   1.362842 A    
C15   H7    1.077748 S    
C38   C41   1.400764 A    
C6    C102  1.473794 S    
N19   N32   1.456109 A    
O34   H82   0.993048 S    
C62   H30   1.104924 S    
C32   H16   1.057644 S    
C9    C18   1.384862 A    
C12   C19   1.368802 A    
C71   C79   1.556661 S    
C11   C20   1.384433 A    
C76   O36   1.407124 S    
N6    Ni1   1.921212 S    
C53   C97   1.559650 S    
C50   C66   1.627210 S    
C86   H46   1.085736 S    
C57   C65   1.576809 S    
C107  O39   1.222890 D    
N32   Ni8   1.834001 S    
C37   H21   1.079519 S    
C5    C101  1.482628 S    
C55   C93   1.542119 S    
C62   C68   1.563672 S    
C37   C42   1.393051 A    
C72   C76   1.573945 S    
C98   O14   1.223420 D    
N20   Ni4   1.851933 S    
C1    C17   1.370153 A    
C36   H20   1.079674 S    
C16   H8    1.078932 S    
N8    Ni3   1.921212 S    
C52   C68   1.635206 S    
C45   C69   1.474835 S    
C57   O17   1.408907 S    
C103  H79   1.083576 S    
C64   H32   1.108542 S    
C12   N12   1.338889 A    
N23   Ni4   1.921191 S    
N11   Ni6   1.905378 S    
C51   C55   1.600152 S    
O21   H69   0.993663 S    
C13   C22   1.366972 A    
C53   C71   1.609357 S    
C9    N9    1.345808 A    
C15   N15   1.312840 A    
C43   C81   1.436226 S    
C104  H80   1.081913 S    
C60   C68   1.569435 S    
N4    Ni4   1.851004 S    
C69   C77   1.569090 S    
C53   C95   1.544934 S    
C102  H78   1.082387 S    
C59   C73   1.553408 S    
N6    N13   1.382455 A    
C61   C77   1.529406 S    
C85   H45   1.085254 S    
C35   N27   1.336008 A    
C89   H53   1.074215 S    
C51   C67   1.611762 S    
C2    C18   1.370040 A    
C36   C47   1.391324 A    
C25   H9    1.080405 S    
N19   Ni3   1.851661 S    
C63   C79   1.530086 S    
C64   C80   1.517264 S    
N26   Ni5   1.870964 S    
H25   C73   1.109702 S    
C92   H56   1.086300 S    
C96   O12   1.220377 D    
C16   N16   1.311718 A    
C4    O4    1.371915 S    
C31   C47   1.372970 A    
C93   H57   1.078039 S    
C62   H34   1.109324 S    
C49   C105  1.540182 S    
N7    N16   1.385435 A    
H26   C74   1.112363 S    
N24   N27   1.403482 A    
C32   C48   1.382769 A    
C18   C87   1.452244 S    
C75   O35   1.413493 S    
N8    N15   1.382455 A    
N15   Ni8   1.889555 S    
N1    N10   1.332682 A    
C81   C87   1.351255 D    
N20   N31   1.459240 A    
C29   H13   1.073368 S    
C11   H3    1.081378 S    
C56   C94   1.548961 S    
C61   H29   1.112902 S    
C98   H62   1.083893 S    
C58   C66   1.593447 S    
C64   C66   1.556266 S    
C99   H63   1.080963 S    
C34   H18   1.069697 S    
C13   N13   1.304287 A    
C49   C89   1.543765 S    
C59   O19   1.408226 S    
C60   O28   1.415487 S    
C33   H17   1.076483 S    
C28   C44   1.381244 A    
C72   C80   1.582941 S    
C101  H77   1.073480 S    
C35   H19   1.076102 S    
C31   N23   1.300110 A    
C12   H4    1.081621 S    
C94   O10   1.220728 D    
C69   C73   1.577656 S    
C28   H12   1.077103 S    
O23   H71   0.993294 S    
N29   Ni7   1.843494 S    
C22   C65   1.522428 S    
C108  O40   1.218298 D    
C9    H1    1.081380 S    
