data_mof_unit_37812.cif
_audit_creation_date              2012-12-11T14:38:25-0500
_audit_creation_method            fapswitch 2.2
_symmetry_space_group_name_H-M    P1
_symmetry_Int_Tables_number       1
_space_group_crystal_system       monoclinic
_cell_length_a                    19.516243
_cell_length_b                    11.321782
_cell_length_c                    19.642275
_cell_angle_alpha                 90.0
_cell_angle_beta                  97.063855
_cell_angle_gamma                 90.0
_cell_volume                      4307.1877108

loop_
_atom_site_label
_atom_site_type_symbol
_atom_type_description
_atom_site_fract_x
_atom_site_fract_y
_atom_site_fract_z
_atom_type_partial_charge
C1    C     C_R   0.709410 0.996724 0.366919 0.546258
C2    C     C_3   0.169590 0.520716 0.481129 -0.181695
C3    C     C_3   0.499808 0.508070 0.606350 -0.360202
C4    C     C_3   0.068255 0.038138 0.437231 -0.000313
C5    C     C_3   0.000192 0.008069 0.393651 -0.360203
C6    C     C_3   0.931745 0.038135 0.562768 -0.000314
C7    C     C_3   0.999808 0.008068 0.606349 -0.360203
C8    C     C_3   0.695219 0.630393 0.339146 0.059688
C9    C     C_3   0.622575 0.640093 0.301197 -0.343948
C10   C     C_3   0.304780 0.630393 0.660854 0.059688
C11   C     C_3   0.377425 0.640094 0.698803 -0.343948
C12   C     C_3   0.195220 0.130392 0.339145 0.059686
C13   C     C_3   0.330410 0.020716 0.518871 -0.181695
C14   C     C_3   0.122575 0.140093 0.301196 -0.343950
C15   C     C_3   0.804781 0.130393 0.660854 0.059688
C16   C     C_3   0.877426 0.140093 0.698803 -0.343948
C17   C     C_3   0.366743 0.046738 0.342706 -0.012608
C18   C     C_3   0.366488 0.156226 0.297499 -0.372604
C19   C     C_3   0.633258 0.046739 0.657294 -0.012608
C20   C     C_3   0.633513 0.156228 0.702501 -0.372604
C21   C     C_3   0.866742 0.546739 0.342706 -0.012608
C22   C     C_3   0.866487 0.656227 0.297499 -0.372604
C23   C     C_3   0.133257 0.546739 0.657294 -0.012608
C24   C     C_3   0.669590 0.020716 0.481129 -0.181695
C25   C     C_3   0.133513 0.656227 0.702501 -0.372604
C26   C     C_3   0.768151 0.342054 0.547867 -0.248453
C27   C     C_3   0.231849 0.342054 0.452133 -0.248452
C28   C     C_3   0.268151 0.842054 0.547867 -0.248452
C29   C     C_3   0.731849 0.842054 0.452133 -0.248452
C30   C     C_3   0.771641 0.474141 0.557827 -0.080158
C31   C     C_3   0.228359 0.474141 0.442173 -0.080159
C32   C     C_3   0.271641 0.974141 0.557827 -0.080159
C33   C     C_R   0.290590 0.996724 0.633081 0.546257
C34   C     C_3   0.728359 0.974141 0.442173 -0.080158
C35   C     C_3   0.749265 0.419202 0.427347 0.110005
C36   C     C_3   0.250735 0.419202 0.572652 0.110004
C37   C     C_3   0.249265 0.919202 0.427347 0.110004
C38   C     C_3   0.750735 0.919202 0.572652 0.110004
C39   C     C_3   0.824717 0.473441 0.444392 0.308914
C40   C     C_3   0.175283 0.473441 0.555608 0.308914
C41   C     C_3   0.324717 0.973441 0.444392 0.308914
C42   C     C_3   0.675283 0.973441 0.555608 0.308914
C43   C     C_3   0.738853 0.314555 0.475056 -0.287933
C44   C     C_R   0.209410 0.496724 0.366919 0.546257
C45   C     C_3   0.261147 0.314555 0.524944 -0.287933
C46   C     C_3   0.238853 0.814555 0.475056 -0.287933
C47   C     C_3   0.761146 0.814555 0.524944 -0.287933
C48   C     C_3   0.491654 0.303713 0.961995 -0.225084
C49   C     C_3   0.508345 0.303713 0.038004 -0.225084
C50   C     C_3   0.991655 0.803713 0.961995 -0.225084
C51   C     C_3   0.008345 0.803713 0.038004 -0.225084
C52   C     C_3   0.427290 0.111766 0.968146 -0.226971
C53   C     C_3   0.572710 0.111766 0.031854 -0.226971
C54   C     C_3   0.927290 0.611766 0.968146 -0.226971
C55   C     C_R   0.790590 0.496723 0.633081 0.546257
C56   C     C_3   0.072710 0.611766 0.031854 -0.226971
C57   C     C_3   0.554125 0.107550 0.953214 -0.060168
C58   C     C_3   0.445875 0.107550 0.046786 -0.060168
C59   C     C_3   0.054125 0.607550 0.953214 -0.060168
C60   C     C_3   0.945875 0.607550 0.046786 -0.060168
C61   C     C_R   0.538448 0.180971 0.339494 0.520994
C62   C     C_R   0.461552 0.180971 0.660505 0.520995
C63   C     C_R   0.038448 0.680971 0.339494 0.520995
C64   C     C_R   0.961552 0.680971 0.660505 0.520995
C65   C     C_3   0.485512 0.174956 0.933891 0.049585
C66   C     C_3   0.690093 0.510101 0.442316 0.510926
C67   C     C_3   0.514488 0.174956 0.066109 0.049585
C68   C     C_3   0.985512 0.674956 0.933891 0.049585
C69   C     C_3   0.014488 0.674956 0.066109 0.049585
C70   C     C_1   0.762956 0.429619 0.904925 0.023116
C71   C     C_1   0.237044 0.429619 0.095075 0.023116
C72   C     C_1   0.262956 0.929619 0.904925 0.023116
C73   C     C_1   0.737044 0.929619 0.095075 0.023116
C74   C     C_1   0.748443 0.407601 0.034941 -0.000887
C75   C     C_1   0.251557 0.407601 0.965059 -0.000888
C76   C     C_1   0.248443 0.907601 0.034941 -0.000887
C77   C     C_3   0.309907 0.510102 0.557684 0.510926
C78   C     C_1   0.751557 0.907601 0.965059 -0.000888
C79   C     C_1   0.754922 0.418346 0.964439 -0.000328
C80   C     C_1   0.245078 0.418346 0.035561 -0.000328
C81   C     C_1   0.254922 0.918346 0.964439 -0.000328
C82   C     C_1   0.745078 0.918346 0.035561 -0.000328
C83   C     C_1   0.743464 0.392270 0.094843 0.024938
C84   C     C_1   0.256536 0.392270 0.905157 0.024938
C85   C     C_1   0.243464 0.892270 0.094843 0.024938
C86   C     C_1   0.756536 0.892270 0.905157 0.024938
C87   C     C_R   0.739779 0.365113 0.359336 0.529151
C88   C     C_3   0.190093 0.010102 0.442316 0.510926
C89   C     C_R   0.260221 0.365113 0.640664 0.529151
C90   C     C_R   0.239779 0.865113 0.359336 0.529151
C91   C     C_R   0.760221 0.865113 0.640664 0.529151
C92   C     C_R   0.721959 0.955205 0.163103 0.551453
C93   C     C_R   0.278041 0.955205 0.836897 0.551454
C94   C     C_R   0.221959 0.455205 0.163103 0.551454
C95   C     C_R   0.778041 0.455205 0.836897 0.551454
C96   C     C_R   0.535000 0.179848 0.140150 0.573184
C97   C     C_R   0.465000 0.179848 0.859850 0.573184
C98   C     C_R   0.035000 0.679848 0.140150 0.573184
C99   C     C_3   0.809907 0.010101 0.557684 0.510926
C100  C     C_R   0.964999 0.679848 0.859850 0.573184
C101  C     C_R   0.735976 0.357730 0.163704 0.538424
C102  C     C_R   0.264024 0.357730 0.836296 0.538425
C103  C     C_R   0.235976 0.857730 0.163704 0.538424
C104  C     C_R   0.764024 0.857730 0.836296 0.538425
C105  C     C_1   0.482547 0.174874 0.593344 -0.018059
C106  C     C_1   0.517453 0.174874 0.406656 -0.018059
C107  C     C_1   0.982547 0.674874 0.593344 -0.018059
C108  C     C_1   0.017453 0.674874 0.406656 -0.018059
C109  C     C_1   0.505642 0.172554 0.465317 0.000400
C110  C     C_3   0.830410 0.520716 0.518871 -0.181696
C111  C     C_1   0.494358 0.172554 0.534683 0.000401
C112  C     C_1   0.005642 0.672554 0.465317 0.000400
C113  C     C_1   0.994358 0.672554 0.534683 0.000401
C114  C     C_3   0.698339 0.520614 0.523970 -0.175973
C115  C     C_3   0.301661 0.520614 0.476030 -0.175973
C116  C     C_3   0.198339 0.020614 0.523970 -0.175972
C117  C     C_3   0.801661 0.020614 0.476030 -0.175973
C118  C     C_3   0.568255 0.538135 0.437232 -0.000314
C119  C     C_3   0.500192 0.508069 0.393650 -0.360203
C120  C     C_3   0.431745 0.538135 0.562768 -0.000315
Cr1   Cr    Cr6+3 0.765780 0.160710 0.267420 1.019775
Cr2   Cr    Cr6+3 0.383970 0.323720 0.751490 1.000890
Cr3   Cr    Cr6+3 0.116030 0.823720 0.248510 1.000889
Cr4   Cr    Cr6+3 0.883970 0.823720 0.751490 1.000889
Cr5   Cr    Cr6+3 0.234220 0.160710 0.732580 1.019775
Cr6   Cr    Cr6+3 0.265780 0.660710 0.267420 1.019775
Cr7   Cr    Cr6+3 0.734220 0.660710 0.732580 1.019775
Cr8   Cr    Cr6+3 0.612200 0.009560 0.248850 1.001962
Cr9   Cr    Cr6+3 0.387800 0.009560 0.751150 1.001963
Cr10  Cr    Cr6+3 0.112200 0.509560 0.248850 1.001962
Cr11  Cr    Cr6+3 0.887800 0.509560 0.751150 1.001962
Cr12  Cr    Cr6+3 0.616030 0.323720 0.248510 1.000889
H1    H     H_    0.677401 0.601861 0.543136 0.137714
H2    H     H_    0.118679 0.497411 0.452567 0.147166
H3    H     H_    0.618029 0.235399 0.670896 0.165701
H4    H     H_    0.596468 0.143933 0.740497 0.158608
H5    H     H_    0.685274 0.171196 0.731182 0.139845
H6    H     H_    0.840695 0.474543 0.311545 0.165386
H7    H     H_    0.921445 0.522730 0.357405 0.186702
H8    H     H_    0.881971 0.735399 0.329104 0.165701
H9    H     H_    0.903532 0.643933 0.259503 0.158608
H10   H     H_    0.814726 0.671196 0.268818 0.139845
H11   H     H_    0.159304 0.474542 0.688455 0.165386
H12   H     H_    0.078555 0.522730 0.642595 0.186702
H13   H     H_    0.381321 0.997411 0.547433 0.147166
H14   H     H_    0.118028 0.735398 0.670897 0.165701
H15   H     H_    0.096468 0.643932 0.740497 0.158608
H16   H     H_    0.185273 0.671195 0.731182 0.139845
H17   H     H_    0.618679 0.997411 0.452567 0.147166
H18   H     H_    0.441906 0.352118 0.949290 0.151037
H19   H     H_    0.558094 0.352118 0.050710 0.151037
H20   H     H_    0.941906 0.852118 0.949290 0.151037
H21   H     H_    0.058094 0.852118 0.050710 0.151038
H22   H     H_    0.532166 0.353644 0.938757 0.171959
H23   H     H_    0.467834 0.353644 0.061243 0.171959
H24   H     H_    0.032166 0.853644 0.938757 0.171959
H25   H     H_    0.322599 0.601862 0.456864 0.137715
H26   H     H_    0.967834 0.853644 0.061243 0.171959
H27   H     H_    0.377464 0.158854 0.954363 0.151594
H28   H     H_    0.622536 0.158854 0.045637 0.151594
H29   H     H_    0.877464 0.658854 0.954363 0.151594
H30   H     H_    0.122536 0.658854 0.045637 0.151594
H31   H     H_    0.546983 0.013754 0.936868 0.144776
H32   H     H_    0.453017 0.013754 0.063132 0.144776
H33   H     H_    0.046983 0.513754 0.936868 0.144776
H34   H     H_    0.953017 0.513754 0.063132 0.144776
H35   H     H_    0.580189 0.019806 0.051395 0.131836
H36   H     H_    0.177401 0.101862 0.543136 0.137714
H37   H     H_    0.419811 0.019806 0.948605 0.131836
H38   H     H_    0.080189 0.519806 0.051395 0.131836
H39   H     H_    0.919811 0.519806 0.948605 0.131836
H40   H     H_    0.660204 0.459874 0.543283 0.104452
H41   H     H_    0.339796 0.459874 0.456717 0.104452
H42   H     H_    0.160204 0.959874 0.543282 0.104453
H43   H     H_    0.839796 0.959874 0.456717 0.104452
H44   H     H_    0.330147 0.116763 0.518822 0.136426
H45   H     H_    0.669853 0.116763 0.481178 0.136426
H46   H     H_    0.830146 0.616763 0.518822 0.136426
H47   H     H_    0.822599 0.101861 0.456864 0.137715
H48   H     H_    0.169853 0.616763 0.481178 0.136426
H49   H     H_    0.821588 0.307681 0.558226 0.227473
H50   H     H_    0.178412 0.307681 0.441774 0.227473
H51   H     H_    0.321588 0.807681 0.558226 0.227473
H52   H     H_    0.678412 0.807681 0.441774 0.227473
H53   H     H_    0.732890 0.303281 0.582120 0.194354
H54   H     H_    0.267110 0.303281 0.417880 0.194354
H55   H     H_    0.232890 0.803281 0.582120 0.194353
H56   H     H_    0.767110 0.803281 0.417880 0.194354
H57   H     H_    0.682757 0.296992 0.473503 0.146730
H58   H     H_    0.759976 0.234179 0.458916 0.159165
H59   H     H_    0.317243 0.296992 0.526497 0.146730
H60   H     H_    0.182756 0.796992 0.473503 0.146730
H61   H     H_    0.817243 0.796992 0.526497 0.146730
H62   H     H_    0.578787 0.633806 0.432293 0.187469
H63   H     H_    0.560566 0.521404 0.490926 0.116771
H64   H     H_    0.481177 0.420872 0.408991 0.149786
H65   H     H_    0.460883 0.576090 0.401130 0.119395
H66   H     H_    0.505418 0.505435 0.338332 0.166711
H67   H     H_    0.421213 0.633807 0.567707 0.187469
H68   H     H_    0.439434 0.521405 0.509074 0.116771
H69   H     H_    0.240025 0.234179 0.541084 0.159164
H70   H     H_    0.539117 0.576090 0.598870 0.119396
H71   H     H_    0.494582 0.505435 0.661668 0.166711
H72   H     H_    0.518823 0.420873 0.591009 0.149786
H73   H     H_    0.078787 0.133808 0.432289 0.187469
H74   H     H_    0.060566 0.021411 0.490926 0.116771
H75   H     H_    0.981177 0.920872 0.408993 0.149786
H76   H     H_    0.960883 0.076090 0.401129 0.119396
H77   H     H_    0.005417 0.005432 0.338332 0.166711
H78   H     H_    0.921213 0.133806 0.567707 0.187469
H79   H     H_    0.939434 0.021404 0.509074 0.116771
H80   H     H_    0.259975 0.734179 0.458916 0.159165
H81   H     H_    0.039117 0.076090 0.598871 0.119395
H82   H     H_    0.994582 0.005432 0.661667 0.166712
H83   H     H_    0.018824 0.920873 0.591008 0.149785
H84   H     H_    0.725409 0.564928 0.314787 0.146274
H85   H     H_    0.720809 0.713502 0.327247 0.160572
H86   H     H_    0.590502 0.702193 0.327321 0.156287
H87   H     H_    0.625541 0.674816 0.248735 0.104459
H88   H     H_    0.598853 0.551736 0.294775 0.178364
H89   H     H_    0.274591 0.564928 0.685213 0.146274
H90   H     H_    0.279191 0.713502 0.672753 0.160572
H91   H     H_    0.740024 0.734179 0.541084 0.159165
H92   H     H_    0.409497 0.702194 0.672679 0.156287
H93   H     H_    0.374459 0.674816 0.751265 0.104459
H94   H     H_    0.401147 0.551737 0.705225 0.178364
H95   H     H_    0.225409 0.064928 0.314787 0.146275
H96   H     H_    0.220809 0.213502 0.327246 0.160573
H97   H     H_    0.090503 0.202197 0.327319 0.156285
H98   H     H_    0.125542 0.174810 0.248733 0.104458
H99   H     H_    0.098852 0.051736 0.294777 0.178368
H100  H     H_    0.774592 0.064928 0.685213 0.146274
H101  H     H_    0.779191 0.213502 0.672753 0.160572
H102  H     H_    0.881321 0.497411 0.547433 0.147166
H103  H     H_    0.909498 0.202193 0.672679 0.156286
H104  H     H_    0.874459 0.174816 0.751265 0.104459
H105  H     H_    0.901148 0.051736 0.705224 0.178364
H106  H     H_    0.340696 0.974542 0.311545 0.165386
H107  H     H_    0.421445 0.022729 0.357405 0.186702
H108  H     H_    0.381972 0.235398 0.329103 0.165701
H109  H     H_    0.403532 0.143932 0.259503 0.158609
H110  H     H_    0.314727 0.171195 0.268818 0.139845
H111  H     H_    0.659305 0.974543 0.688455 0.165386
H112  H     H_    0.578555 0.022730 0.642595 0.186702
I1    I     I_    0.908089 0.338754 0.447128 -0.491903
I2    I     I_    0.091911 0.338753 0.552871 -0.491903
I3    I     I_    0.408089 0.838753 0.447129 -0.491903
I4    I     I_    0.591911 0.838754 0.552871 -0.491903
I5    I     I_    0.361978 0.172678 0.098143 -0.512490
I6    I     I_    0.638021 0.172678 0.901857 -0.512490
I7    I     I_    0.861979 0.672678 0.098143 -0.512490
I8    I     I_    0.138021 0.672678 0.901857 -0.512490
O1    O     O_R   0.783100 0.287550 0.345460 -0.528899
O2    O     O_R   0.454350 0.284910 0.836260 -0.521825
O3    O     O_R   0.045650 0.784910 0.163740 -0.521825
O4    O     O_R   0.954350 0.784910 0.836260 -0.521825
O5    O     O_R   0.677950 0.374280 0.185410 -0.517018
O6    O     O_R   0.322050 0.374280 0.814590 -0.517018
O7    O     O_R   0.177950 0.874280 0.185410 -0.517018
O8    O     O_R   0.822050 0.874280 0.814590 -0.517018
O9    O     O_3   0.664670 0.164660 0.254930 -0.279747
O10   O     O_3   0.335330 0.164660 0.745070 -0.279747
O11   O     O_3   0.164670 0.664660 0.254930 -0.279747
O12   O     O_R   0.216900 0.287550 0.654540 -0.528899
O13   O     O_3   0.835330 0.664660 0.745070 -0.279747
O14   O     O_R   0.760020 0.037400 0.337700 -0.504337
O15   O     O_R   0.239980 0.037400 0.662300 -0.504337
O16   O     O_R   0.260020 0.537400 0.337700 -0.504337
O17   O     O_R   0.739980 0.537400 0.662300 -0.504337
O18   O     O_R   0.666600 0.921990 0.332020 -0.526204
O19   O     O_R   0.333400 0.921990 0.667980 -0.526204
O20   O     O_R   0.166600 0.421990 0.332020 -0.526204
O21   O     O_R   0.833400 0.421990 0.667980 -0.526204
O22   O     O_R   0.557260 0.082670 0.312540 -0.511592
O23   O     O_R   0.283100 0.787550 0.345460 -0.528899
O24   O     O_R   0.442740 0.082670 0.687460 -0.511593
O25   O     O_R   0.057260 0.582670 0.312540 -0.511593
O26   O     O_R   0.942740 0.582670 0.687460 -0.511593
O27   O     O_R   0.548410 0.285740 0.316480 -0.490974
O28   O     O_R   0.451590 0.285740 0.683520 -0.490974
O29   O     O_R   0.048410 0.785740 0.316480 -0.490975
O30   O     O_R   0.951590 0.785740 0.683520 -0.490974
O31   O     O_R   0.680500 0.375040 0.327000 -0.475066
O32   O     O_R   0.319500 0.375040 0.673000 -0.475066
O33   O     O_R   0.180500 0.875040 0.327000 -0.475067
O34   O     O_R   0.716900 0.787550 0.654540 -0.528899
O35   O     O_R   0.819500 0.875040 0.673000 -0.475066
O36   O     O_R   0.780350 0.286720 0.192720 -0.509422
O37   O     O_R   0.219650 0.286720 0.807280 -0.509422
O38   O     O_R   0.280350 0.786720 0.192720 -0.509422
O39   O     O_R   0.719650 0.786720 0.807280 -0.509422
O40   O     O_R   0.757470 0.036630 0.196110 -0.489390
O41   O     O_R   0.242530 0.036630 0.803890 -0.489391
O42   O     O_R   0.257470 0.536630 0.196110 -0.489390
O43   O     O_R   0.742530 0.536630 0.803890 -0.489391
O44   O     O_R   0.663840 0.921160 0.179280 -0.520720
O45   O     O_R   0.554710 0.081900 0.170950 -0.505143
O46   O     O_R   0.336160 0.921160 0.820720 -0.520721
O47   O     O_R   0.163840 0.421160 0.179280 -0.520720
O48   O     O_R   0.836160 0.421160 0.820720 -0.520721
O49   O     O_3   0.622393 0.465330 0.418771 -0.539534
O50   O     O_3   0.377607 0.465331 0.581229 -0.539534
O51   O     O_3   0.122393 0.965331 0.418771 -0.539535
O52   O     O_3   0.877607 0.965330 0.581229 -0.539534
O53   O     O_3   0.699294 0.622192 0.412358 -0.588097
O54   O     O_3   0.300706 0.622192 0.587642 -0.588097
O55   O     O_3   0.199294 0.122192 0.412358 -0.588097
O56   O     O_R   0.445290 0.081900 0.829050 -0.505144
O57   O     O_3   0.800706 0.122192 0.587642 -0.588097
O58   O     O_3   0.334198 0.072836 0.401515 -0.568928
O59   O     O_3   0.665803 0.072836 0.598485 -0.568928
O60   O     O_3   0.834197 0.572836 0.401515 -0.568928
O61   O     O_3   0.165802 0.572836 0.598485 -0.568928
O62   O     O_R   0.054710 0.581900 0.170950 -0.505143
O63   O     O_R   0.945290 0.581900 0.829050 -0.505144
O64   O     O_R   0.545650 0.284910 0.163740 -0.521825

loop_
_geom_bond_atom_site_label_1
_geom_bond_atom_site_label_2
_ccdc_geom_bond_type
C9    H86   S    
C36   C89   S    
C15   H100  S    
C91   O35   A    
C19   C20   S    
C74   C83   T    
C58   H32   S    
C2    H2    S    
C28   H51   S    
Cr11  O21   S    
C26   H53   S    
C110  H46   S    
C10   O54   S    
C56   H30   S    
C3    H71   S    
C19   O59   S    
C23   O61   S    
C107  C113  T    
C45   H59   S    
C101  O5    A    
Cr5   O10   S    
C48   C65   S    
Cr10  O11   S    
C85   C103  S    
C19   H111  S    
C44   O20   A    
C69   C98   S    
C21   C22   S    
C33   O19   A    
C3    H72   S    
C23   H11   S    
C49   H23   S    
C49   H19   S    
C27   C31   S    
C28   C32   S    
Cr3   O29   S    
C28   H55   S    
C57   C65   S    
Cr2   O10   S    
C12   H95   S    
C35   C66   S    
Cr3   O7    S    
C8    O53   S    
C24   C34   S    
C4    O51   S    
C20   H5    S    
Cr1   O14   S    
Cr9   O19   S    
C5    H75   S    
C78   C82   S    
C77   O54   S    
Cr8   O45   S    
C25   H15   S    
C62   O24   A    
Cr8   O9    S    
C32   C116  S    
C118  H63   S    
C52   C58   S    
C17   H107  S    
C18   H109  S    
C74   C79   S    
Cr11  O48   S    
C21   H7    S    
Cr9   O10   S    
C100  O63   A    
Cr7   O43   S    
Cr8   O44   S    
C47   H91   S    
C97   O56   A    
Cr7   O13   S    
C70   C79   T    
Cr8   O18   S    
C47   H61   S    
C4    C5    S    
C8    H84   S    
Cr2   O28   S    
C22   H10   S    
C56   C59   S    
Cr1   O1    S    
C6    C7    S    
Cr11  O13   S    
Cr4   O30   S    
C29   H56   S    
Cr12  O64   S    
C11   H94   S    
Cr5   O12   S    
Cr6   O11   S    
C96   O45   A    
C14   H98   S    
C10   H90   S    
Cr4   O35   S    
C64   O30   A    
C58   C67   S    
Cr12  O31   S    
C3    H70   S    
C116  H36   S    
Cr9   O24   S    
C51   C69   S    
C100  O4    A    
C76   C85   T    
Cr5   O37   S    
C52   C65   S    
C117  H47   S    
Cr6   O42   S    
C66   O49   S    
C119  H66   S    
C84   C102  S    
C13   C32   S    
C13   H13   S    
C86   C104  S    
C28   C46   S    
C37   C90   S    
C29   C47   S    
C109  C111  S    
C75   C84   T    
C54   C68   S    
C120  H67   S    
Cr11  O26   S    
C40   O61   S    
C35   C87   S    
C64   O26   A    
C21   O60   S    
C61   O22   A    
C55   O17   A    
C35   C43   S    
C59   H33   S    
C117  H43   S    
Cr5   O15   S    
Cr6   O16   S    
C2    H48   S    
C31   C115  S    
C98   O3    A    
C18   H108  S    
C1    C34   S    
C6    H79   S    
C16   H103  S    
C102  O6    A    
Cr1   O36   S    
C68   C100  S    
C2    C40   S    
C99   C117  S    
C57   H31   S    
C92   O40   A    
C17   C18   S    
C93   O41   A    
C20   H4    S    
C6    O52   S    
C102  O37   A    
C26   C30   S    
C48   H22   S    
C51   H21   S    
C89   O32   A    
C83   C101  S    
C56   H38   S    
C73   C92   S    
C77   O50   S    
C5    H77   S    
Cr10  O25   S    
C57   I6    S    
C115  H41   S    
C77   C115  S    
C9    H87   S    
C60   C69   S    
C54   H29   S    
C37   C41   S    
C53   C67   S    
C7    H82   S    
C10   C11   S    
C56   C69   S    
Cr7   O17   S    
C58   I5    S    
C63   C108  S    
Cr2   O32   S    
C99   O52   S    
C106  C109  T    
Cr10  O62   S    
C29   H52   S    
C48   H18   S    
C42   O59   S    
C24   C42   S    
C95   O48   A    
C37   C88   S    
C13   C41   S    
C4    H73   S    
C30   C110  S    
C36   C77   S    
C12   H96   S    
C22   H8    S    
Cr4   O13   S    
C104  O8    A    
Cr6   O38   S    
C1    O14   A    
C43   H58   S    
C60   I7    S    
C38   C91   S    
C25   H14   S    
C96   O64   A    
Cr3   O3    S    
C72   C81   T    
C17   H106  S    
C27   C45   S    
C104  O39   A    
C105  C111  T    
C61   O27   A    
C21   H6    S    
C120  O50   S    
C41   O58   S    
C18   H110  S    
C66   O53   S    
C71   C94   S    
C53   C57   S    
C63   O25   A    
C29   C34   S    
C60   H34   S    
C108  C112  T    
C118  O49   S    
C95   O43   A    
C35   C39   S    
C11   H93   S    
C42   I4    S    
C50   C51   S    
C61   C106  S    
Cr8   O22   S    
C14   H99   S    
C19   H112  S    
C72   C93   S    
C48   C49   S    
C33   O15   A    
C93   O46   A    
C73   C82   T    
C30   C114  S    
C53   H28   S    
C66   C114  S    
C119  H65   S    
Cr1   O40   S    
C103  O7    A    
C46   H60   S    
C38   C99   S    
C11   H92   S    
Cr2   O2    S    
C40   I2    S    
Cr12  O5    S    
C30   C55   S    
C92   O44   A    
C51   H26   S    
C116  H42   S    
Cr10  O47   S    
C32   C33   S    
C94   O42   A    
C5    H76   S    
C17   O58   S    
C120  H68   S    
C25   H16   S    
C112  C113  S    
C118  H62   S    
C87   O31   A    
C26   H49   S    
C50   H20   S    
C87   O1    A    
Cr4   O8    S    
C24   H45   S    
C91   O34   A    
C37   C46   S    
C50   C68   S    
C7    H83   S    
C110  H102  S    
C13   H44   S    
Cr6   O23   S    
C39   O60   S    
Cr4   O4    S    
C44   O16   A    
C62   C105  S    
C54   C60   S    
C114  H40   S    
C115  H25   S    
C38   C42   S    
Cr9   O56   S    
C16   H104  S    
C15   C16   S    
Cr9   O46   S    
C12   O55   S    
C119  H64   S    
C118  C119  S    
C14   H97   S    
Cr3   O33   S    
C10   H89   S    
Cr1   O9    S    
C39   I1    S    
Cr2   O6    S    
C39   C110  S    
C50   H24   S    
C8    C9    S    
Cr11  O63   S    
C90   O23   A    
C8    H85   S    
C94   O47   A    
C75   C80   S    
C78   C86   T    
C52   H27   S    
C41   I3    S    
Cr7   O34   S    
C88   O51   S    
C62   O28   A    
C71   C80   T    
C53   H35   S    
C26   C43   S    
C55   O21   A    
C31   C44   S    
C36   C40   S    
C98   O62   A    
C3    C120  S    
Cr3   O11   S    
C103  O38   A    
Cr7   O39   S    
C1    O18   A    
C101  O36   A    
C2    C31   S    
C27   H54   S    
C88   C116  S    
C59   C68   S    
Cr10  O20   S    
C15   H101  S    
C90   O33   A    
C36   C45   S    
C89   O12   A    
C38   C47   S    
C7    H81   S    
C52   H37   S    
C12   C14   S    
C16   H105  S    
C67   C96   S    
C99   O57   S    
C15   O57   S    
C63   O29   A    
C64   C107  S    
Cr12  O27   S    
C49   C67   S    
C54   H39   S    
C76   C81   S    
Cr5   O41   S    
C4    H74   S    
C6    H78   S    
C70   C95   S    
C27   H50   S    
C65   C97   S    
C34   C117  S    
C46   H80   S    
C22   H9    S    
C114  H1    S    
C23   C25   S    
C20   H3    S    
C23   H12   S    
C24   H17   S    
C9    H88   S    
C43   H57   S    
C88   O55   S    
C45   H69   S    
C59   I8    S    
Cr12  O9    S    
C97   O2    A    
