data_mof_unit_31390.cif
_audit_creation_date              2012-12-10T20:39:57-0500
_audit_creation_method            fapswitch 2.2
_symmetry_space_group_name_H-M    P1
_symmetry_Int_Tables_number       1
_space_group_crystal_system       triclinic
_cell_length_a                    23.429293
_cell_length_b                    10.677862
_cell_length_c                    9.886573
_cell_angle_alpha                 90.376944
_cell_angle_beta                  90.201318
_cell_angle_gamma                 90.704249
_cell_volume                      2473.11466333

loop_
_atom_site_label
_atom_site_type_symbol
_atom_type_description
_atom_site_fract_x
_atom_site_fract_y
_atom_site_fract_z
_atom_type_partial_charge
C1    C     C_R   0.501148 0.260109 0.499803 0.938829
C2    C     C_R   0.968176 0.279602 0.456401 -0.146625
C3    C     C_R   0.027574 0.278746 0.454673 -0.147333
C4    C     C_R   0.058844 0.390196 0.475591 -0.020438
C5    C     C_R   0.030049 0.503490 0.498287 -0.019625
C6    C     C_R   0.061061 0.615839 0.519709 -0.017964
C7    C     C_R   0.031981 0.728245 0.541856 -0.148140
C8    C     C_R   0.972573 0.729212 0.542909 -0.148349
C9    C     C_R   0.118441 0.391616 0.475164 0.513160
C10   C     C_R   0.120617 0.612305 0.519082 0.510659
C11   C     C_R   0.238058 0.535576 0.384417 -0.122702
C12   C     C_R   0.389381 0.499441 0.499809 0.921494
C13   C     C_R   0.297231 0.535183 0.383752 -0.210993
C14   C     C_R   0.327174 0.498565 0.499483 -0.135049
C15   C     C_R   0.297358 0.461658 0.615536 -0.186061
C16   C     C_R   0.238061 0.462575 0.617985 0.511246
C17   C     C_R   0.208364 0.499770 0.500527 0.188471
C18   C     C_R   0.761731 0.513767 0.374422 0.512346
C19   C     C_R   0.702419 0.510844 0.376703 -0.196511
C20   C     C_R   0.672949 0.503032 0.499789 -0.136333
C21   C     C_R   0.703341 0.498421 0.621955 -0.194731
C22   C     C_R   0.762522 0.500567 0.620925 -0.128465
C23   C     C_R   0.501699 0.739886 0.500380 0.879510
C24   C     C_R   0.791805 0.507759 0.498298 0.188026
C25   C     C_R   0.502479 0.064562 0.622427 0.022967
C26   C     C_R   0.508541 0.128676 0.501013 -0.036324
C27   C     C_R   0.524666 0.064652 0.383271 -0.215707
C28   C     C_R   0.525206 0.935102 0.383766 -0.174590
C29   C     C_R   0.509818 0.871538 0.502181 -0.100839
C30   C     C_R   0.503891 0.936792 0.623371 -0.009741
C31   C     C_3   0.457936 0.927938 0.728470 0.226544
C32   C     C_3   0.456499 0.070575 0.727335 0.140474
C33   C     C_R   0.467823 0.414324 0.070192 0.175653
C34   C     C_R   0.610664 0.500650 0.500093 0.890962
C35   C     C_R   0.535589 0.576257 0.074402 -0.103272
C36   C     C_R   0.535989 0.577264 0.931465 0.488829
C37   C     C_R   0.467664 0.414612 0.927735 0.129717
C38   C     C_3   0.404310 0.401586 0.922532 -0.458086
C39   C     C_3   0.404596 0.399721 0.075840 -0.454239
C40   C     C_R   0.881686 0.616373 0.522064 0.513100
C41   C     C_R   0.879561 0.395357 0.480176 0.513336
C42   C     C_R   0.939103 0.391977 0.478730 -0.019832
C43   C     C_R   0.970103 0.504414 0.499676 -0.019852
C44   C     C_R   0.941296 0.617765 0.521986 -0.018818
H1    H     H_    0.945179 0.192159 0.440033 0.196832
H2    H     H_    0.679489 0.515230 0.281511 0.187508
H3    H     H_    0.681491 0.492609 0.718118 0.192300
H4    H     H_    0.785873 0.495948 0.715467 0.170987
H5    H     H_    0.533482 0.113544 0.289822 0.171250
H6    H     H_    0.534162 0.885492 0.290419 0.176826
H7    H     H_    0.418258 0.880544 0.691422 0.165302
H8    H     H_    0.563407 0.639526 0.130611 0.169242
H9    H     H_    0.383650 0.486281 0.881025 0.221980
H10   H     H_    0.391329 0.307821 0.118395 0.211396
H11   H     H_    0.054980 0.815647 0.558474 0.197014
H12   H     H_    0.951298 0.817357 0.560128 0.195749
H13   H     H_    0.215047 0.564157 0.294804 0.166944
H14   H     H_    0.320002 0.431274 0.704665 0.175188
N1    N     N_R   0.852488 0.506445 0.500769 -0.368400
N2    N     N_R   0.147674 0.501333 0.497702 -0.368520
N3    N     N_R   0.499610 0.499140 0.142800 -0.148417
N4    N     N_R   0.499610 0.499180 0.857150 -0.167363
O1    O     O_R   0.500010 0.316790 0.614690 -0.606257
O2    O     O_2   0.848776 0.289043 0.460665 -0.528877
O3    O     O_2   0.147141 0.284595 0.453159 -0.525718
O4    O     O_2   0.151407 0.718312 0.540463 -0.533722
O5    O     O_R   0.500000 0.316760 0.385350 -0.628942
O6    O     O_R   0.416160 0.499980 0.614700 -0.615664
O7    O     O_R   0.416150 0.499940 0.385360 -0.617414
O8    O     O_R   0.500000 0.683240 0.614650 -0.614434
O9    O     O_R   0.499990 0.683210 0.385310 -0.622589
O10   O     O_R   0.583850 0.500060 0.614640 -0.648055
O11   O     O_R   0.583840 0.500020 0.385300 -0.628260
O12   O     O_2   0.852963 0.723639 0.542358 -0.530719
Zn1   Zn    Zn3+2 0.500000 0.500020 0.653130 0.976532
Zn2   Zn    Zn3+2 0.500000 0.499980 0.346870 0.956441
O13   O     O_3   0.477419 0.878655 0.851839 -0.738331
H15   H     H_    0.514620 0.919043 0.875297 0.347258
O14   O     O_3   0.405326 0.115728 0.673623 -0.754555
H16   H     H_    0.376869 0.108449 0.747282 0.343387
H17   H     H_    0.470465 0.118471 0.822468 0.120700
H18   H     H_    0.048847 0.190637 0.437214 0.195645
O15   O     O_3   0.573178 0.660948 0.872523 -0.765919
H19   H     H_    0.569595 0.653790 0.774325 0.390116
H20   H     H_    0.390208 0.311299 0.876300 0.212833
H21   H     H_    0.383509 0.482361 0.121489 0.217015
H22   H     H_    0.319459 0.564984 0.293526 0.169103
O16   O     O_3   0.211218 0.427183 0.736151 -0.746669
H23   H     H_    0.169514 0.437776 0.726830 0.340956
O17   O     O_3   0.788247 0.522375 0.250186 -0.745106
H24   H     H_    0.830080 0.528643 0.262918 0.340724

loop_
_geom_bond_atom_site_label_1
_geom_bond_atom_site_label_2
_ccdc_geom_bond_type
C22   H4    S    
C12   O7    A    
C41   C42   A    
C19   C20   A    
C7    H11   S    
C8    H12   S    
C37   N4    A    
C19   H2    S    
C7    C8    A    
O13   H15   S    
O6    Zn1   S    
C32   H17   S    
C12   O6    A    
C26   C27   A    
C29   C30   A    
C18   C24   A    
C5    C6    A    
C23   C29   S    
C28   C29   A    
C30   C31   S    
C39   H10   S    
C36   O15   S    
C15   C16   A    
O7    Zn2   S    
C18   C19   A    
C1    O5    A    
C28   H6    S    
O15   H19   S    
C16   C17   A    
C20   C34   S    
C25   C32   S    
C5    C43   A    
N3    Zn2   S    
C40   N1    A    
C21   C22   A    
C23   O8    A    
O10   Zn1   S    
C36   N4    A    
C1    O1    A    
C31   O13   S    
C10   O4    S    
C2    H1    S    
C38   C39   S    
C38   H20   S    
C18   O17   S    
C23   O9    A    
C41   N1    A    
C17   N2    S    
C25   C26   A    
C33   C37   A    
C35   C36   A    
C10   N2    A    
C43   C44   A    
C37   C38   S    
C31   C32   S    
C13   H22   S    
C3    H18   S    
C35   N3    A    
C33   C39   S    
O16   H23   S    
C12   C14   S    
C1    C26   S    
O11   Zn2   S    
C22   C24   A    
N4    Zn1   S    
C42   C43   A    
C3    C4    A    
C34   O10   A    
C27   C28   A    
C25   C30   A    
C11   C17   A    
C8    C44   A    
C31   H7    S    
C4    C5    A    
C6    C10   A    
C6    C7    A    
C39   H21   S    
C9    N2    A    
C2    C3    A    
C11   H13   S    
C32   O14   S    
C11   C13   A    
O17   H24   S    
O9    Zn2   S    
C38   H9    S    
O1    Zn1   S    
C2    C42   A    
C24   N1    S    
C15   H14   S    
C40   O12   S    
C9    O3    S    
C34   O11   A    
O14   H16   S    
C40   C44   A    
C20   C21   A    
O8    Zn1   S    
C33   N3    A    
C35   H8    S    
C16   O16   S    
C14   C15   A    
O5    Zn2   S    
C41   O2    S    
C4    C9    A    
C13   C14   A    
C27   H5    S    
C21   H3    S    
