data_mof_unit_43981.cif
_audit_creation_date              2012-12-11T15:41:12-0500
_audit_creation_method            fapswitch 2.2
_symmetry_space_group_name_H-M    P1
_symmetry_Int_Tables_number       1
_space_group_crystal_system       triclinic
_cell_length_a                    14.791226
_cell_length_b                    14.871884
_cell_length_c                    14.944138
_cell_angle_alpha                 109.069378
_cell_angle_beta                  109.782673
_cell_angle_gamma                 108.932165
_cell_volume                      2549.92112955

loop_
_atom_site_label
_atom_site_type_symbol
_atom_type_description
_atom_site_fract_x
_atom_site_fract_y
_atom_site_fract_z
_atom_type_partial_charge
C1    C     C_R   0.192413 0.989402 0.898353 0.663128
C2    C     C_R   0.750714 0.935145 0.025974 0.700958
C3    C     C_R   0.803850 0.326345 0.326074 0.040041
C4    C     C_R   0.133511 0.700195 0.699775 0.029017
C5    C     C_R   0.496312 0.037975 0.324682 0.035944
C6    C     C_R   0.497386 0.066346 0.698262 0.041547
C7    C     C_R   0.490868 0.324096 0.033011 0.034797
C8    C     C_R   0.500265 0.705481 0.079377 0.005813
C9    C     C_R   0.125705 0.220818 0.773562 -0.080955
C10   C     C_R   0.802482 0.909203 0.418612 -0.109430
C11   C     C_R   0.234824 0.302705 0.848831 -0.146171
C12   C     C_R   0.702347 0.813683 0.340114 -0.184772
C13   C     C_R   0.275748 0.339007 0.960914 0.090760
C14   C     C_R   0.699759 0.724798 0.264692 0.098680
C15   C     C_R   0.205978 0.293638 0.996905 -0.189650
C16   C     C_R   0.799659 0.732722 0.271565 -0.121335
C17   C     C_R   0.096739 0.211916 0.921280 -0.078847
C18   C     C_R   0.899594 0.827666 0.351547 -0.079278
C19   C     C_R   0.056561 0.175943 0.809776 -0.035934
C20   C     C_R   0.900976 0.915920 0.424778 -0.066562
C21   C     C_R   0.395185 0.533632 0.068315 -0.222806
C22   C     C_R   0.585563 0.522470 0.157882 -0.233279
C23   C     C_R   0.771234 0.223346 0.314926 -0.123063
C24   C     C_R   0.196950 0.792020 0.699944 -0.096268
C25   C     C_R   0.497381 0.626182 0.118872 0.053769
C26   C     C_R   0.486083 0.425728 0.077718 0.072958
C27   C     C_R   0.593097 0.624268 0.179375 0.039903
C28   C     C_R   0.387569 0.432106 0.040439 0.026040
C29   C     C_R   0.890292 0.527015 0.426944 -0.175408
C30   C     C_R   0.973430 0.522293 0.621904 -0.191635
C31   C     C_R   0.970036 0.622697 0.522669 -0.158442
C32   C     C_R   0.893528 0.426871 0.526485 -0.174124
C33   C     C_R   0.020777 0.617806 0.617505 0.138220
C34   C     C_R   0.861439 0.427711 0.427410 0.152563
C35   C     C_R   0.593952 0.157218 0.620601 -0.197716
C36   C     C_R   0.394346 0.042848 0.425591 -0.170945
C37   C     C_R   0.593591 0.149087 0.525669 -0.165395
C38   C     C_R   0.394670 0.051369 0.520437 -0.166441
C39   C     C_R   0.494460 0.081219 0.426109 0.141573
C40   C     C_R   0.495109 0.097855 0.615358 0.155022
C41   C     C_R   0.948749 0.818907 0.917378 0.559849
C42   C     C_R   0.860351 0.927177 0.825863 0.511953
C43   C     C_R   0.862073 0.829705 0.926923 -0.333770
C44   C     C_R   0.952650 0.924191 0.824356 -0.350992
C45   C     C_R   0.405490 0.967597 0.221208 -0.126178
C46   C     C_R   0.589860 0.096712 0.791465 -0.150629
C47   C     C_R   0.828059 0.897316 0.895229 -0.068838
C48   C     C_R   0.006617 0.883476 0.883235 -0.067847
C49   C     C_R   0.586067 0.315268 0.049771 -0.115007
C50   C     C_R   0.409022 0.704144 0.009910 -0.114430
C51   C     C_R   0.589362 0.052425 0.315067 -0.130602
C52   C     C_R   0.406874 0.002223 0.699473 -0.115434
C53   C     C_R   0.403115 0.219417 0.965786 -0.127993
C54   C     C_R   0.591067 0.794300 0.101904 -0.026544
C55   C     C_R   0.770286 0.315042 0.223089 -0.128777
C56   C     C_R   0.197277 0.700620 0.792164 -0.128386
C57   C     C_R   0.193912 0.901394 0.992192 -0.258091
C58   C     C_R   0.749465 0.026888 0.934417 -0.249382
C59   C     C_R   0.125802 0.923759 0.923496 -0.026602
C60   C     C_R   0.775096 0.947945 0.946862 -0.052019
H1    H     H_    0.094380 0.192954 0.687256 0.096966
H2    H     H_    0.803964 0.978560 0.474255 0.095516
H3    H     H_    0.287235 0.338487 0.820184 0.118428
H4    H     H_    0.626776 0.809789 0.336701 0.129403
H5    H     H_    0.235888 0.322306 0.083204 0.123108
H6    H     H_    0.800332 0.666233 0.214116 0.104799
H7    H     H_    0.042962 0.177158 0.949152 0.129367
H8    H     H_    0.975966 0.833163 0.356116 0.104973
H9    H     H_    0.319547 0.536392 0.034941 0.124659
H10   H     H_    0.658717 0.518992 0.200498 0.117238
H11   H     H_    0.859001 0.531060 0.352505 0.105027
H12   H     H_    0.005207 0.517435 0.695733 0.110546
H13   H     H_    0.999332 0.697173 0.518633 0.115874
H14   H     H_    0.864815 0.352411 0.530621 0.108983
H15   H     H_    0.672601 0.200301 0.694497 0.114153
H16   H     H_    0.315799 0.996656 0.351165 0.117836
H17   H     H_    0.671826 0.187483 0.529771 0.112346
H18   H     H_    0.316271 0.011007 0.515154 0.108795
H19   H     H_    0.798163 0.203181 0.378283 0.084142
H20   H     H_    0.170314 0.824260 0.647164 0.112174
H21   H     H_    0.826402 0.788734 0.963784 0.235150
H22   H     H_    0.984082 0.960331 0.782368 0.238067
H23   H     H_    0.319546 0.935768 0.197628 0.104096
H24   H     H_    0.673465 0.157797 0.823952 0.091445
H25   H     H_    0.668077 0.381762 0.089117 0.086127
H26   H     H_    0.323842 0.655264 0.984774 0.089517
H27   H     H_    0.672069 0.090747 0.380485 0.083591
H28   H     H_    0.321397 0.975382 0.647536 0.096575
H29   H     H_    0.317202 0.191202 0.936398 0.173509
H30   H     H_    0.675208 0.828306 0.162364 0.175911
H31   H     H_    0.795437 0.378362 0.202747 0.084776
H32   H     H_    0.171183 0.648946 0.825143 0.082183
H33   H     H_    0.169932 0.842935 0.018644 0.189558
H34   H     H_    0.759851 0.061824 0.883619 0.195869
H35   H     H_    0.971777 0.113525 0.751317 0.128232
H36   H     H_    0.978339 0.989769 0.485971 0.102567
N1    N     N_R   0.293810 0.002730 0.945950 -0.101679
N2    N     N_R   0.706190 0.997270 0.054050 -0.107839
N3    N     N_R   0.706160 0.152130 0.208910 -0.040434
N4    N     N_R   0.293840 0.847870 0.791090 -0.045545
N5    N     N_R   0.443140 0.945920 0.152090 -0.038953
N6    N     N_R   0.556860 0.054080 0.847910 -0.038277
N7    N     N_R   0.556830 0.208940 0.002760 -0.040925
N8    N     N_R   0.443170 0.791060 0.997240 -0.049046
N9    N     N_R   0.556790 0.002750 0.208910 -0.041528
N10   N     N_R   0.443210 0.997250 0.791090 -0.039714
N11   N     N_R   0.443180 0.152110 0.945950 -0.038826
N12   N     N_R   0.556820 0.847890 0.054050 -0.054583
N13   N     N_R   0.706170 0.208950 0.152090 -0.037989
N14   N     N_R   0.293830 0.791050 0.847910 -0.042494
N15   N     N_R   0.293800 0.945910 0.002760 -0.078389
N16   N     N_R   0.706200 0.054090 0.997240 -0.081698
Ni1   Ni    Ni4+2 0.369690 0.999990 0.869700 0.256170
Ni2   Ni    Ni4+2 0.630310 0.000010 0.130300 0.232274
Ni3   Ni    Ni4+2 0.369670 0.869670 0.000000 0.192722
Ni4   Ni    Ni4+2 0.630330 0.130330 0.000000 0.202783
F1    F     F_    0.156724 0.007010 0.812781 -0.754694
F2    F     F_    0.773423 0.876140 0.073510 -0.753244
O1    O     O_3   0.981458 0.753709 0.952109 -0.674592
C61   C     C_3   0.945348 0.654946 0.860181 0.153955
H37   H     H_    0.004412 0.625021 0.884162 0.119702
H38   H     H_    0.945463 0.665091 0.789388 0.100681
C62   C     C_3   0.830874 0.568945 0.826368 -0.281494
H39   H     H_    0.833859 0.556564 0.896537 0.210648
H40   H     H_    0.770635 0.597757 0.803080 0.194083
C63   C     C_3   0.791217 0.460226 0.729835 -1.021663
H41   H     H_    0.782449 0.469849 0.657241 0.281019
H42   H     H_    0.709546 0.399593 0.709628 0.279242
H43   H     H_    0.849967 0.429159 0.750058 0.259605
O2    O     O_3   0.813217 0.971977 0.769770 -0.693236
C64   C     C_3   0.709006 0.888538 0.679427 0.161064
H44   H     H_    0.650758 0.857712 0.707437 0.118857
H45   H     H_    0.715341 0.819488 0.628260 0.105982
C65   C     C_3   0.664008 0.935401 0.609360 -0.256657
H46   H     H_    0.664851 0.009042 0.660831 0.206773
H47   H     H_    0.718239 0.960475 0.576073 0.188616
C66   C     C_3   0.546852 0.853063 0.515415 -1.006329
H48   H     H_    0.544112 0.778317 0.462798 0.263710
H49   H     H_    0.518380 0.889484 0.465202 0.275532
H50   H     H_    0.490328 0.830991 0.547549 0.272343

loop_
_geom_bond_atom_site_label_1
_geom_bond_atom_site_label_2
_ccdc_geom_bond_type
C23   N3    A    
N4    N14   A    
C63   H41   S    
C3    C23   A    
N16   Ni4   S    
C64   C65   S    
N3    Ni2   S    
C2    F2    S    
C62   H39   S    
C10   H2    S    
C50   N8    A    
C66   H49   S    
C35   H15   S    
C7    C26   S    
C43   H21   S    
C9    H1    S    
C35   C37   A    
C54   H30   S    
C44   H22   S    
C1    C59   A    
C32   H14   S    
N1    N15   A    
C2    C60   A    
C62   H40   S    
C58   C60   A    
N3    N13   A    
N12   Ni2   S    
N11   Ni1   S    
C55   H31   S    
C36   H16   S    
N13   Ni4   S    
C47   C60   S    
C3    C55   A    
C24   H20   S    
N1    Ni1   S    
C10   C20   A    
C31   C33   A    
C13   C28   S    
C14   C27   S    
C43   C47   A    
C18   C20   A    
C61   C62   S    
C20   H36   S    
C52   N10   A    
C38   C40   A    
C57   H33   S    
C4    C56   A    
C8    C25   S    
C41   C43   A    
C45   H23   S    
C42   C44   A    
C65   C66   S    
C56   N14   A    
C9    C19   A    
N5    N9    A    
C66   H50   S    
C17   H7    S    
N2    N16   A    
N10   Ni1   S    
C35   C40   A    
C49   H25   S    
N9    Ni2   S    
C52   H28   S    
N6    Ni4   S    
C7    C49   A    
C1    N1    A    
C45   N5    A    
C62   C63   S    
C65   H47   S    
C38   H18   S    
C63   H43   S    
C37   H17   S    
C29   C34   A    
C58   N16   A    
C21   H9    S    
C32   C34   A    
N8    Ni3   S    
C46   N6    A    
C53   N11   A    
C51   N9    A    
C42   O2    S    
C1    F1    S    
C41   O1    S    
C9    C11   A    
C10   C12   A    
C46   H24   S    
C16   C18   A    
C21   C28   A    
C12   C14   A    
C22   C27   A    
C5    C39   S    
C53   H29   S    
N5    Ni3   S    
C14   C16   A    
C57   C59   A    
C16   H6    S    
C7    C53   A    
C51   H27   S    
C64   H44   S    
C8    C50   A    
N8    N12   A    
C19   H35   S    
C61   H37   S    
C61   H38   S    
C48   C59   S    
N7    N11   A    
C15   C17   A    
C12   H4    S    
C21   C25   A    
C4    C33   S    
C63   H42   S    
C6    C46   A    
C30   C33   A    
C24   N4    A    
C36   C39   A    
N4    Ni1   S    
C64   H45   S    
C49   N7    A    
C30   H12   S    
O1    C61   S    
C65   H46   S    
C54   N12   A    
C25   C27   A    
N2    Ni2   S    
C66   H48   S    
C26   C28   A    
C3    C34   S    
C8    C54   A    
C6    C52   A    
C13   C15   A    
O2    C64   S    
C58   H34   S    
C37   C39   A    
C30   C32   A    
C11   C13   A    
C57   N15   A    
C5    C45   A    
N7    Ni4   S    
C4    C24   A    
C36   C38   A    
C17   C19   A    
C41   C48   A    
N6    N10   A    
C6    C40   S    
C42   C47   A    
C31   H13   S    
C50   H26   S    
C56   H32   S    
C2    N2    A    
C29   C31   A    
C22   C26   A    
C5    C51   A    
N15   Ni3   S    
C23   H19   S    
C11   H3    S    
C18   H8    S    
N14   Ni3   S    
C22   H10   S    
C55   N13   A    
C44   C48   A    
C29   H11   S    
C15   H5    S    
