data_mof_unit_17088.cif
_audit_creation_date              2012-12-10T19:12:01-0500
_audit_creation_method            fapswitch 2.2
_symmetry_space_group_name_H-M    P1
_symmetry_Int_Tables_number       1
_space_group_crystal_system       triclinic
_cell_length_a                    27.89407
_cell_length_b                    9.073705
_cell_length_c                    7.774042
_cell_angle_alpha                 89.94982
_cell_angle_beta                  89.999908
_cell_angle_gamma                 89.999859
_cell_volume                      1967.629196

loop_
_atom_site_label
_atom_site_type_symbol
_atom_type_description
_atom_site_fract_x
_atom_site_fract_y
_atom_site_fract_z
_atom_type_partial_charge
C1    C     C_R   0.499998 0.220010 0.500053 0.843929
C2    C     C_R   0.499998 0.779990 0.499947 0.843929
C3    C     C_R   0.354201 0.500000 0.500000 -0.058900
C4    C     C_R   0.645832 0.499999 0.500000 -0.059386
C5    C     C_R   0.974530 0.366222 0.469373 0.044933
C6    C     C_R   0.025530 0.633590 0.531750 0.044791
C7    C     C_R   0.974530 0.633777 0.530636 0.044931
C8    C     C_R   0.025530 0.366409 0.468263 0.044789
C9    C     C_R   0.949366 0.499999 0.500005 0.067918
C10   C     C_R   0.050693 0.500000 0.500005 0.068127
C11   C     C_R   0.947488 0.236310 0.440869 -0.208871
C12   C     C_R   0.052571 0.762869 0.563968 -0.209610
C13   C     C_R   0.947488 0.763688 0.559130 -0.208874
C14   C     C_R   0.052571 0.237127 0.436054 -0.209602
C15   C     C_1   0.499997 0.065403 0.500074 -0.178056
C16   C     C_1   0.499996 0.934597 0.499926 -0.178056
C17   C     C_R   0.407227 0.500001 0.500000 0.812936
C18   C     C_R   0.592785 0.499999 0.500000 0.812760
C19   C     C_R   0.177627 0.371851 0.466426 0.542453
C20   C     C_R   0.822431 0.628597 0.531127 0.542306
C21   C     C_R   0.177627 0.628149 0.533586 0.542450
C22   C     C_R   0.822432 0.371398 0.468870 0.542307
C23   C     C_R   0.278311 0.585879 0.381130 -0.093909
C24   C     C_R   0.721740 0.415542 0.620217 -0.094077
C25   C     C_R   0.278311 0.414124 0.618879 -0.093909
C26   C     C_R   0.721740 0.584450 0.379774 -0.094075
C27   C     C_R   0.328486 0.587913 0.379846 0.079583
C28   C     C_R   0.671564 0.413478 0.621521 0.079704
C29   C     C_R   0.328486 0.412088 0.620158 0.079585
C30   C     C_R   0.671564 0.586517 0.378475 0.079705
C31   C     C_R   0.253250 0.500001 0.500004 0.258660
C32   C     C_R   0.746802 0.499996 0.499996 0.258642
C33   C     C_R   0.101714 0.500000 0.500006 -0.043599
C34   C     C_R   0.898345 0.499998 0.500003 -0.043849
C35   C     C_R   0.127307 0.369255 0.467254 -0.021323
C36   C     C_R   0.872752 0.631175 0.530277 -0.021231
C37   C     C_R   0.127306 0.630745 0.532759 -0.021322
C38   C     C_R   0.872752 0.368821 0.469726 -0.021231
C39   C     C_R   0.102314 0.238939 0.435451 -0.147437
C40   C     C_R   0.897745 0.761968 0.559286 -0.146909
C41   C     C_R   0.102314 0.761058 0.564570 -0.147440
C42   C     C_R   0.897745 0.238030 0.440713 -0.146912
Cu1   Cu    Cu3+1 0.500000 0.500000 0.669080 0.992282
Cu2   Cu    Cu3+1 0.500000 0.500000 0.330920 0.992282
H1    H     H_    0.258295 0.348507 0.710656 0.160620
H2    H     H_    0.741759 0.648955 0.286946 0.160521
H3    H     H_    0.258294 0.651496 0.289355 0.160621
H4    H     H_    0.741759 0.351036 0.713044 0.160520
H5    H     H_    0.121152 0.136814 0.409935 0.187387
H6    H     H_    0.878906 0.864551 0.582120 0.186632
H7    H     H_    0.121151 0.863180 0.590092 0.187387
H8    H     H_    0.878907 0.135447 0.417872 0.186633
H9    H     H_    0.963389 0.130143 0.418252 0.132796
H10   H     H_    0.036672 0.868425 0.590251 0.134246
H11   H     H_    0.963389 0.869854 0.581735 0.132797
H12   H     H_    0.036673 0.131567 0.409785 0.134242
N1    N     N_R   0.201741 0.500001 0.500006 -0.458821
N2    N     N_R   0.798314 0.499997 0.499998 -0.458922
N3    N     N_1   0.500000 0.500000 0.076820 -0.052739
N4    N     N_1   0.500000 0.500000 0.923180 -0.052739
O1    O     O_R   0.500000 0.288390 0.642760 -0.578572
O2    O     O_R   0.500000 0.711610 0.357240 -0.578572
O3    O     O_R   0.500000 0.711610 0.642760 -0.572918
O4    O     O_R   0.500000 0.288390 0.357240 -0.572918
O5    O     O_R   0.430260 0.500000 0.642770 -0.581768
O6    O     O_R   0.569740 0.500000 0.357230 -0.581819
O7    O     O_R   0.569740 0.500000 0.642770 -0.581819
O8    O     O_R   0.430260 0.500000 0.357230 -0.581769
O9    O     O_2   0.202278 0.247542 0.430810 -0.528275
O10   O     O_2   0.797785 0.753390 0.564369 -0.527670
O11   O     O_2   0.202277 0.752460 0.569202 -0.528275
O12   O     O_2   0.797786 0.246605 0.435620 -0.527672
C43   C     C_3   0.353418 0.312397 0.747455 -0.786774
H13   H     H_    0.327637 0.240230 0.816606 0.229858
H14   H     H_    0.379310 0.239912 0.679534 0.226632
H15   H     H_    0.372429 0.379311 0.845496 0.247710
C44   C     C_3   0.646674 0.684791 0.249579 -0.786372
H16   H     H_    0.672474 0.756206 0.179471 0.229593
H17   H     H_    0.627710 0.616800 0.152437 0.247360
H18   H     H_    0.620761 0.758029 0.316276 0.227214
C45   C     C_3   0.353417 0.687605 0.252548 -0.786773
H19   H     H_    0.327636 0.759769 0.183390 0.229857
H20   H     H_    0.379307 0.760096 0.320472 0.226632
H21   H     H_    0.372430 0.620691 0.154512 0.247712
C46   C     C_3   0.646674 0.315205 0.750418 -0.786375
H22   H     H_    0.672474 0.243792 0.820529 0.229593
H23   H     H_    0.627710 0.383196 0.847558 0.247361
H24   H     H_    0.620762 0.241965 0.683722 0.227214

loop_
_geom_bond_atom_site_label_1
_geom_bond_atom_site_label_2
_ccdc_geom_bond_type
C25   C31   A    
C14   H12   S    
C26   C32   A    
C43   H13   S    
Cu2   O6    S    
C32   N2    S    
C4    C30   A    
C45   H19   S    
Cu1   O3    S    
C44   H16   S    
C19   N1    A    
C5    C9    A    
C21   O11   S    
C5    C11   A    
C6    C12   A    
C46   H24   S    
C29   C43   S    
Cu2   N3    S    
C15   C16   T    
C22   C38   A    
C11   C42   A    
C3    C29   A    
C13   C40   A    
C45   H20   S    
C14   C39   A    
C30   C44   S    
C1    C15   S    
C23   C27   A    
C2    C16   S    
C11   H9    S    
C4    C18   S    
C46   H23   S    
N3    N4    T    
C43   H14   S    
C20   O10   S    
C22   O12   S    
C4    C28   A    
C44   H17   S    
C25   C29   A    
C23   H3    S    
C24   H4    S    
C27   C45   S    
Cu2   O2    S    
C18   O7    A    
C46   H22   S    
Cu2   O4    S    
C23   C31   A    
C35   C39   A    
Cu1   Cu2   S    
C24   C32   A    
C21   N1    A    
C12   C41   A    
C36   C40   A    
Cu1   O5    S    
C22   N2    A    
Cu1   N4    S    
C8    C10   A    
C39   H5    S    
C26   C30   A    
C9    C34   A    
C43   H15   S    
Cu2   O8    S    
C20   N2    A    
C1    O4    A    
C25   H1    S    
C45   H21   S    
C2    O3    A    
Cu1   O1    S    
C44   H18   S    
C7    C9    A    
C17   O8    A    
C8    C14   A    
C34   C38   A    
C24   C28   A    
C1    O1    A    
C6    C10   A    
C5    C8    A    
C38   C42   A    
C6    C7    A    
C18   O6    A    
C17   O5    A    
C31   N1    S    
C3    C27   A    
C19   C35   A    
C40   H6    S    
C33   C35   A    
C3    C17   S    
C10   C33   A    
C34   C36   A    
C37   C41   A    
C33   C37   A    
C19   O9    S    
C26   H2    S    
C20   C36   A    
C7    C13   A    
C21   C37   A    
Cu1   O7    S    
C28   C46   S    
C41   H7    S    
C12   H10   S    
C2    O2    A    
C42   H8    S    
C13   H11   S    
