data_mof_unit_62667.cif
_audit_creation_date              2012-12-10T18:08:08-0500
_audit_creation_method            fapswitch 2.2
_symmetry_space_group_name_H-M    P1
_symmetry_Int_Tables_number       1
_space_group_crystal_system       triclinic
_cell_length_a                    18.781837
_cell_length_b                    18.818923
_cell_length_c                    18.642243
_cell_angle_alpha                 109.45585
_cell_angle_beta                  109.444858
_cell_angle_gamma                 109.742466
_cell_volume                      5057.89748473

loop_
_atom_site_label
_atom_site_type_symbol
_atom_type_description
_atom_site_fract_x
_atom_site_fract_y
_atom_site_fract_z
_atom_type_partial_charge
C1    C     C_R   0.378780 0.498451 0.379566 0.893389
C2    C     C_R   0.309971 0.494398 0.312249 -0.092777
C3    C     C_R   0.317671 0.241167 0.496164 -0.199403
C4    C     C_R   0.618220 0.619652 0.498277 0.885394
C5    C     C_R   0.255264 0.180157 0.500070 -0.202931
C6    C     C_R   0.186860 0.191313 0.505385 -0.092051
C7    C     C_R   0.182184 0.266173 0.510585 -0.048623
C8    C     C_R   0.246059 0.327304 0.507304 -0.165172
C9    C     C_R   0.312896 0.314476 0.500017 -0.023468
C10   C     C_R   0.749805 0.485939 0.669510 -0.218124
C11   C     C_R   0.813414 0.482551 0.730759 -0.047930
C12   C     C_R   0.821799 0.805308 0.566716 0.109546
C13   C     C_R   0.813861 0.496570 0.810303 -0.104110
C14   C     C_R   0.752108 0.512710 0.827164 -0.155188
C15   C     C_R   0.689762 0.516392 0.765771 -0.177498
C16   C     C_R   0.620826 0.500822 0.620563 0.868400
C17   C     C_R   0.688368 0.502197 0.686897 -0.048252
C18   C     C_R   0.002775 0.883401 0.379169 0.897760
C19   C     C_R   0.879808 0.877286 0.497022 0.928570
C20   C     C_R   0.000316 0.120285 0.620724 0.921097
C21   C     C_R   0.120229 0.122287 0.502166 0.904439
C22   C     C_R   0.998352 0.620204 0.118491 0.901662
C23   C     C_3   0.882112 0.850518 0.663322 -0.441296
C24   C     C_R   0.120088 0.497365 0.117637 0.878431
C25   C     C_R   0.001411 0.380115 0.881375 0.936340
C26   C     C_R   0.879900 0.498661 0.878566 0.957469
C27   C     C_R   0.000483 0.826421 0.236150 0.013592
C28   C     C_R   0.379667 0.379892 0.499988 0.925064
C29   C     C_R   0.996837 0.758580 0.170358 -0.035114
C30   C     C_R   0.994906 0.686973 0.180463 -0.117088
C31   C     C_R   0.995662 0.681258 0.253147 -0.200964
C32   C     C_R   0.000621 0.747679 0.318361 -0.167515
C33   C     C_R   0.002976 0.819518 0.310596 -0.047865
C34   C     C_3   0.808521 0.782681 0.663996 -0.468904
C35   C     C_R   0.924511 0.188682 0.673206 -0.188802
C36   C     C_R   0.925400 0.251824 0.738411 -0.163856
C37   C     C_R   0.003655 0.314285 0.817428 -0.019872
C38   C     C_R   0.082184 0.313453 0.833163 0.092637
C39   C     C_R   0.079902 0.248486 0.767376 -0.176704
C40   C     C_R   0.757657 0.747554 0.567629 0.095319
C41   C     C_R   0.001595 0.186931 0.687974 -0.029306
C42   C     C_R   0.678808 0.683988 0.492520 -0.124101
C43   C     C_R   0.663756 0.680686 0.411090 -0.014398
C44   C     C_R   0.732779 0.742292 0.410202 -0.059656
C45   C     C_R   0.234337 0.413591 0.244511 -0.101039
C46   C     C_R   0.812542 0.806766 0.490869 -0.204147
C47   C     C_3   0.575074 0.614392 0.327777 -0.385178
C48   C     C_3   0.577324 0.537399 0.267412 -0.304928
C49   C     C_3   0.486567 0.468594 0.187827 -0.848718
C50   C     C_2   0.115191 0.284999 0.523495 0.907288
C51   C     C_2   0.875042 0.461162 0.707691 0.903964
C52   C     C_3   0.003446 0.905164 0.227081 -0.401488
C53   C     C_3   0.096482 0.984031 0.284516 -0.347712
C54   C     C_3   0.100090 0.061563 0.272929 -0.780325
C55   C     C_2   0.724582 0.736979 0.326238 0.932026
C56   C     C_R   0.171321 0.412584 0.176760 -0.104273
C57   C     C_2   0.993405 0.760729 0.090336 0.906132
C58   C     C_3   0.167810 0.377973 0.919115 -0.391675
C59   C     C_3   0.228860 0.448117 0.909866 -0.343373
C60   C     C_3   0.314263 0.514422 0.996867 -0.845394
C61   C     C_2   0.221346 0.331170 0.244871 0.963714
C62   C     C_2   0.090921 0.328705 0.103692 0.984070
C63   C     C_R   0.185885 0.492820 0.180024 -0.106823
C64   C     C_R   0.261969 0.571450 0.247248 -0.178037
C65   C     C_R   0.323486 0.572291 0.313507 -0.197356
H1    H     H_    0.382501 0.633719 0.365360 0.147018
H2    H     H_    0.863641 0.140622 0.611892 0.157864
H3    H     H_    0.865369 0.252951 0.726840 0.165429
H4    H     H_    0.139300 0.246271 0.777843 0.152344
H5    H     H_    0.941065 0.843594 0.679260 0.216830
H6    H     H_    0.894905 0.918123 0.697918 0.200687
H7    H     H_    0.824393 0.735793 0.679215 0.207833
H8    H     H_    0.779404 0.811196 0.699808 0.214717
H9    H     H_    0.272731 0.632775 0.249749 0.159936
H10   H     H_    0.440176 0.442341 0.209235 0.275584
H11   H     H_    0.461947 0.497430 0.149294 0.260820
H12   H     H_    0.370185 0.231927 0.491432 0.153019
H13   H     H_    0.490011 0.413946 0.144938 0.249612
H14   H     H_    0.622669 0.560364 0.243841 0.228741
H15   H     H_    0.601053 0.506735 0.304130 0.241605
H16   H     H_    0.523654 0.589155 0.344061 0.191439
H17   H     H_    0.552949 0.646317 0.292044 0.233606
H18   H     H_    0.045437 0.345261 0.506071 0.351325
H19   H     H_    0.935221 0.461513 0.635919 0.352289
H20   H     H_    0.076145 0.043491 0.202858 0.267194
H21   H     H_    0.059429 0.083395 0.295193 0.268782
H22   H     H_    0.168578 0.116608 0.312521 0.264295
H23   H     H_    0.258991 0.122972 0.496620 0.150197
H24   H     H_    0.119698 0.003160 0.354643 0.197409
H25   H     H_    0.141194 0.966444 0.266161 0.254830
H26   H     H_    0.979610 0.890401 0.158055 0.215977
H27   H     H_    0.957321 0.922239 0.241983 0.225790
H28   H     H_    0.775785 0.728108 0.246272 0.346668
H29   H     H_    0.926524 0.702750 0.958148 0.348475
H30   H     H_    0.301102 0.547186 0.048532 0.270136
H31   H     H_    0.348996 0.481473 0.018162 0.257889
H32   H     H_    0.357029 0.564701 0.988513 0.256582
H33   H     H_    0.243970 0.417202 0.859167 0.226916
H34   H     H_    0.244716 0.385690 0.511532 0.191184
H35   H     H_    0.196345 0.482835 0.888745 0.248657
H36   H     H_    0.157048 0.409785 0.973164 0.228276
H37   H     H_    0.199896 0.342433 0.939063 0.213854
H38   H     H_    0.192313 0.206835 0.178097 0.347660
H39   H     H_    0.011317 0.247914 0.972718 0.347638
H40   H     H_    0.747055 0.474691 0.607438 0.191728
H41   H     H_    0.753220 0.523846 0.888558 0.171139
H42   H     H_    0.641781 0.528542 0.778965 0.155685
H43   H     H_    0.994774 0.626237 0.260495 0.163749
H44   H     H_    0.001185 0.742339 0.374674 0.167010
O1    O     O_R   0.408340 0.551690 0.460080 -0.613367
O2    O     O_R   0.051700 0.643420 0.091650 -0.612054
O3    O     O_R   0.039910 0.448390 0.091720 -0.607192
O4    O     O_R   0.408400 0.448280 0.356690 -0.626485
O5    O     O_R   0.143340 0.551810 0.091690 -0.638587
O6    O     O_R   0.948300 0.356760 0.908530 -0.620131
O7    O     O_R   0.051730 0.460180 0.908500 -0.609085
O8    O     O_R   0.856660 0.448370 0.908490 -0.630020
O9    O     O_R   0.960090 0.551790 0.908450 -0.594145
O10   O     O_R   0.591580 0.643330 0.551700 -0.623970
O11   O     O_R   0.591640 0.539920 0.448310 -0.626030
O12   O     O_R   0.948260 0.908480 0.356680 -0.621481
O13   O     O_R   0.591600 0.551720 0.643310 -0.623990
O14   O     O_R   0.591660 0.448310 0.539920 -0.626142
O15   O     O_R   0.408360 0.460080 0.551690 -0.631399
O16   O     O_R   0.408420 0.356670 0.448300 -0.605307
O17   O     O_R   0.051710 0.908420 0.460050 -0.631502
O18   O     O_2   0.083503 0.258722 0.563428 -0.638220
O19   O     O_R   0.090628 0.335968 0.492536 -0.790218
O20   O     O_2   0.908081 0.425292 0.739327 -0.654266
O21   O     O_R   0.893228 0.479785 0.647064 -0.802959
O22   O     O_2   0.665313 0.741130 0.277965 -0.637804
O23   O     O_R   0.960120 0.908380 0.551680 -0.620920
O24   O     O_R   0.787045 0.729913 0.304122 -0.814880
O25   O     O_2   0.053953 0.819320 0.096852 -0.624247
O26   O     O_R   0.921385 0.694614 0.007652 -0.828963
O27   O     O_2   0.229580 0.326717 0.310859 -0.634644
O28   O     O_R   0.199612 0.258878 0.169707 -0.789548
O29   O     O_2   0.045557 0.279617 0.119891 -0.599050
O30   O     O_R   0.067207 0.306260 0.016518 -0.835176
O31   O     O_R   0.856660 0.908440 0.448310 -0.613155
O32   O     O_R   0.051740 0.091590 0.643330 -0.637916
O33   O     O_R   0.948290 0.091650 0.539960 -0.595606
O34   O     O_R   0.143330 0.091630 0.551690 -0.629200
O35   O     O_R   0.039880 0.091690 0.448320 -0.609029
O36   O     O_R   0.948270 0.540000 0.091680 -0.620674
Zn1   Zn    Zn3+2 0.499960 0.569050 0.569040 0.973836
Zn2   Zn    Zn3+2 0.500040 0.430950 0.430960 0.978092
Zn3   Zn    Zn3+2 0.069080 0.999990 0.569020 0.966750
Zn4   Zn    Zn3+2 0.930920 0.000070 0.430980 1.011781
Zn5   Zn    Zn3+2 0.930940 0.431040 0.000110 1.002057
Zn6   Zn    Zn3+2 0.069060 0.569140 0.000070 1.011560

loop_
_geom_bond_atom_site_label_1
_geom_bond_atom_site_label_2
_ccdc_geom_bond_type
C8    C9    A    
C24   O5    A    
C27   C29   A    
C31   H43   S    
C35   C36   A    
C24   O3    A    
C26   O8    A    
H18   O19   S    
C2    C65   A    
C20   C41   S    
C51   O20   D    
C19   C46   S    
C7    C8    A    
C39   C41   A    
C53   C54   S    
C28   O16   A    
O10   Zn1   S    
C12   C23   S    
C37   C38   A    
C34   C40   S    
C48   H14   S    
C36   C37   A    
C16   O14   A    
H28   O24   S    
C25   O6    A    
C54   H22   S    
C10   C17   A    
O4    Zn2   S    
C49   H13   S    
C1    C2    S    
C47   H17   S    
C15   H42   S    
C16   O13   A    
C21   O35   A    
O32   Zn3   S    
C25   C37   S    
C38   C58   S    
C5    H23   S    
C47   C48   S    
C45   C56   A    
C16   C17   S    
C52   H26   S    
C49   H10   S    
C4    O10   A    
O8    Zn5   S    
C58   H37   S    
C62   O30   S    
O36   Zn5   S    
C40   C42   A    
C59   C60   S    
C13   C14   A    
C59   H35   S    
C23   H5    S    
C1    O4    A    
O5    Zn6   S    
C35   C41   A    
C51   O21   S    
C44   C46   A    
C2    C45   A    
O34   Zn3   S    
C49   H11   S    
C32   H44   S    
O23   Zn3   S    
C23   H6    S    
C38   C39   A    
C21   O34   A    
C12   C46   A    
C60   H32   S    
O16   Zn2   S    
C25   O7    A    
C54   H21   S    
O17   Zn3   S    
C19   O31   A    
O13   Zn1   S    
C34   H8    S    
C58   C59   S    
C55   O24   S    
C6    C21   S    
O15   Zn1   S    
C27   C33   A    
C12   C40   A    
C43   C44   A    
C29   C30   A    
C3    C9    A    
C20   O33   A    
C1    O1    A    
C31   C32   A    
C22   O36   A    
C35   H2    S    
C30   C31   A    
C23   C34   S    
C36   H3    S    
H29   O26   S    
C39   H4    S    
C56   C63   A    
C58   H36   S    
C52   C53   S    
C62   O29   D    
C60   H31   S    
C48   C49   S    
H19   O21   S    
C29   C57   S    
C22   O2    A    
C24   C63   S    
C55   O22   D    
C53   H24   S    
C56   C62   S    
C13   C26   S    
C52   H27   S    
C50   O19   S    
C42   C43   A    
C3    H12   S    
C34   H7    S    
C27   C52   S    
O33   Zn4   S    
C19   O23   A    
C15   C17   A    
C22   C30   S    
O35   Zn4   S    
C20   O32   A    
C8    H34   S    
C57   O26   S    
C26   O9    A    
C7    C50   S    
O14   Zn2   S    
C3    C5    A    
O2    Zn6   S    
C54   H20   S    
C28   O15   A    
C6    C7    A    
H39   O30   S    
C32   C33   A    
C48   H15   S    
H38   O28   S    
C64   C65   A    
C11   C13   A    
C44   C55   S    
C61   O28   S    
C5    C6    A    
C4    C42   S    
O6    Zn5   S    
C45   C61   S    
O12   Zn4   S    
O3    Zn5   S    
C47   H16   S    
O9    Zn6   S    
C57   O25   D    
C18   C33   S    
C11   C51   S    
C10   C11   A    
C18   O12   A    
C63   C64   A    
C60   H30   S    
C14   H41   S    
C61   O27   D    
O11   Zn2   S    
C65   H1    S    
C53   H25   S    
C59   H33   S    
C64   H9    S    
C14   C15   A    
C4    O11   A    
C10   H40   S    
C50   O18   D    
O1    Zn1   S    
C43   C47   S    
O31   Zn4   S    
O7    Zn6   S    
C18   O17   A    
C9    C28   S    
