data_mof_unit_42363.cif
_audit_creation_date              2012-12-10T17:43:32-0500
_audit_creation_method            fapswitch 2.2
_symmetry_space_group_name_H-M    P1
_symmetry_Int_Tables_number       1
_space_group_crystal_system       triclinic
_cell_length_a                    14.931696
_cell_length_b                    10.695664
_cell_length_c                    9.922745
_cell_angle_alpha                 89.873473
_cell_angle_beta                  89.702758
_cell_angle_gamma                 92.520649
_cell_volume                      1583.14675347

loop_
_atom_site_label
_atom_site_type_symbol
_atom_type_description
_atom_site_fract_x
_atom_site_fract_y
_atom_site_fract_z
_atom_type_partial_charge
C1    C     C_R   0.506108 0.259882 0.500832 0.927068
C2    C     C_R   0.181507 0.411120 0.573569 0.421396
C3    C     C_R   0.230426 0.500697 0.497600 -0.238726
C4    C     C_R   0.326817 0.500344 0.500084 0.910656
C5    C     C_R   0.188362 0.582806 0.409451 0.366968
C6    C     C_R   0.528443 0.107412 0.754311 -0.225278
C7    C     C_R   0.504208 0.045119 0.873431 -0.320396
C8    C     C_R   0.451003 0.935238 0.868716 0.762179
C9    C     C_R   0.429252 0.880645 0.744600 0.429167
C10   C     C_R   0.466117 0.935166 0.623695 -0.111325
C11   C     C_R   0.501638 0.058154 0.627602 0.016083
C12   C     C_R   0.908363 0.567790 0.386130 -0.099617
C13   C     C_R   0.509459 0.125158 0.503717 -0.226302
C14   C     C_R   0.504442 0.061359 0.380323 0.642080
C15   C     C_R   0.490183 0.934377 0.379732 -0.180086
C16   C     C_R   0.489891 0.738331 0.500162 0.874286
C17   C     C_R   0.475074 0.870198 0.500776 -0.215625
C18   C     C_R   0.385306 0.330273 0.141458 -0.267287
C19   C     C_R   0.331475 0.242890 0.072246 0.589245
C20   C     C_R   0.332509 0.241497 0.932683 0.557698
C21   C     C_R   0.386617 0.328568 0.861810 -0.333844
C22   C     C_R   0.443986 0.415662 0.928486 0.011675
C23   C     C_R   0.944375 0.302299 0.624708 0.350288
C24   C     C_R   0.443733 0.416052 0.072914 0.079308
C25   C     C_R   0.553076 0.580951 0.072325 -0.024726
C26   C     C_R   0.553761 0.581772 0.930024 0.503916
C27   C     C_R   0.672953 0.502937 0.499367 0.851251
C28   C     C_R   0.816957 0.585624 0.407407 0.426643
C29   C     C_R   0.768679 0.503722 0.495213 -0.144023
C30   C     C_R   0.809787 0.410365 0.565952 -0.232102
C31   C     C_R   0.901325 0.396163 0.552572 -0.057154
C32   C     C_R   0.951635 0.479926 0.467674 -0.046888
C33   C     C_R   0.037262 0.305445 0.629146 0.673013
C34   C     C_R   0.088340 0.398963 0.559263 -0.183547
C35   C     C_R   0.045440 0.480453 0.469986 -0.152538
C36   C     C_R   0.095957 0.566701 0.388078 -0.093065
C37   C     C_R   0.051849 0.637506 0.289693 0.460333
C38   C     C_R   0.958755 0.638491 0.289104 0.433978
F1    F     F_    0.420416 0.881429 0.985062 -0.593698
F2    F     F_    0.277587 0.159646 0.141444 -0.553527
F3    F     F_    0.280566 0.155532 0.865244 -0.543096
F4    F     F_    0.076452 0.213146 0.698799 -0.542300
F5    F     F_    0.517166 0.120029 0.259692 -0.652527
H1    H     H_    0.570661 0.191596 0.763265 0.206930
H2    H     H_    0.610624 0.654751 0.772082 0.385628
H3    H     H_    0.843517 0.183242 0.643576 0.335445
H4    H     H_    0.198267 0.347846 0.751122 0.382672
H5    H     H_    0.289186 0.706200 0.403341 0.333068
H6    H     H_    0.145753 0.649671 0.155851 0.373205
H7    H     H_    0.866902 0.653798 0.155085 0.367375
H8    H     H_    0.523752 0.085007 0.969630 0.227471
H9    H     H_    0.494196 0.886180 0.284058 0.226556
H10   H     H_    0.596461 0.646729 0.126787 0.177150
H11   H     H_    0.379201 0.328059 0.248355 0.246874
H12   H     H_    0.381910 0.325472 0.755079 0.284965
H13   H     H_    0.769191 0.350471 0.632493 0.170675
H14   H     H_    0.723046 0.707812 0.399019 0.334392
H15   H     H_    0.342343 0.771190 0.653439 0.327497
N1    N     N_R   0.499150 0.498800 0.142780 -0.132065
N2    N     N_R   0.499120 0.498720 0.857170 -0.147532
O1    O     O_R   0.500000 0.316780 0.614690 -0.659221
O2    O     O_3   0.368286 0.779775 0.744871 -0.672239
O3    O     O_3   0.611203 0.668969 0.869419 -0.760528
O4    O     O_3   0.898525 0.207395 0.694213 -0.668762
O5    O     O_3   0.226402 0.336926 0.661404 -0.678932
O6    O     O_3   0.235005 0.683579 0.350094 -0.683717
O7    O     O_3   0.097176 0.702466 0.188245 -0.597608
O8    O     O_3   0.919452 0.704825 0.187535 -0.619581
O9    O     O_R   0.499990 0.316750 0.385360 -0.568571
O10   O     O_R   0.367850 0.499980 0.614680 -0.583911
O11   O     O_R   0.367840 0.499960 0.385350 -0.630357
O12   O     O_R   0.500010 0.683250 0.614640 -0.613935
O13   O     O_R   0.500000 0.683220 0.385310 -0.619891
O14   O     O_R   0.632160 0.500040 0.614650 -0.643627
O15   O     O_R   0.632150 0.500020 0.385320 -0.601041
O16   O     O_3   0.777965 0.687474 0.348781 -0.730530
Zn1   Zn    Zn3+2 0.500010 0.500020 0.653130 0.977557
Zn2   Zn    Zn3+2 0.499990 0.499980 0.346870 1.005032

loop_
_geom_bond_atom_site_label_1
_geom_bond_atom_site_label_2
_ccdc_geom_bond_type
H15   O2    S    
C27   C29   S    
C35   C36   A    
C16   O12   A    
C2    O5    S    
C4    O10   A    
C20   F3    S    
C7    C8    A    
O12   Zn1   S    
C12   C28   A    
C18   C24   A    
C33   F4    S    
H14   O16   S    
C28   C29   A    
C25   H10   S    
C18   C19   A    
C22   N2    A    
C30   C31   A    
C10   C17   A    
C5    C36   A    
C34   C35   A    
C19   C20   A    
O1    Zn1   S    
C8    C9    A    
C23   C33   A    
O14   Zn1   S    
O13   Zn2   S    
C8    F1    S    
C27   O14   A    
C9    C10   A    
C2    C34   A    
C6    H1    S    
C13   C14   A    
C12   C32   A    
O10   Zn1   S    
O9    Zn2   S    
C27   O15   A    
N1    Zn2   S    
N2    Zn1   S    
C9    O2    S    
C32   C35   A    
C19   F2    S    
C6    C11   A    
C21   H12   S    
C16   C17   S    
C25   C26   A    
C30   H13   S    
H2    O3    S    
C1    O9    A    
C16   O13   A    
H3    O4    S    
C23   C31   A    
C26   O3    S    
C37   C38   A    
C31   C32   A    
C33   C34   A    
C15   H9    S    
C23   O4    S    
C38   O8    S    
C22   C24   A    
C1    C13   S    
C3    C4    S    
C28   O16   S    
C15   C17   A    
C36   C37   A    
H6    O7    S    
C5    O6    S    
C3    C5    A    
C1    O1    A    
C6    C7    A    
C2    C3    A    
C7    H8    S    
C11   C13   A    
C26   N2    A    
C24   N1    A    
C37   O7    S    
O11   Zn2   S    
C12   C38   A    
O15   Zn2   S    
C10   C11   A    
C18   H11   S    
C29   C30   A    
C20   C21   A    
C14   C15   A    
C25   N1    A    
H5    O6    S    
C21   C22   A    
H7    O8    S    
H4    O5    S    
C4    O11   A    
C14   F5    S    
