data_mof_unit_61005.cif
_audit_creation_date              2012-12-10T19:46:54-0500
_audit_creation_method            fapswitch 2.2
_symmetry_space_group_name_H-M    P1
_symmetry_Int_Tables_number       1
_space_group_crystal_system       monoclinic
_cell_length_a                    28.527222
_cell_length_b                    18.263499
_cell_length_c                    21.652664
_cell_angle_alpha                 90.0
_cell_angle_beta                  140.171456
_cell_angle_gamma                 90.0
_cell_volume                      7225.51427405

loop_
_atom_site_label
_atom_site_type_symbol
_atom_type_description
_atom_site_fract_x
_atom_site_fract_y
_atom_site_fract_z
_atom_type_partial_charge
C1    C     C_R   0.858775 0.500034 0.860144 0.928607
C2    C     C_R   0.141225 0.500034 0.139856 0.928607
C3    C     C_R   0.358775 0.000034 0.860144 0.928609
C4    C     C_R   0.641224 0.000034 0.139856 0.928609
C5    C     C_R   0.026091 0.554719 0.807911 -0.188972
C6    C     C_R   0.973910 0.554720 0.192090 -0.188972
C7    C     C_R   0.526087 0.054722 0.807907 -0.188970
C8    C     C_R   0.473911 0.054720 0.192091 -0.188972
C9    C     C_R   0.031438 0.552694 0.750042 -0.213535
C10   C     C_R   0.968562 0.552695 0.249959 -0.213535
C11   C     C_R   0.531435 0.052697 0.750038 -0.213536
C12   C     C_R   0.468564 0.052696 0.249960 -0.213535
C13   C     C_R   0.001235 0.494290 0.687333 -0.081711
C14   C     C_R   0.998765 0.494290 0.312667 -0.081710
C15   C     C_R   0.501235 0.994290 0.687333 -0.081708
C16   C     C_R   0.498765 0.994290 0.312667 -0.081709
C17   C     C_1   0.782300 0.500120 0.783895 -0.189163
C18   C     C_1   0.217700 0.500120 0.216105 -0.189164
C19   C     C_1   0.282300 0.000120 0.783895 -0.189164
C20   C     C_1   0.717700 0.000120 0.216105 -0.189164
C21   C     C_1   0.717512 0.500155 0.718834 -0.196210
C22   C     C_1   0.282488 0.500155 0.281166 -0.196211
C23   C     C_1   0.217512 0.000155 0.718834 -0.196209
C24   C     C_1   0.782488 0.000155 0.281166 -0.196210
C25   C     C_R   0.000000 0.641264 0.500000 0.935313
C26   C     C_R   0.000000 0.358736 0.500000 0.904765
C27   C     C_R   0.500000 0.141264 0.500000 0.935311
C28   C     C_R   0.500000 0.858736 0.500000 0.904765
C29   C     C_R   0.000590 0.498728 0.620791 0.867059
C30   C     C_R   0.999410 0.498728 0.379209 0.867059
C31   C     C_R   0.500590 0.998728 0.620791 0.867058
C32   C     C_R   0.499410 0.998728 0.379209 0.867060
C33   C     C_R   0.500000 0.641003 0.500000 0.928188
C34   C     C_R   0.500000 0.359002 0.500000 0.927683
C35   C     C_R   0.000000 0.141003 0.500000 0.928187
C36   C     C_R   0.000000 0.859002 0.500000 0.927682
C37   C     C_R   0.641017 0.500066 0.641436 0.926575
C38   C     C_R   0.358983 0.500066 0.358563 0.926576
C39   C     C_R   0.141017 0.000066 0.641436 0.926574
C40   C     C_R   0.858983 0.000066 0.358563 0.926576
C41   C     C_1   1.000000 0.717738 0.500000 -0.195095
C42   C     C_1   0.000000 0.282272 0.500000 -0.199451
C43   C     C_1   0.500000 0.217738 0.500000 -0.195094
C44   C     C_1   0.500000 0.782272 0.500000 -0.199451
C45   C     C_R   0.995322 0.499978 0.874811 0.864294
C46   C     C_R   0.004678 0.499978 0.125190 0.864293
C47   C     C_R   0.495322 0.999978 0.874810 0.864295
C48   C     C_R   0.504678 0.999978 0.125190 0.864294
C49   C     C_1   0.500000 0.282527 0.500000 -0.185782
C50   C     C_1   0.500000 0.717485 0.500000 -0.187603
C51   C     C_1   1.000000 0.782527 0.500000 -0.185782
C52   C     C_1   0.000000 0.217485 0.500000 -0.187602
C53   C     C_R   0.898138 0.394101 0.703720 0.171588
C54   C     C_R   0.101860 0.394099 0.296278 0.171585
C55   C     C_R   0.398144 0.894095 0.703726 0.171583
C56   C     C_R   0.601858 0.894098 0.296276 0.171585
C57   C     C_R   0.881970 0.328567 0.656098 -0.139237
C58   C     C_R   0.118028 0.328565 0.343899 -0.139236
C59   C     C_R   0.381979 0.828560 0.656108 -0.139235
C60   C     C_R   0.618025 0.828564 0.343896 -0.139235
C61   C     C_R   0.905718 0.317568 0.619924 -0.180162
C62   C     C_R   0.094279 0.317567 0.380073 -0.180162
C63   C     C_R   0.405728 0.817563 0.619934 -0.180162
C64   C     C_R   0.594276 0.817566 0.380070 -0.180162
C65   C     C_R   0.943783 0.372646 0.628038 -0.167270
C66   C     C_R   0.056215 0.372646 0.371960 -0.167268
C67   C     C_R   0.443789 0.872644 0.628044 -0.167269
C68   C     C_R   0.556214 0.872645 0.371959 -0.167269
C69   C     C_R   0.964952 0.436780 0.681146 0.072808
C70   C     C_R   0.035047 0.436779 0.318853 0.072807
C71   C     C_R   0.464954 0.936778 0.681149 0.072808
C72   C     C_R   0.535047 0.936779 0.318852 0.072808
C73   C     C_R   0.949911 0.443740 0.729558 0.053821
C74   C     C_R   0.050088 0.443740 0.270442 0.053821
C75   C     C_R   0.449914 0.943738 0.729560 0.053819
C76   C     C_R   0.550087 0.943739 0.270441 0.053820
C77   C     C_R   0.987109 0.500357 0.800009 -0.123746
C78   C     C_R   0.012891 0.500357 0.199991 -0.123747
C79   C     C_R   0.487108 0.000357 0.800008 -0.123749
C80   C     C_R   0.512892 0.000357 0.199991 -0.123748
H1    H     H_    0.053824 0.598403 0.860490 0.167649
H2    H     H_    0.946177 0.598404 0.139512 0.167649
H3    H     H_    0.553818 0.098407 0.860483 0.167650
H4    H     H_    0.446179 0.098405 0.139514 0.167650
H5    H     H_    0.847105 0.287585 0.641812 0.141782
H6    H     H_    0.152892 0.287583 0.358185 0.141781
H7    H     H_    0.347117 0.787576 0.641825 0.141781
H8    H     H_    0.652888 0.787580 0.358181 0.141781
H9    H     H_    0.891186 0.267828 0.580946 0.153944
H10   H     H_    0.108811 0.267826 0.419051 0.153944
H11   H     H_    0.391198 0.767822 0.580958 0.153944
H12   H     H_    0.608807 0.767825 0.419047 0.153944
H13   H     H_    0.958236 0.363864 0.594757 0.139384
H14   H     H_    0.041762 0.363863 0.405242 0.139383
H15   H     H_    0.458242 0.863862 0.594763 0.139382
H16   H     H_    0.541760 0.863863 0.405240 0.139382
H17   H     H_    0.059461 0.596609 0.754382 0.151522
H18   H     H_    0.940541 0.596610 0.245620 0.151522
H19   H     H_    0.559454 0.096613 0.754375 0.151520
H20   H     H_    0.440543 0.096611 0.245622 0.151521
O1    O     O_R   0.892670 0.439420 0.892670 -0.632076
O2    O     O_R   0.107330 0.560580 0.107330 -0.616553
O3    O     O_R   0.107330 0.439420 0.107330 -0.632076
O4    O     O_R   0.892670 0.560580 0.892670 -0.616553
O5    O     O_R   0.392670 0.939420 0.892670 -0.632077
O6    O     O_R   0.607330 0.060580 0.107330 -0.616553
O7    O     O_R   0.607330 0.939420 0.107330 -0.632076
O8    O     O_R   0.392670 0.060580 0.892670 -0.616553
O9    O     O_R   0.999990 0.439420 0.908380 -0.622958
O10   O     O_R   0.000010 0.560580 0.091620 -0.622597
O11   O     O_R   0.000010 0.439420 0.091620 -0.622958
O12   O     O_R   0.999990 0.560580 0.908380 -0.622598
O13   O     O_R   0.499990 0.939420 0.908380 -0.622961
O14   O     O_R   0.500010 0.060580 0.091620 -0.622597
O15   O     O_R   0.500010 0.939420 0.091620 -0.622959
O16   O     O_R   0.499990 0.060580 0.908380 -0.622598
O17   O     O_R   0.060590 0.607350 0.560620 -0.618774
O18   O     O_R   0.939410 0.392650 0.439380 -0.620860
O19   O     O_R   0.939410 0.607350 0.439380 -0.618774
O20   O     O_R   0.060590 0.392650 0.560620 -0.620860
O21   O     O_R   0.560590 0.107350 0.560620 -0.618774
O22   O     O_R   0.439410 0.892650 0.439380 -0.620859
O23   O     O_R   0.439410 0.107350 0.439380 -0.618774
O24   O     O_R   0.560590 0.892650 0.560620 -0.620860
O25   O     O_R   0.060610 0.500000 0.652240 -0.620986
O26   O     O_R   0.939390 0.500000 0.347760 -0.620986
O27   O     O_R   0.560610 0.000000 0.652240 -0.620985
O28   O     O_R   0.439390 0.000000 0.347760 -0.620986
O29   O     O_R   0.939430 0.500000 0.531050 -0.618268
O30   O     O_R   0.060570 0.500000 0.468950 -0.618269
O31   O     O_R   0.439430 0.000000 0.531050 -0.618268
O32   O     O_R   0.560570 0.000000 0.468950 -0.618269
O33   O     O_R   0.500010 0.607330 0.448300 -0.620907
O34   O     O_R   0.499990 0.392670 0.551700 -0.619867
O35   O     O_R   0.499990 0.607330 0.551700 -0.620906
O36   O     O_R   0.500010 0.392670 0.448300 -0.619868
O37   O     O_R   0.000010 0.107330 0.448300 -0.620907
O38   O     O_R   0.999990 0.892670 0.551700 -0.619867
O39   O     O_R   0.999990 0.107330 0.551700 -0.620906
O40   O     O_R   0.000010 0.892670 0.448300 -0.619868
O41   O     O_R   0.607330 0.500000 0.555630 -0.626876
O42   O     O_R   0.392670 0.500000 0.444370 -0.626875
O43   O     O_R   0.107330 0.000000 0.555630 -0.626874
O44   O     O_R   0.892670 0.000000 0.444370 -0.626875
O45   O     O_R   0.607340 0.500000 0.659080 -0.615647
O46   O     O_R   0.392660 0.500000 0.340920 -0.615648
O47   O     O_R   0.107340 0.000000 0.659080 -0.615648
O48   O     O_R   0.892660 0.000000 0.340920 -0.615648
Zn1   Zn    Zn3+2 0.000000 0.419100 0.000000 0.938282
Zn2   Zn    Zn3+2 1.000000 0.580900 0.000000 0.959839
Zn3   Zn    Zn3+2 0.500000 0.919100 0.000000 0.938278
Zn4   Zn    Zn3+2 0.500000 0.080900 0.000000 0.959838
Zn5   Zn    Zn3+2 0.080920 0.500000 0.580940 0.966183
Zn6   Zn    Zn3+2 0.919080 0.500000 0.419060 0.966183
Zn7   Zn    Zn3+2 0.580920 0.000000 0.580940 0.966184
Zn8   Zn    Zn3+2 0.419080 0.000000 0.419060 0.966184
Zn9   Zn    Zn3+2 0.500000 0.500000 0.430940 0.964166
Zn10  Zn    Zn3+2 0.500000 0.500000 0.569060 0.964166
Zn11  Zn    Zn3+2 0.000000 0.000000 0.430940 0.964167
Zn12  Zn    Zn3+2 0.000000 0.000000 0.569060 0.964167
C81   C     C_3   0.850577 0.413330 0.710599 -0.390378
C82   C     C_3   0.769157 0.413964 0.611406 -0.869308
H21   H     H_    0.759343 0.450883 0.561540 0.267358
H22   H     H_    0.749394 0.358137 0.579991 0.254239
H23   H     H_    0.736687 0.434126 0.618331 0.264653
H24   H     H_    0.860100 0.372997 0.757742 0.230225
H25   H     H_    0.862441 0.469012 0.739727 0.197133
C83   C     C_3   0.149422 0.413327 0.289400 -0.390371
C84   C     C_3   0.230843 0.413959 0.388593 -0.869303
H26   H     H_    0.240658 0.450877 0.438461 0.267357
H27   H     H_    0.250605 0.358131 0.420005 0.254238
H28   H     H_    0.263313 0.434122 0.381667 0.264652
H29   H     H_    0.139897 0.372995 0.242255 0.230223
H30   H     H_    0.137559 0.469010 0.260273 0.197132
C85   C     C_3   0.350582 0.913320 0.710605 -0.390363
C86   C     C_3   0.269160 0.913945 0.611414 -0.869302
H31   H     H_    0.259340 0.950861 0.561541 0.267357
H32   H     H_    0.249402 0.858115 0.580006 0.254236
H33   H     H_    0.236690 0.934106 0.618340 0.264650
H34   H     H_    0.360112 0.872989 0.757755 0.230225
H35   H     H_    0.362441 0.969004 0.739727 0.197131
C87   C     C_3   0.649420 0.913325 0.289398 -0.390370
C88   C     C_3   0.730841 0.913953 0.388590 -0.869305
H36   H     H_    0.740658 0.950870 0.438460 0.267358
H37   H     H_    0.750601 0.858125 0.420000 0.254237
H38   H     H_    0.763311 0.934116 0.381664 0.264651
H39   H     H_    0.639894 0.872993 0.242251 0.230225
H40   H     H_    0.637559 0.969008 0.260273 0.197132

loop_
_geom_bond_atom_site_label_1
_geom_bond_atom_site_label_2
_ccdc_geom_bond_type
C58   C62   A    
C7    H3    S    
C30   O26   A    
C56   C76   A    
C55   C59   A    
C2    C18   S    
C14   C70   A    
C84   H26   S    
O13   Zn3   S    
C19   C23   T    
C16   C72   A    
C31   O27   A    
C72   C76   A    
C81   C82   S    
C27   O21   A    
C45   O12   A    
O46   Zn9   S    
C3    O5    A    
C83   H30   S    
C5    C77   A    
C68   H16   S    
O3    Zn1   S    
C37   O41   A    
C6    H2    S    
C64   C68   A    
C13   C29   S    
O31   Zn8   S    
O42   Zn10  S    
C29   O25   A    
C88   H37   S    
O40   Zn11  S    
O29   Zn6   S    
C45   O9    A    
C6    C78   A    
C34   O34   A    
C39   O47   A    
C22   C38   S    
O11   Zn1   S    
C27   O23   A    
O32   Zn7   S    
C11   H19   S    
O4    Zn2   S    
C57   C61   A    
C10   H18   S    
C13   C69   A    
C9    C13   A    
C87   C88   S    
C38   O46   A    
C31   O31   A    
C35   O39   A    
O8    Zn4   S    
C48   O14   A    
C11   C15   A    
C86   H33   S    
C29   O29   A    
C12   C16   A    
C61   H9    S    
C70   C74   A    
C3    C19   S    
O14   Zn4   S    
O44   Zn12  S    
C67   C71   A    
C81   H24   S    
C8    C12   A    
C85   H35   S    
C55   C75   A    
C65   H13   S    
O35   Zn10  S    
C54   C74   A    
C46   O11   A    
C67   H15   S    
C38   O42   A    
C63   H11   S    
C83   H29   S    
C14   C30   S    
O47   Zn12  S    
C25   O19   A    
O25   Zn5   S    
C7    C11   A    
C82   H22   S    
O23   Zn8   S    
C60   H8    S    
C47   O16   A    
O5    Zn3   S    
C4    O7    A    
C63   C67   A    
O6    Zn4   S    
O37   Zn11  S    
C76   C80   A    
C62   C66   A    
C10   C14   A    
C88   H38   S    
C25   C41   S    
C46   C78   S    
C40   O48   A    
C43   C49   T    
C33   C50   S    
C30   O30   A    
C48   C80   S    
C4    O6    A    
C15   C31   S    
C28   C44   S    
C17   C21   T    
C56   C60   A    
C25   O17   A    
O48   Zn11  S    
O9    Zn1   S    
C88   H36   S    
C5    C9    A    
C58   H6    S    
C61   C65   A    
C82   H23   S    
C5    H1    S    
C33   O35   A    
C85   C86   S    
C34   O36   A    
C68   C72   A    
C87   H40   S    
C69   C73   A    
C36   O40   A    
C1    O4    A    
C55   C85   S    
C81   H25   S    
C36   C51   S    
O2    Zn2   S    
C48   O15   A    
O36   Zn9   S    
O26   Zn6   S    
O41   Zn9   S    
C83   C84   S    
O34   Zn10  S    
C39   O43   A    
O39   Zn12  S    
O19   Zn6   S    
C46   O10   A    
O17   Zn5   S    
C84   H28   S    
O12   Zn2   S    
C75   C79   A    
C64   H12   S    
O27   Zn7   S    
C1    O1    A    
O16   Zn4   S    
C26   C42   S    
C7    C79   A    
C82   H21   S    
C54   C58   A    
C28   O22   A    
C44   C50   T    
C47   O13   A    
C27   C43   S    
C86   H31   S    
C34   C49   S    
C9    H17   S    
O21   Zn7   S    
C32   O32   A    
C8    H4    S    
O22   Zn8   S    
C33   O33   A    
C53   C73   A    
C26   O18   A    
C26   O20   A    
O10   Zn2   S    
C53   C57   A    
C6    C10   A    
C28   O24   A    
O43   Zn11  S    
C85   H34   S    
C41   C51   T    
C3    O8    A    
C16   C32   S    
C15   C71   A    
C59   C63   A    
C40   O44   A    
C66   H14   S    
C60   C64   A    
C32   O28   A    
C18   C22   T    
O7    Zn3   S    
C47   C79   S    
C35   O37   A    
C71   C75   A    
O45   Zn10  S    
C53   C81   S    
C66   C70   A    
C56   C87   S    
C2    O3    A    
C65   C69   A    
C62   H10   S    
O1    Zn1   S    
O20   Zn5   S    
C24   C40   S    
C57   H5    S    
O18   Zn6   S    
O30   Zn5   S    
O33   Zn9   S    
C87   H39   S    
C20   C24   T    
C59   H7    S    
C12   H20   S    
O28   Zn8   S    
C4    C20   S    
C54   C83   S    
O38   Zn12  S    
C21   C37   S    
C1    C17   S    
C73   C77   A    
C74   C78   A    
O24   Zn7   S    
O15   Zn3   S    
C35   C52   S    
C8    C80   A    
C2    O2    A    
C45   C77   S    
C37   O45   A    
C36   O38   A    
C23   C39   S    
C42   C52   T    
C86   H32   S    
C84   H27   S    
