data_mof_unit_40258.cif
_audit_creation_date              2012-12-11T15:15:38-0500
_audit_creation_method            fapswitch 2.2
_symmetry_space_group_name_H-M    P1
_symmetry_Int_Tables_number       1
_space_group_crystal_system       triclinic
_cell_length_a                    18.84185
_cell_length_b                    18.815891
_cell_length_c                    20.424622
_cell_angle_alpha                 107.030024
_cell_angle_beta                  106.607717
_cell_angle_gamma                 110.955709
_cell_volume                      5814.29604679

loop_
_atom_site_label
_atom_site_type_symbol
_atom_type_description
_atom_site_fract_x
_atom_site_fract_y
_atom_site_fract_z
_atom_type_partial_charge
C1    C     C_R   0.044896 0.088731 0.345100 0.036246
C2    C     C_R   0.238656 0.074206 0.495269 -0.144080
C3    C     C_R   0.160767 0.184795 0.718446 -0.124018
C4    C     C_R   0.754768 0.930231 0.455012 -0.134498
C5    C     C_R   0.051300 0.804073 0.479604 -0.132387
C6    C     C_R   0.243177 0.209638 0.726850 0.038873
C7    C     C_R   0.035598 0.779021 0.533915 0.074633
C8    C     C_R   0.242839 0.005478 0.451136 0.084985
C9    C     C_R   0.936858 0.977958 0.712932 0.056886
C10   C     C_R   0.134016 0.718922 0.551626 -0.258133
C11   C     C_R   0.075508 0.738416 0.571565 0.115765
C12   C     C_R   0.746680 0.002866 0.464756 0.074539
C13   C     C_R   0.047818 0.709807 0.620510 -0.257749
C14   C     C_R   0.065453 0.649807 0.637621 0.141063
C15   C     C_R   0.113921 0.620816 0.607624 0.026378
C16   C     C_R   0.849133 0.774262 0.293881 -0.142927
C17   C     C_R   0.152123 0.658846 0.568037 0.141214
C18   C     C_R   0.027811 0.611763 0.677044 -0.205649
C19   C     C_R   0.030493 0.539465 0.679488 -0.209655
C20   C     C_R   0.070814 0.504867 0.642509 0.142191
C21   C     C_R   0.116524 0.548091 0.609993 0.026867
C22   C     C_R   0.157098 0.513666 0.572565 0.143955
C23   C     C_R   0.773679 0.723357 0.292071 0.045089
C24   C     C_R   0.202539 0.557128 0.540479 -0.209280
C25   C     C_R   0.200167 0.629631 0.538325 -0.207164
C26   C     C_R   0.058870 0.423864 0.630657 -0.261117
C27   C     C_R   0.089789 0.384787 0.584719 0.115917
C28   C     C_R   0.002804 0.237239 0.570995 -0.147075
C29   C     C_R   0.144247 0.432468 0.560947 -0.264488
C30   C     C_R   0.300072 0.932499 0.375407 -0.263182
C31   C     C_R   0.306259 0.008323 0.421985 0.114526
C32   C     C_R   0.377058 0.086144 0.445836 -0.265359
C33   C     C_R   0.446114 0.087703 0.432779 0.143751
C34   C     C_R   0.057271 0.292488 0.554097 0.069368
C35   C     C_R   0.443323 0.010499 0.393977 0.026858
C36   C     C_R   0.368584 0.932944 0.362026 0.143302
C37   C     C_R   0.520702 0.164565 0.464227 -0.209738
C38   C     C_R   0.594580 0.164242 0.464271 -0.206089
C39   C     C_R   0.594255 0.087035 0.433102 0.140869
C40   C     C_R   0.771027 0.770305 0.356484 -0.145917
C41   C     C_R   0.517594 0.010151 0.394190 0.026103
C42   C     C_R   0.516787 0.932232 0.362764 0.142551
C43   C     C_R   0.440269 0.856070 0.323965 -0.207797
C44   C     C_R   0.366325 0.856426 0.323601 -0.209475
C45   C     C_R   0.239386 0.190999 0.654196 -0.130013
C46   C     C_R   0.670030 0.084722 0.447702 -0.258407
C47   C     C_R   0.669740 0.006474 0.426985 0.115493
C48   C     C_R   0.593199 0.931096 0.378186 -0.260565
C49   C     C_R   0.318259 0.242814 0.798449 0.144765
C50   C     C_R   0.314465 0.270580 0.868447 -0.189940
C51   C     C_R   0.385194 0.303915 0.936383 -0.153563
C52   C     C_R   0.083072 0.245576 0.510224 -0.119913
C53   C     C_R   0.461705 0.310172 0.936053 0.228498
C54   C     C_R   0.465272 0.280881 0.866212 -0.190046
C55   C     C_R   0.394089 0.247012 0.797911 -0.171208
C56   C     C_R   0.973033 0.797291 0.543971 -0.128107
C57   C     C_R   0.691913 0.497615 0.151209 -0.161327
C58   C     C_R   0.746652 0.582900 0.201644 -0.189384
C59   C     C_R   0.637090 0.591021 0.237990 -0.179522
C60   C     C_R   0.582519 0.505621 0.187748 -0.183568
C61   C     C_R   0.608303 0.459469 0.141603 0.230896
C62   C     C_2   0.541246 0.360420 0.006924 -0.221091
C63   C     C_2   0.542833 0.377807 0.076181 -0.233200
C64   C     C_R   0.824462 0.071457 0.519699 -0.131354
C65   C     C_R   0.718780 0.631283 0.243548 0.143571
C66   C     C_R   0.951186 0.028831 0.203853 0.156232
C67   C     C_R   0.169223 0.934014 0.430845 -0.149535
C68   C     C_R   0.862762 0.980002 0.163876 -0.182931
C69   C     C_R   0.819744 0.983055 0.097698 -0.180004
C70   C     C_R   0.865156 0.034345 0.070725 0.226516
C71   C     C_R   0.952705 0.087221 0.113310 -0.178103
C72   C     C_R   0.995702 0.084172 0.179430 -0.193682
C73   C     C_R   0.914721 0.030272 0.895042 -0.197048
C74   C     C_R   0.946873 0.035277 0.842433 -0.183655
C75   C     C_R   0.819515 0.907450 0.743966 -0.193340
C76   C     C_R   0.976328 0.949166 0.280917 0.033999
C77   C     C_R   0.786310 0.901997 0.796462 0.031079
C78   C     C_R   0.984291 0.051861 0.710357 -0.141764
C79   C     C_R   0.834803 0.963457 0.873292 0.151789
C80   C     C_2   0.827061 0.023186 0.992581 -0.293156
C81   C     C_2   0.810409 0.953348 0.933903 -0.004581
C82   C     C_R   0.900455 0.973082 0.767040 0.114810
C83   C     C_R   0.995224 0.023049 0.272271 -0.032463
C84   C     C_R   0.914364 0.911622 0.645700 -0.144167
H1    H     H_    0.945442 0.786841 0.582004 0.095608
H2    H     H_    0.991509 0.634340 0.701396 0.129935
H3    H     H_    0.707361 0.865455 0.416385 0.095319
H4    H     H_    0.996295 0.507519 0.705769 0.128351
H5    H     H_    0.019280 0.389318 0.651832 0.116202
H6    H     H_    0.170845 0.404508 0.527493 0.116658
H7    H     H_    0.235180 0.532022 0.512675 0.128360
H8    H     H_    0.230940 0.659214 0.508825 0.129551
H9    H     H_    0.245044 0.872051 0.354279 0.115928
H10   H     H_    0.381928 0.145431 0.479652 0.116547
H11   H     H_    0.523239 0.224427 0.493047 0.128410
H12   H     H_    0.144533 0.870838 0.387522 0.085472
H13   H     H_    0.652956 0.223848 0.493306 0.129974
H14   H     H_    0.728640 0.143806 0.481655 0.118997
H15   H     H_    0.879066 0.751345 0.261676 0.083633
H16   H     H_    0.592019 0.870545 0.358193 0.117420
H17   H     H_    0.438648 0.795893 0.298532 0.128107
H18   H     H_    0.308797 0.796511 0.297705 0.127700
H19   H     H_    0.257849 0.269636 0.871551 0.109957
H20   H     H_    0.810021 0.610635 0.206306 0.111016
H21   H     H_    0.613827 0.626281 0.269755 0.110207
H22   H     H_    0.486685 0.342463 0.081496 0.131024
H23   H     H_    0.999414 0.115058 0.747028 0.090632
H24   H     H_    0.523952 0.286469 0.864632 0.115720
H25   H     H_    0.714014 0.462540 0.117704 0.113546
H26   H     H_    0.399158 0.225293 0.745075 0.113760
H27   H     H_    0.981097 0.253942 0.613799 0.088150
H28   H     H_    0.597630 0.395386 0.001671 0.132594
H29   H     H_    0.380421 0.329156 0.988823 0.109436
H30   H     H_    0.518141 0.477255 0.181052 0.109956
H31   H     H_    0.827184 0.938745 0.183414 0.124138
H32   H     H_    0.009445 0.086305 0.861360 0.117472
H33   H     H_    0.781730 0.860259 0.685163 0.120157
H34   H     H_    0.866921 0.846380 0.623489 0.088098
H35   H     H_    0.988521 0.126843 0.092738 0.109485
H36   H     H_    0.954450 0.076969 0.953825 0.121270
H37   H     H_    0.063775 0.122187 0.209393 0.115827
H38   H     H_    0.729723 0.745244 0.380783 0.090166
H39   H     H_    0.841864 0.081440 0.986150 0.135232
H40   H     H_    0.751991 0.942706 0.065809 0.121840
H41   H     H_    0.137882 0.271683 0.500337 0.100847
H42   H     H_    0.841981 0.137778 0.541272 0.096149
H43   H     H_    0.291177 0.200924 0.638824 0.093547
H44   H     H_    0.125151 0.190804 0.341492 0.087184
H45   H     H_    0.278373 0.140246 0.511475 0.086642
H46   H     H_    0.034162 0.189665 0.339259 0.116547
H47   H     H_    0.735601 0.853490 0.945491 0.104549
H48   H     H_    0.840494 0.882234 0.984132 0.131294
H49   H     H_    0.667500 0.860050 0.788050 0.110358
H50   H     H_    0.707840 0.793407 0.794284 0.114066
H51   H     H_    0.882826 0.834323 0.198228 0.103369
H52   H     H_    0.977484 0.837819 0.241900 0.096001
H53   H     H_    0.139367 0.187842 0.762332 0.091266
H54   H     H_    0.096357 0.800246 0.457964 0.095806
H55   H     H_    0.159655 0.743956 0.517358 0.118736
H56   H     H_    0.006204 0.727622 0.639769 0.119058
N1    N     N_R   0.052580 0.056040 0.395500 -0.052656
N2    N     N_R   0.890210 0.849400 0.355780 -0.039524
N3    N     N_R   0.997110 0.161140 0.539580 -0.040469
N4    N     N_R   0.841950 0.845400 0.395490 -0.036883
N5    N     N_R   0.045360 0.165140 0.499870 -0.038108
N6    N     N_R   0.877490 0.041510 0.539580 -0.040891
N7    N     N_R   0.009820 0.969030 0.355780 -0.062186
N8    N     N_R   0.158050 0.154600 0.604510 -0.039206
N9    N     N_3   0.081962 0.177057 0.364528 -0.223637
N10   N     N_3   0.790832 0.874033 0.938084 -0.219115
N11   N     N_3   0.703242 0.834300 0.770080 -0.220761
N12   N     N_R   0.954640 0.834860 0.500130 -0.039569
N13   N     N_3   0.948398 0.869321 0.220451 -0.214742
N14   N     N_R   0.122510 0.958490 0.460420 -0.038547
N15   N     N_R   0.990180 0.030970 0.644220 -0.036583
N16   N     N_R   0.947420 0.943960 0.604500 -0.036764
N17   N     N_R   0.165270 0.045500 0.500140 -0.037936
N18   N     N_R   0.109790 0.150600 0.644220 -0.038822
N19   N     N_R   0.002890 0.838860 0.460420 -0.040395
N20   N     N_R   0.834730 0.954500 0.499860 -0.040920
Ni1   Ni    Ni4+2 0.104370 0.104380 0.500010 0.211740
Ni2   Ni    Ni4+2 0.895630 0.895620 0.499990 0.209840
Ni3   Ni    Ni4+2 0.006300 0.904810 0.408930 0.200831
Ni4   Ni    Ni4+2 0.993700 0.095190 0.591070 0.209872

loop_
_geom_bond_atom_site_label_1
_geom_bond_atom_site_label_2
_ccdc_geom_bond_type
C66   C68   A    
N1    Ni1   S    
C52   N5    A    
C6    C45   A    
C72   H37   S    
C27   C29   A    
C45   N8    A    
H48   N10   S    
C41   C42   A    
C14   C18   A    
C32   H10   S    
C35   C36   A    
C75   H33   S    
C3    C6    A    
C77   N11   S    
C56   H1    S    
C5    H54   S    
C39   C41   A    
C4    H3    S    
C4    N20   A    
C53   C54   A    
C26   H5    S    
C7    C11   S    
C26   C27   A    
C59   H21   S    
C20   C26   A    
C67   N14   A    
N8    Ni1   S    
C22   C24   A    
C22   C29   A    
C30   H9    S    
C38   H13   S    
C38   C39   A    
C12   C64   A    
C78   N15   A    
N6    N20   A    
C10   C17   A    
C81   N10   S    
C76   N13   S    
C11   C13   A    
C2    H45   S    
C37   H11   S    
C15   C17   A    
C18   C19   A    
C73   C74   A    
C61   C63   S    
C66   C83   S    
C46   C47   A    
C60   H30   S    
C57   H25   S    
C47   C48   A    
C76   N7    A    
C68   C69   A    
C5    N19   A    
H49   N11   S    
C3    N18   A    
C50   H19   S    
C1    N9    S    
C70   C71   A    
C3    H53   S    
C4    C12   A    
N18   Ni4   S    
C9    C82   S    
C64   N6    A    
C46   H14   S    
N12   N19   A    
N16   Ni2   S    
C59   C60   A    
C27   C34   S    
C73   H36   S    
C13   C14   A    
C7    C56   A    
C74   C82   A    
C12   C47   S    
C30   C36   A    
C76   C83   A    
C29   H6    S    
C77   C79   A    
C28   H27   S    
C48   H16   S    
C66   C72   A    
C70   C80   S    
C13   H56   S    
N14   Ni3   S    
C24   C25   A    
N14   N17   A    
C19   H4    S    
N2    Ni3   S    
C5    C7    A    
C44   H18   S    
C42   C48   A    
C9    C84   A    
C69   H40   S    
C49   C55   A    
N6    Ni4   S    
C33   C37   A    
C78   H23   S    
C51   C53   A    
N20   Ni2   S    
H46   N9    S    
C16   N2    A    
C43   C44   A    
C43   H17   S    
C37   C38   A    
C53   C62   S    
C58   C65   A    
C31   C32   A    
C74   H32   S    
C62   C63   D    
C50   C51   A    
C73   C79   A    
C75   C82   A    
C28   N3    A    
N8    N18   A    
C63   H22   S    
C75   C77   A    
C39   C46   A    
C16   C23   A    
C64   H42   S    
C40   N4    A    
C55   H26   S    
C67   H12   S    
C18   H2    S    
N19   Ni3   S    
C36   C44   A    
C58   H20   S    
C42   C43   A    
C24   H7    S    
N17   Ni1   S    
N3    Ni4   S    
C79   C81   S    
N3    N5    A    
C54   C55   A    
C25   H8    S    
N4    Ni2   S    
C8    C31   S    
C51   H29   S    
C2    C8    A    
C80   C81   D    
C52   H41   S    
C16   H15   S    
C57   C61   A    
C71   H35   S    
N15   Ni4   S    
C1    C83   A    
C40   H38   S    
C34   C52   A    
H51   N13   S    
C54   H24   S    
C17   C25   A    
C32   C33   A    
C23   C65   S    
C19   C20   A    
C71   C72   A    
N7    Ni3   S    
C59   C65   A    
H52   N13   S    
C84   N16   A    
C57   C58   A    
C30   C31   A    
N5    Ni1   S    
C45   H43   S    
C2    N17   A    
H50   N11   S    
C33   C35   A    
N2    N4    A    
C9    C78   A    
C6    C49   S    
C69   C70   A    
C35   C41   A    
C1    N1    A    
C10   C11   A    
N1    N7    A    
C68   H31   S    
C28   C34   A    
H44   N9    S    
C15   C21   A    
C62   H28   S    
C20   C21   A    
C8    C67   A    
C84   H34   S    
C49   C50   A    
C10   H55   S    
N15   N16   A    
C14   C15   A    
C60   C61   A    
H47   N10   S    
C56   N12   A    
C21   C22   A    
N12   Ni2   S    
C23   C40   A    
C80   H39   S    
