data_mof_unit_24240.cif
_audit_creation_date              2012-12-10T18:42:30-0500
_audit_creation_method            fapswitch 2.2
_symmetry_space_group_name_H-M    P1
_symmetry_Int_Tables_number       1
_space_group_crystal_system       triclinic
_cell_length_a                    8.579909
_cell_length_b                    10.705029
_cell_length_c                    9.894158
_cell_angle_alpha                 88.891786
_cell_angle_beta                  97.9835
_cell_angle_gamma                 91.436703
_cell_volume                      899.554393856

loop_
_atom_site_label
_atom_site_type_symbol
_atom_type_description
_atom_site_fract_x
_atom_site_fract_y
_atom_site_fract_z
_atom_type_partial_charge
C1    C     C_R   0.492888 0.260244 0.500407 0.949668
C2    C     C_R   0.506804 0.739841 0.499496 0.937657
C3    C     C_R   0.201507 0.499781 0.464580 0.970049
C4    C     C_R   0.798447 0.499043 0.535460 0.970859
C5    C     C_2   0.036686 0.495922 0.445561 -0.265681
C6    C     C_2   0.963267 0.501270 0.554582 -0.303339
C7    C     C_R   0.597910 0.072686 0.427691 -0.266375
C8    C     C_R   0.400353 0.927524 0.571434 -0.271589
C9    C     C_R   0.607482 0.944728 0.424816 0.399092
C10   C     C_R   0.390097 0.055575 0.573610 0.475487
C11   C     C_R   0.506677 0.872504 0.497504 -0.233897
C12   C     C_R   0.491933 0.127684 0.501875 -0.233391
C13   C     C_R   0.627194 0.546499 0.085943 0.566668
C14   C     C_R   0.372803 0.453546 0.914046 0.566704
C15   C     C_R   0.626063 0.546409 0.941657 -0.281810
C16   C     C_R   0.373941 0.453587 0.058333 -0.293905
H1    H     H_    0.976255 0.487647 0.341992 0.203787
H2    H     H_    0.023649 0.509594 0.658141 0.203038
H3    H     H_    0.675097 0.130556 0.373408 0.213406
H4    H     H_    0.323409 0.869673 0.626002 0.206221
H5    H     H_    0.726237 0.583613 0.897342 0.163195
H6    H     H_    0.273793 0.416314 0.102635 0.162673
N1    N     N_R   0.499960 0.499970 0.857200 -0.103329
N2    N     N_R   0.500040 0.500030 0.142800 -0.106229
O1    O     O_R   0.499990 0.316750 0.614620 -0.537470
O2    O     O_R   0.500010 0.683250 0.385380 -0.538586
O3    O     O_R   0.499990 0.316780 0.385290 -0.636299
O4    O     O_R   0.500010 0.683220 0.614710 -0.635421
O5    O     O_R   0.271750 0.499990 0.587840 -0.545418
O6    O     O_R   0.728250 0.500010 0.412160 -0.536563
O7    O     O_R   0.271750 0.500010 0.358510 -0.646228
O8    O     O_R   0.728250 0.499990 0.641490 -0.649242
Zn1   Zn    Zn3+2 0.500000 0.499980 0.653120 1.053362
Zn2   Zn    Zn3+2 0.500000 0.500020 0.346880 1.056703
S1    S     S_3+6 0.748141 0.881456 0.332034 0.074198
O9    O     O_2   0.664434 0.836998 0.197554 -0.227025
O10   O     O_2   0.869952 0.978913 0.305407 -0.275805
O11   O     O_3   0.838870 0.761335 0.418598 -0.530038
H7    H     H_    0.888355 0.797035 0.506278 0.343437
S2    S     S_3+6 0.248559 0.118824 0.665549 0.056140
O12   O     O_2   0.176439 0.232447 0.593428 -0.282223
O13   O     O_2   0.120266 0.023186 0.680298 -0.317926
O14   O     O_3   0.339647 0.157186 0.821292 -0.514432
H8    H     H_    0.258200 0.147062 0.882722 0.382037
O15   O     O_3   0.755622 0.592974 0.170359 -0.671056
H9    H     H_    0.837295 0.621896 0.114420 0.328205
O16   O     O_3   0.244403 0.407109 0.829608 -0.691843
H10   H     H_    0.162007 0.379518 0.885408 0.312533

loop_
_geom_bond_atom_site_label_1
_geom_bond_atom_site_label_2
_ccdc_geom_bond_type
C14   N1    A    
C3    O7    A    
O14   H8    S    
C8    C10   A    
C7    C9    A    
C14   O16   S    
C2    O4    A    
S1    O9    D    
O8    Zn1   S    
C15   N1    A    
O7    Zn2   S    
C16   N2    A    
C4    O8    A    
O15   H9    S    
C1    O1    A    
C9    C11   A    
C3    O5    A    
C8    H4    S    
C1    C12   S    
C10   C12   A    
C8    C11   A    
C2    C11   S    
S2    O13   D    
S2    O12   D    
S1    O10   D    
O4    Zn1   S    
C7    H3    S    
C13   C15   A    
O3    Zn2   S    
C5    C6    D    
C6    H2    S    
C14   C16   A    
C7    C12   A    
C4    C6    S    
C5    H1    S    
O6    Zn2   S    
C9    S1    S    
O5    Zn1   S    
C15   H5    S    
S1    O11   S    
O11   H7    S    
C13   O15   S    
C2    O2    A    
C1    O3    A    
C10   S2    S    
C16   H6    S    
C3    C5    S    
O2    Zn2   S    
S2    O14   S    
C4    O6    A    
O16   H10   S    
C13   N2    A    
O1    Zn1   S    
N1    Zn1   S    
N2    Zn2   S    
