data_mof_unit_44163.cif
_audit_creation_date              2012-12-10T17:08:43-0500
_audit_creation_method            fapswitch 2.2
_symmetry_space_group_name_H-M    P1
_symmetry_Int_Tables_number       1
_space_group_crystal_system       triclinic
_cell_length_a                    27.71086
_cell_length_b                    11.041569
_cell_length_c                    9.906866
_cell_angle_alpha                 111.583478
_cell_angle_beta                  98.441044
_cell_angle_gamma                 92.362706
_cell_volume                      2773.16161463

loop_
_atom_site_label
_atom_site_type_symbol
_atom_type_description
_atom_site_fract_x
_atom_site_fract_y
_atom_site_fract_z
_atom_type_partial_charge
C1    C     C_R   0.496433 0.253773 0.439546 0.797165
C2    C     C_R   0.503567 0.746227 0.560454 0.797170
C3    C     C_R   0.099894 0.496059 0.474013 -0.149003
C4    C     C_R   0.900102 0.503845 0.525956 -0.149006
C5    C     C_R   0.120563 0.375327 0.428638 -0.148336
C6    C     C_R   0.879433 0.624577 0.571329 -0.148329
C7    C     C_R   0.088539 0.258019 0.360261 0.355669
C8    C     C_R   0.911458 0.741884 0.639712 0.355666
C9    C     C_R   0.129182 0.613670 0.505570 -0.125235
C10   C     C_R   0.870814 0.386236 0.494403 -0.125237
C11   C     C_R   0.354141 0.498500 0.499081 -0.174986
C12   C     C_R   0.645858 0.501478 0.500912 -0.174986
C13   C     C_R   0.970667 0.380261 0.468316 0.014361
C14   C     C_R   0.029329 0.619644 0.531659 0.014356
C15   C     C_R   0.980571 0.620822 0.560673 -0.010884
C16   C     C_R   0.019426 0.379083 0.439300 -0.010884
C17   C     C_R   0.950437 0.501431 0.516565 -0.026473
C18   C     C_R   0.049559 0.498473 0.483406 -0.026473
C19   C     C_R   0.944031 0.267662 0.470390 0.426642
C20   C     C_R   0.055966 0.732246 0.529591 0.426640
C21   C     C_R   0.894036 0.273103 0.487742 0.309713
C22   C     C_R   0.105961 0.726805 0.512237 0.309719
C23   C     C_R   0.407418 0.499601 0.500278 0.866445
C24   C     C_R   0.592582 0.500397 0.499721 0.866448
C25   C     C_R   0.037837 0.263780 0.352920 0.338805
C26   C     C_R   0.962160 0.736123 0.647056 0.338805
C27   C     C_2   0.494505 0.113175 0.403168 0.218203
C28   C     C_2   0.505496 0.886825 0.596832 0.218203
C29   C     C_2   0.500676 0.069414 0.513232 -0.151664
C30   C     C_2   0.499326 0.930586 0.486768 -0.151665
C31   C     C_2   0.504633 0.511177 0.081129 0.390389
C32   C     C_2   0.495368 0.488823 0.918871 0.390390
C33   C     C_R   0.172061 0.378405 0.442263 0.708281
C34   C     C_R   0.827936 0.621501 0.557700 0.708266
C35   C     C_R   0.180400 0.610995 0.517872 0.718626
C36   C     C_R   0.819597 0.388912 0.482101 0.718636
C37   C     C_R   0.271799 0.482641 0.365062 0.399259
C38   C     C_R   0.728199 0.517294 0.634915 0.399259
C39   C     C_R   0.322246 0.484283 0.368857 -0.205204
C40   C     C_R   0.677753 0.515687 0.631132 -0.205208
C41   C     C_R   0.334608 0.510876 0.626053 -0.183803
C42   C     C_R   0.665390 0.489078 0.373931 -0.183805
C43   C     C_R   0.283956 0.508965 0.622814 0.398192
C44   C     C_R   0.716040 0.490954 0.377159 0.398190
C45   C     C_R   0.252400 0.494932 0.492038 0.138849
C46   C     C_R   0.747597 0.504980 0.507932 0.138855
Cu1   Cu    Cu3+1 0.508480 0.521810 0.644910 1.077190
Cu2   Cu    Cu3+1 0.491520 0.478190 0.355090 1.077190
H1    H     H_    0.358522 0.521854 0.727540 0.228565
H2    H     H_    0.641475 0.478106 0.272447 0.228563
H3    H     H_    0.548939 0.624151 0.931295 0.243970
H4    H     H_    0.451061 0.375850 0.068705 0.243970
H5    H     H_    0.663632 0.525245 0.730488 0.217528
H6    H     H_    0.336368 0.474746 0.269508 0.217528
H7    H     H_    0.493049 0.861271 0.373429 0.230652
H8    H     H_    0.506953 0.138730 0.626571 0.230652
N1    N     N_R   0.200424 0.495016 0.487630 -0.458980
N2    N     N_R   0.799572 0.504891 0.512337 -0.458979
N3    N     N_2   0.478780 0.445430 0.137360 -0.283825
N4    N     N_2   0.521220 0.554570 0.862640 -0.283825
O1    O     O_R   0.504520 0.332330 0.577400 -0.565003
O2    O     O_R   0.495480 0.667670 0.422600 -0.565003
O3    O     O_R   0.490210 0.295500 0.332650 -0.523880
O4    O     O_R   0.509790 0.704500 0.667350 -0.523880
O5    O     O_R   0.437420 0.518430 0.622370 -0.530332
O6    O     O_R   0.562580 0.481570 0.377630 -0.530332
O7    O     O_R   0.423110 0.481600 0.377610 -0.584831
O8    O     O_R   0.576890 0.518400 0.622390 -0.584831
O9    O     O_2   0.194091 0.267192 0.412773 -0.405434
O10   O     O_2   0.805907 0.732713 0.587180 -0.405439
O11   O     O_2   0.789642 0.276752 0.435997 -0.413913
O12   O     O_2   0.210354 0.723155 0.563984 -0.413924
Cl1   Cl    Cl    0.515713 0.992634 0.785133 -0.474269
Cl2   Cl    Cl    0.484285 0.007365 0.214867 -0.474271
Cl3   Cl    Cl    0.447493 0.368697 0.803835 -0.576500
Cl4   Cl    Cl    0.552508 0.631301 0.196165 -0.576496
Cl5   Cl    Cl    0.260638 0.524507 0.783535 -0.437401
Cl6   Cl    Cl    0.739357 0.475380 0.216426 -0.437400
Cl7   Cl    Cl    0.109098 0.104554 0.266002 -0.337153
Cl8   Cl    Cl    0.890898 0.895347 0.733980 -0.337157
Cl9   Cl    Cl    0.766661 0.534224 0.800170 -0.431500
Cl10  Cl    Cl    0.233338 0.465699 0.199803 -0.431499
Cl11  Cl    Cl    0.864235 0.154146 0.537197 -0.406434
Cl12  Cl    Cl    0.135762 0.845769 0.462793 -0.406431
O13   O     O_3   0.970770 0.169328 0.490714 -0.598289
C47   C     C_3   0.949264 0.041276 0.398636 -0.048588
H9    H     H_    0.920331 0.037413 0.305764 0.194622
H10   H     H_    0.934566 0.992198 0.465904 0.217547
H11   H     H_    0.978401 0.982733 0.350025 0.220217
O14   O     O_3   0.029228 0.830585 0.509278 -0.598293
C48   C     C_3   0.050735 0.958634 0.601367 -0.048591
H12   H     H_    0.065433 0.007720 0.534108 0.217546
H13   H     H_    0.079668 0.962489 0.694237 0.194622
H14   H     H_    0.021598 0.017175 0.649985 0.220213
Cl13  Cl    Cl    0.998671 0.146206 0.198832 -0.458956
Cl14  Cl    Cl    0.001325 0.853688 0.801153 -0.458956

loop_
_geom_bond_atom_site_label_1
_geom_bond_atom_site_label_2
_ccdc_geom_bond_type
C27   C29   D    
C8    C26   A    
C14   C18   A    
C32   Cl3   S    
O14   C48   S    
O13   C47   S    
C45   N1    S    
C21   Cl11  S    
C19   C21   A    
C36   N2    A    
C34   N2    A    
C9    C35   A    
C9    C22   A    
C39   H6    S    
C23   O7    A    
C3    C18   A    
C31   N3    D    
C11   C23   S    
C12   C42   A    
Cu1   N4    S    
C31   C32   S    
C44   C46   A    
C5    C33   A    
C27   Cl2   S    
C34   O10   S    
C36   O11   S    
C33   O9    S    
C1    C27   S    
C46   N2    S    
C41   C43   A    
C42   C44   A    
C19   O13   S    
C28   Cl1   S    
C1    O3    A    
C41   H1    S    
C2    O4    A    
C10   C21   A    
C26   Cl14  S    
C13   C19   A    
C14   C20   A    
C4    C6    A    
Cu1   O4    S    
C5    C7    A    
C47   H9    S    
C15   C26   A    
C6    C8    A    
C3    C5    A    
C20   O14   S    
C6    C34   A    
C22   Cl12  S    
C12   C40   A    
C29   C30   S    
C3    C9    A    
H4    N3    S    
C48   H13   S    
Cu2   O2    S    
Cu1   Cu2   S    
C11   C39   A    
C43   C45   A    
C42   H2    S    
C4    C17   A    
C20   C22   A    
C35   O12   S    
C25   Cl13  S    
C38   Cl9   S    
C37   Cl10  S    
C32   N4    D    
C37   C45   A    
Cu1   O8    S    
C48   H12   S    
Cu2   N3    S    
C7    Cl7   S    
C16   C25   A    
C15   C17   A    
C33   N1    A    
Cu2   O3    S    
C47   H11   S    
C1    O1    A    
Cu1   O1    S    
C10   C36   A    
C29   H8    S    
C24   O6    A    
C43   Cl5   S    
C30   H7    S    
C12   C24   S    
C7    C25   A    
C13   C17   A    
C35   N1    A    
C23   O5    A    
C44   Cl6   S    
C37   C39   A    
C48   H14   S    
C38   C40   A    
C31   Cl4   S    
C28   C30   D    
C11   C41   A    
C47   H10   S    
Cu2   O7    S    
C38   C46   A    
C24   O8    A    
C16   C18   A    
C40   H5    S    
C13   C16   A    
C8    Cl8   S    
C14   C15   A    
C2    C28   S    
H3    N4    S    
Cu2   O6    S    
C4    C10   A    
Cu1   O5    S    
C2    O2    A    
