data_mof_unit_18887.cif
_audit_creation_date              2012-12-10T17:07:41-0500
_audit_creation_method            fapswitch 2.2
_symmetry_space_group_name_H-M    P1
_symmetry_Int_Tables_number       1
_space_group_crystal_system       triclinic
_cell_length_a                    19.19517
_cell_length_b                    11.004838
_cell_length_c                    9.920021
_cell_angle_alpha                 112.279887
_cell_angle_beta                  98.023008
_cell_angle_gamma                 92.781651
_cell_volume                      1908.2750621

loop_
_atom_site_label
_atom_site_type_symbol
_atom_type_description
_atom_site_fract_x
_atom_site_fract_y
_atom_site_fract_z
_atom_type_partial_charge
C1    C     C_R   0.495308 0.253133 0.438369 0.821356
C2    C     C_R   0.503563 0.746744 0.561702 0.863831
C3    C     C_2   0.487587 0.110687 0.399245 0.112686
C4    C     C_2   0.509789 0.889245 0.601202 0.077480
C5    C     C_2   0.514202 0.062717 0.499375 0.177574
C6    C     C_2   0.483156 0.936529 0.500614 0.176670
C7    C     C_2   0.506910 0.511648 0.081045 0.309526
C8    C     C_2   0.492740 0.488875 0.919009 0.314105
C9    C     C_R   0.366988 0.503073 0.501318 0.901261
C10   C     C_R   0.632428 0.499267 0.498972 0.968768
C11   C     C_R   0.266201 0.568232 0.640013 0.189663
C12   C     C_R   0.732284 0.377728 0.402105 0.173156
C13   C     C_R   0.195343 0.544352 0.654641 0.326533
C14   C     C_R   0.805333 0.370194 0.401502 0.268431
C15   C     C_R   0.147701 0.453883 0.531544 -0.281032
C16   C     C_R   0.853972 0.470038 0.514283 -0.287014
C17   C     C_R   0.170860 0.385395 0.396625 0.267500
C18   C     C_R   0.829955 0.581350 0.618389 0.289083
C19   C     C_R   0.238807 0.423524 0.376911 0.293486
C20   C     C_R   0.757601 0.600214 0.597426 0.280717
C21   C     C_R   0.289484 0.501164 0.504126 -0.310157
C22   C     C_R   0.708617 0.493758 0.496944 -0.304049
C23   C     C_R   0.930300 0.463676 0.519246 0.546632
C24   C     C_R   0.071310 0.456466 0.529758 0.566129
Cu1   Cu    Cu3+1 0.512140 0.521810 0.644910 1.125682
Cu2   Cu    Cu3+1 0.487860 0.478190 0.355090 1.131497
H1    H     H_    0.571164 0.624080 0.930212 0.250676
H2    H     H_    0.429385 0.374844 0.069401 0.247026
N1    N     N_R   0.032264 0.366648 0.559888 -0.088493
N2    N     N_R   0.969533 0.553867 0.490505 -0.159081
N3    N     N_R   0.962683 0.370123 0.554565 -0.097793
N4    N     N_R   0.038874 0.550105 0.495374 -0.154672
N5    N     N_2   0.469620 0.445420 0.137370 -0.281390
N6    N     N_2   0.530380 0.554580 0.862630 -0.269356
O1    O     O_R   0.506480 0.332340 0.577400 -0.544572
O2    O     O_R   0.493520 0.667660 0.422600 -0.538456
O3    O     O_R   0.485980 0.295500 0.332650 -0.533755
O4    O     O_R   0.514020 0.704500 0.667350 -0.526035
O5    O     O_R   0.410390 0.518410 0.622410 -0.538855
O6    O     O_R   0.589610 0.481590 0.377590 -0.524938
O7    O     O_R   0.389900 0.481570 0.377660 -0.518571
O8    O     O_R   0.610100 0.518430 0.622340 -0.546267
Br1   Br    Br    0.328249 0.711699 0.797021 -0.236903
Br2   Br    Br    0.663956 0.226848 0.281215 -0.255885
S1    S     S_3+6 0.167199 0.628371 0.827792 0.130522
O9    O     O_2   0.098334 0.563993 0.837583 -0.209501
O10   O     O_2   0.222177 0.629452 0.952115 -0.185640
O11   O     O_3   0.157527 0.784906 0.847471 -0.446711
H3    H     H_    0.144407 0.827618 0.946575 0.398673
S2    S     S_3+6 0.835049 0.234784 0.261884 0.134534
O12   O     O_2   0.838468 0.121463 0.311021 -0.151570
O13   O     O_2   0.784715 0.190988 0.117603 -0.164845
O14   O     O_3   0.915591 0.273360 0.231364 -0.451859
H4    H     H_    0.908675 0.339676 0.186938 0.372204
S3    S     S_3+6 0.115492 0.247198 0.257299 0.130600
O15   O     O_2   0.076567 0.171443 0.327223 -0.206005
O16   O     O_2   0.062590 0.296161 0.168585 -0.197351
O17   O     O_3   0.163609 0.143223 0.144781 -0.427714
H5    H     H_    0.128430 0.080840 0.061288 0.396764
S4    S     S_3+6 0.889871 0.689428 0.779440 0.127727
O18   O     O_2   0.944601 0.613880 0.826790 -0.224705
O19   O     O_2   0.926485 0.794833 0.744136 -0.189044
O20   O     O_3   0.846933 0.760216 0.921627 -0.415208
H6    H     H_    0.882294 0.828870 0.998416 0.413271
S5    S     S_3+6 0.254863 0.397759 0.194820 0.133097
O21   O     O_2   0.298929 0.284837 0.143609 -0.229492
O22   O     O_2   0.187277 0.367983 0.085929 -0.147326
O23   O     O_3   0.298067 0.535646 0.197427 -0.450085
H7    H     H_    0.314898 0.508234 0.101338 0.390332
S6    S     S_3+6 0.727808 0.758522 0.682231 0.126274
O24   O     O_2   0.699140 0.766463 0.818426 -0.185269
O25   O     O_2   0.786634 0.867948 0.723164 -0.156171
O26   O     O_3   0.663174 0.779465 0.562672 -0.543646
H8    H     H_    0.662820 0.876315 0.595703 0.404134
Br3   Br    Br    0.390332 0.853073 0.387520 -0.294360
Br4   Br    Br    0.607011 0.145615 0.613589 -0.347200
Br5   Br    Br    0.544957 0.000724 0.806156 -0.242761
Br6   Br    Br    0.449812 0.000228 0.195277 -0.233376
Br7   Br    Br    0.415580 0.357362 0.795528 -0.398512
Br8   Br    Br    0.583538 0.644101 0.204620 -0.341972

loop_
_geom_bond_atom_site_label_1
_geom_bond_atom_site_label_2
_ccdc_geom_bond_type
N2    N4    A    
S3    O15   D    
C10   O8    A    
O26   H8    S    
Cu2   O6    S    
C7    C8    S    
O14   H4    S    
C10   C22   S    
S4    O20   S    
C10   O6    A    
C19   C21   A    
C5    C6    S    
C12   C22   A    
C9    O5    A    
S4    O19   D    
C24   N1    A    
O23   H7    S    
S5    O22   D    
C8    Br7   S    
S2    O13   D    
C11   Br1   S    
S6    O24   D    
C17   S3    S    
C1    O3    A    
Cu1   N6    S    
C18   S4    S    
C7    N5    D    
C20   S6    S    
S1    O10   D    
H1    N6    S    
S2    O14   S    
C23   N2    A    
C6    Br3   S    
C4    C6    D    
Cu1   Cu2   S    
S1    O9    D    
C11   C21   A    
S4    O18   D    
C1    C3    S    
C23   N3    A    
C2    C4    S    
C24   N4    A    
Cu1   O4    S    
C2    O4    A    
Cu2   N5    S    
S5    O23   S    
S6    O26   S    
S2    O12   D    
C8    N6    D    
Cu1   O1    S    
Cu2   O2    S    
O11   H3    S    
C12   C14   A    
H2    N5    S    
C16   C23   S    
S3    O16   D    
C14   C16   A    
C1    O1    A    
S1    O11   S    
C2    O2    A    
C15   C17   A    
C15   C24   S    
C20   C22   A    
C3    C5    D    
Cu1   O8    S    
Cu2   O3    S    
C9    O7    A    
C5    Br4   S    
C13   C15   A    
O17   H5    S    
C4    Br5   S    
N1    N3    A    
Cu1   O5    S    
C13   S1    S    
C11   C13   A    
C9    C21   S    
C14   S2    S    
C17   C19   A    
C19   S5    S    
C18   C20   A    
O20   H6    S    
C16   C18   A    
S5    O21   D    
S3    O17   S    
C12   Br2   S    
S6    O25   D    
C3    Br6   S    
Cu2   O7    S    
C7    Br8   S    
