data_mof_unit_10240.cif
_audit_creation_date              2012-10-26T19:04:40-0400
_audit_creation_method            fapswitch 2.2
_symmetry_space_group_name_H-M    P1
_symmetry_Int_Tables_number       1
_space_group_crystal_system       triclinic
_cell_length_a                    9.601979
_cell_length_b                    10.774531
_cell_length_c                    13.407273
_cell_angle_alpha                 92.775476
_cell_angle_beta                  72.648042
_cell_angle_gamma                 90.085487
_cell_volume                      1322.27408159

loop_
_atom_site_label
_atom_site_type_symbol
_atom_type_description
_atom_site_fract_x
_atom_site_fract_y
_atom_site_fract_z
_atom_type_partial_charge
C1    C     C_R   0.498498 0.737441 0.503731 0.543581
C2    C     C_R   0.373207 0.497375 0.815016 -0.008301
C3    C     C_R   0.284082 0.880616 0.671071 -0.108071
C4    C     C_R   0.421658 0.496923 0.699971 0.522726
C5    C     C_R   0.180928 0.950177 0.749002 -0.123345
C6    C     C_R   0.180695 0.079269 0.748793 -0.120593
C7    C     C_R   0.283648 0.139605 0.670652 -0.103788
C8    C     C_R   0.387874 0.070976 0.589736 0.027840
C9    C     C_R   0.388049 0.939690 0.589951 0.026977
C10   C     C_R   0.495778 0.871681 0.510894 0.001730
C11   C     C_R   0.604469 0.932245 0.436694 -0.145772
C12   C     C_R   0.423901 0.477991 0.982463 -0.004583
C13   C     C_R   0.604306 0.060250 0.436457 -0.153267
C14   C     C_R   0.495502 0.129590 0.510460 0.004545
C15   C     C_R   0.911628 0.330432 0.364580 -0.065588
C16   C     C_R   0.498586 0.262928 0.503183 0.518679
C17   C     C_R   0.008964 0.242714 0.302266 -0.167752
C18   C     C_R   0.151598 0.239940 0.304291 -0.175768
C19   C     C_R   0.198282 0.326336 0.367281 -0.091385
C20   C     C_R   0.101658 0.414951 0.434648 0.171267
C21   C     C_R   0.952428 0.415935 0.433978 0.183628
C22   C     C_R   0.900004 0.579940 0.563073 0.006896
C23   C     C_R   0.462099 0.450885 0.872676 0.015637
C24   C     C_R   0.047966 0.580117 0.562868 0.003534
C25   C     C_R   0.578256 0.498154 0.299912 0.537466
C26   C     C_R   0.768037 0.365688 0.029595 -0.134939
C27   C     C_R   0.621577 0.477759 0.185946 -0.000882
C28   C     C_R   0.238987 0.554358 0.868008 -0.170308
C29   C     C_R   0.190356 0.562776 0.976220 -0.108257
C30   C     C_R   0.278383 0.521947 0.035028 0.015286
C31   C     C_2   0.206178 0.507185 0.147980 0.200744
C32   C     C_R   0.533128 0.458232 0.033195 0.013043
C33   C     C_R   0.661885 0.389073 0.979763 0.052189
C34   C     C_R   0.683660 0.344201 0.877111 -0.139428
C35   C     C_R   0.586190 0.375507 0.823911 -0.119647
C36   C     C_R   0.522842 0.510714 0.133111 -0.146864
C37   C     C_R   0.746599 0.407782 0.132986 -0.130076
Cu1   Cu    Cu3+1 0.359340 0.500010 0.500010 0.917555
Cu2   Cu    Cu3+1 0.640660 0.499990 0.499990 0.938971
H1    H     H_    0.824942 0.382073 0.172263 0.135583
H2    H     H_    0.228264 0.173289 0.253823 0.125899
H3    H     H_    0.312162 0.321844 0.356845 0.181651
H4    H     H_    0.778921 0.287712 0.836570 0.107006
H5    H     H_    0.081809 0.645777 0.614442 0.107440
H6    H     H_    0.865748 0.311979 0.989435 0.104495
H7    H     H_    0.438115 0.577493 0.172071 0.134509
H8    H     H_    0.169286 0.590587 0.825521 0.122480
H9    H     H_    0.080966 0.598606 0.014132 0.166270
H10   H     H_    0.608011 0.337006 0.744770 0.150257
H11   H     H_    0.687966 0.879877 0.377072 0.139475
H12   H     H_    0.282945 0.780833 0.676552 0.123626
H13   H     H_    0.250102 0.441617 0.189320 0.119074
H14   H     H_    0.102056 0.903716 0.810601 0.109261
H15   H     H_    0.101589 0.133010 0.810216 0.107170
H16   H     H_    0.281995 0.239989 0.675803 0.141649
H17   H     H_    0.687671 0.105461 0.376638 0.110508
H18   H     H_    0.823450 0.645463 0.614831 0.121136
H19   H     H_    0.806262 0.327803 0.354436 0.168667
H20   H     H_    0.973806 0.177798 0.250696 0.113306
N1    N     N_R   0.852480 0.498790 0.499000 -0.241710
N2    N     N_R   0.148360 0.498710 0.498970 -0.241063
O1    O     O_R   0.381190 0.680360 0.500010 -0.496167
O2    O     O_R   0.618760 0.680340 0.500000 -0.490640
O3    O     O_R   0.323240 0.499990 0.650990 -0.517133
O4    O     O_R   0.560820 0.499960 0.650980 -0.505898
O5    O     O_R   0.381240 0.319660 0.500000 -0.526537
O6    O     O_R   0.618810 0.319640 0.499990 -0.527063
O7    O     O_R   0.439180 0.500040 0.349020 -0.518289
O8    O     O_R   0.676760 0.500010 0.349010 -0.497140
O9    O     O_2   0.095660 0.566015 0.195388 -0.511502

loop_
_geom_bond_atom_site_label_1
_geom_bond_atom_site_label_2
_ccdc_geom_bond_type
C35   H10   S    
C2    C4    S    
C28   H8    S    
C36   H7    S    
C6    C7    A    
C3    C9    A    
C27   C36   A    
C25   C27   S    
Cu2   O2    S    
C9    C10   A    
C4    O3    A    
C26   C33   A    
C23   C35   A    
C19   C20   A    
C19   H3    S    
C7    H16   S    
C31   H13   S    
Cu1   N2    S    
C32   C33   A    
C13   H17   S    
C22   H18   S    
C33   C34   A    
Cu2   O8    S    
C7    C8    A    
C26   C37   A    
C11   H11   S    
C13   C14   A    
C12   C32   A    
Cu2   O4    S    
C12   C23   A    
C21   N1    A    
C29   C30   A    
C25   O7    A    
C6    H15   S    
C24   N2    A    
C5    C6    A    
C32   C36   A    
C22   C24   A    
C5    H14   S    
C28   C29   A    
C17   H20   S    
C17   C18   A    
C37   H1    S    
Cu1   O3    S    
C2    C23   A    
C22   N1    A    
C4    O4    A    
C24   H5    S    
C15   H19   S    
C14   C16   S    
C15   C21   A    
C25   O8    A    
C10   C11   A    
Cu2   N1    S    
C29   H9    S    
C16   O6    A    
C1    O2    A    
C11   C13   A    
C16   O5    A    
C20   C21   A    
C1    O1    A    
Cu1   O5    S    
C34   C35   A    
C1    C10   S    
C18   H2    S    
C20   N2    A    
C15   C17   A    
C3    H12   S    
C30   C31   S    
C18   C19   A    
C2    C28   A    
C8    C14   A    
C26   H6    S    
C12   C30   A    
Cu1   O1    S    
Cu2   O6    S    
C31   O9    D    
C34   H4    S    
C27   C37   A    
Cu1   O7    S    
C8    C9    A    
C3    C5    A    
Cu1   Cu2   S    
