data_mof_unit_28370.cif
_audit_creation_date              2012-12-10T20:25:39-0500
_audit_creation_method            fapswitch 2.2
_symmetry_space_group_name_H-M    P1
_symmetry_Int_Tables_number       1
_space_group_crystal_system       triclinic
_cell_length_a                    8.59131
_cell_length_b                    10.675797
_cell_length_c                    9.895745
_cell_angle_alpha                 90.2549
_cell_angle_beta                  98.375407
_cell_angle_gamma                 90.386993
_cell_volume                      897.914712

loop_
_atom_site_label
_atom_site_type_symbol
_atom_type_description
_atom_site_fract_x
_atom_site_fract_y
_atom_site_fract_z
_atom_type_partial_charge
C1    C     C_R   0.504145 0.260101 0.500416 0.871865
C2    C     C_R   0.566723 0.935060 0.390509 -0.218985
C3    C     C_R   0.527855 0.871572 0.505012 -0.108290
C4    C     C_R   0.517158 0.936833 0.625258 0.188560
C5    C     C_3   0.395007 0.929470 0.718323 -0.452096
C6    C     C_3   0.394892 0.071444 0.718115 -0.501957
C7    C     C_R   0.420278 0.409319 0.060769 0.199532
C8    C     C_R   0.592878 0.580281 0.084912 -0.170068
C9    C     C_R   0.594215 0.580062 0.941658 0.291451
C10   C     C_R   0.419374 0.409826 0.918408 0.155359
C11   C     C_3   0.246579 0.385231 0.892883 -0.490079
C12   C     C_R   0.201330 0.500345 0.464248 0.964189
C13   C     C_3   0.248534 0.382359 0.046393 -0.478417
C14   C     C_R   0.504511 0.739936 0.500795 0.891587
C15   C     C_R   0.798507 0.501518 0.535475 0.982002
C16   C     C_2   0.036161 0.499309 0.444635 -0.393310
C17   C     C_2   0.963256 0.506409 0.553881 -0.365594
C18   C     C_R   0.516914 0.064529 0.624958 0.139070
C19   C     C_R   0.527140 0.128718 0.504388 -0.108135
C20   C     C_R   0.566213 0.064642 0.390153 -0.222517
H1    H     H_    0.974986 0.490885 0.340650 0.185146
H2    H     H_    0.180674 0.466312 0.845216 0.220054
H3    H     H_    0.216915 0.293268 0.842288 0.201425
H4    H     H_    0.180981 0.459944 0.084923 0.226917
H5    H     H_    0.223648 0.287894 0.085299 0.200811
H6    H     H_    0.023943 0.516866 0.657071 0.181566
H7    H     H_    0.586305 0.113504 0.298463 0.175935
H8    H     H_    0.587216 0.885553 0.298993 0.178218
H9    H     H_    0.282470 0.887153 0.668183 0.201738
H10   H     H_    0.442044 0.889359 0.819398 0.233818
H11   H     H_    0.282238 0.111901 0.667936 0.202020
H12   H     H_    0.442165 0.113302 0.818967 0.212998
H13   H     H_    0.665575 0.646464 0.149438 0.173460
N1    N     N_R   0.498950 0.499140 0.142680 -0.125065
N2    N     N_R   0.498950 0.499180 0.857030 -0.128944
O1    O     O_R   0.500020 0.316790 0.614690 -0.617532
O2    O     O_R   0.500000 0.316760 0.385350 -0.624820
O3    O     O_R   0.271760 0.500010 0.587850 -0.617653
O4    O     O_R   0.271740 0.499970 0.358500 -0.622751
O5    O     O_R   0.500000 0.683240 0.614650 -0.580262
O6    O     O_R   0.499980 0.683210 0.385310 -0.630039
O7    O     O_R   0.728260 0.500030 0.641500 -0.583455
O8    O     O_R   0.728240 0.499990 0.412150 -0.624578
Zn1   Zn    Zn3+2 0.500010 0.500020 0.653130 0.984060
Zn2   Zn    Zn3+2 0.499990 0.499980 0.346870 0.946145
Br1   Br    Br    0.733059 0.696018 0.872384 -0.543378

loop_
_geom_bond_atom_site_label_1
_geom_bond_atom_site_label_2
_ccdc_geom_bond_type
C7    C10   A    
C6    H12   S    
O3    Zn1   S    
C16   H1    S    
C20   H7    S    
C11   C13   S    
O2    Zn2   S    
C11   H2    S    
C19   C20   A    
C1    O2    A    
O4    Zn2   S    
C4    C18   A    
C12   O4    A    
C7    C13   S    
C2    C3    A    
C15   O8    A    
C9    Br1   S    
N1    Zn2   S    
C8    N1    A    
N2    Zn1   S    
O8    Zn2   S    
C13   H5    S    
C10   N2    A    
C3    C14   S    
O7    Zn1   S    
C14   O6    A    
C17   H6    S    
C11   H3    S    
C6    H11   S    
C5    H9    S    
C8    H13   S    
C12   O3    A    
C5    C6    S    
C6    C18   S    
C7    N1    A    
O1    Zn1   S    
C1    C19   S    
C10   C11   S    
C14   O5    A    
C3    C4    A    
C16   C17   D    
O5    Zn1   S    
C15   O7    A    
C15   C17   S    
C18   C19   A    
C5    H10   S    
C9    N2    A    
O6    Zn2   S    
C8    C9    A    
C2    H8    S    
C1    O1    A    
C2    C20   A    
C12   C16   S    
C13   H4    S    
C4    C5    S    
