data_mof_unit_6279.cif
_audit_creation_date              2012-12-11T15:35:00-0500
_audit_creation_method            fapswitch 2.2
_symmetry_space_group_name_H-M    P1
_symmetry_Int_Tables_number       1
_space_group_crystal_system       triclinic
_cell_length_a                    30.555647
_cell_length_b                    7.24782
_cell_length_c                    25.987846
_cell_angle_alpha                 90.003306
_cell_angle_beta                  111.996619
_cell_angle_gamma                 90.001302
_cell_volume                      5336.36319659

loop_
_atom_site_label
_atom_site_type_symbol
_atom_type_description
_atom_site_fract_x
_atom_site_fract_y
_atom_site_fract_z
_atom_type_partial_charge
O1    O     O_R   0.295360 0.592990 0.320420 -0.531540
O2    O     O_R   0.704640 0.407010 0.679580 -0.531668
O3    O     O_R   0.204640 0.092990 0.179580 -0.531540
O4    O     O_R   0.795360 0.907010 0.820420 -0.531670
O5    O     O_R   0.294060 0.265620 0.213230 -0.540395
O6    O     O_R   0.705940 0.734380 0.786770 -0.540605
O7    O     O_R   0.205940 0.765620 0.286770 -0.540394
O8    O     O_R   0.794060 0.234380 0.713230 -0.540604
C1    C     C_R   0.304154 0.432324 0.199493 0.695376
C2    C     C_R   0.695826 0.567681 0.800492 0.695329
C3    C     C_R   0.195845 0.932327 0.300506 0.695389
C4    C     C_R   0.804174 0.067679 0.699509 0.695345
O9    O     O_R   0.300850 0.263360 0.322080 -0.535591
O10   O     O_R   0.699150 0.736640 0.677920 -0.535465
O11   O     O_R   0.199150 0.763360 0.177920 -0.535599
O12   O     O_R   0.800850 0.236640 0.822080 -0.535473
O13   O     O_R   0.211480 0.091820 0.289210 -0.538117
O14   O     O_R   0.788520 0.908180 0.710790 -0.538071
O15   O     O_R   0.288520 0.591820 0.210790 -0.538114
O16   O     O_R   0.711480 0.408180 0.789210 -0.538067
C5    C     C_R   0.313264 0.431459 0.343174 0.683785
C6    C     C_R   0.686736 0.568541 0.656826 0.683805
C7    C     C_R   0.186735 0.931444 0.156825 0.683781
C8    C     C_R   0.813265 0.068555 0.843174 0.683800
O17   O     O_3   0.220670 0.426670 0.239090 -0.374201
O18   O     O_3   0.779330 0.573330 0.760910 -0.374174
O19   O     O_3   0.279330 0.926670 0.260910 -0.374193
O20   O     O_3   0.720670 0.073330 0.739090 -0.374167
V1    V     V_3+5 0.255440 0.152290 0.252020 1.415796
V2    V     V_3+5 0.744560 0.847710 0.747980 1.415081
V3    V     V_3+5 0.244560 0.652290 0.247980 1.415797
V4    V     V_3+5 0.755440 0.347710 0.752020 1.415083
C9    C     C_R   0.850237 0.063852 0.899379 -0.037768
C10   C     C_R   0.149764 0.936145 0.100620 -0.038276
C11   C     C_R   0.649766 0.563778 0.600622 -0.037731
C12   C     C_R   0.350233 0.436219 0.399378 -0.038240
C13   C     C_R   0.873793 0.128831 0.997277 -0.157213
C14   C     C_R   0.126207 0.871147 0.002724 -0.155140
C15   C     C_R   0.626235 0.628258 0.502702 -0.157196
C16   C     C_R   0.373764 0.371720 0.497297 -0.155124
C17   C     C_R   0.838943 0.119422 0.944309 -0.160820
C18   C     C_R   0.161058 0.880562 0.055692 -0.159643
C19   C     C_R   0.661078 0.618997 0.555677 -0.160849
C20   C     C_R   0.338921 0.380987 0.444322 -0.159675
C21   C     C_R   0.897186 0.018237 0.907786 -0.211874
C22   C     C_R   0.102815 0.981762 0.092214 -0.211928
C23   C     C_R   0.602807 0.518360 0.592225 -0.211856
C24   C     C_R   0.397192 0.481639 0.407776 -0.211911
C25   C     C_R   0.933801 0.030127 0.961475 0.085622
C26   C     C_R   0.066200 0.969862 0.038525 0.085665
C27   C     C_R   0.566200 0.530081 0.538527 0.085631
C28   C     C_R   0.433798 0.469908 0.461473 0.085674
C29   C     C_R   0.920889 0.086159 0.006201 0.135071
C30   C     C_R   0.079112 0.913823 0.993800 0.133823
C31   C     C_R   0.579130 0.585762 0.493785 0.135068
C32   C     C_R   0.420869 0.414219 0.506215 0.133819
C33   C     C_R   0.982617 0.991127 0.972332 0.056872
C34   C     C_R   0.017383 0.008859 0.027668 0.057258
C35   C     C_R   0.517378 0.491229 0.527674 0.056873
C36   C     C_R   0.482622 0.508757 0.472326 0.057259
C37   C     C_R   0.002139 0.064347 0.070273 -0.183635
C38   C     C_R   0.997862 0.935633 0.929728 -0.183304
C39   C     C_R   0.497883 0.563904 0.429706 -0.183629
C40   C     C_R   0.502116 0.436076 0.570293 -0.183299
C41   C     C_R   0.954997 0.101657 0.059633 -0.195326
C42   C     C_R   0.045003 0.898319 0.940368 -0.193751
C43   C     C_R   0.545031 0.601074 0.440342 -0.195327
C44   C     C_R   0.454968 0.398902 0.559657 -0.193752
H1    H     H_    0.945149 0.144449 0.093811 0.129173
H2    H     H_    0.054851 0.855520 0.906190 0.130741
H3    H     H_    0.554893 0.643598 0.406151 0.129172
H4    H     H_    0.445107 0.356371 0.593847 0.130740
H5    H     H_    0.096101 0.021185 0.128539 0.097271
H6    H     H_    0.903901 0.978824 0.871460 0.097510
H7    H     H_    0.403919 0.520806 0.371440 0.097238
H8    H     H_    0.596080 0.479203 0.628561 0.097476
H9    H     H_    0.196993 0.843122 0.061762 0.110940
H10   H     H_    0.803008 0.156857 0.938240 0.109886
H11   H     H_    0.302976 0.343714 0.438259 0.110929
H12   H     H_    0.697023 0.656264 0.561739 0.109873
H13   H     H_    0.863969 0.172358 0.031392 0.118890
H14   H     H_    0.136031 0.827612 0.968609 0.121345
H15   H     H_    0.636073 0.671512 0.468575 0.118892
H16   H     H_    0.363927 0.328457 0.531424 0.121347
H17   H     H_    0.025872 0.081047 0.112718 0.127590
H18   H     H_    0.974128 0.918927 0.887282 0.128048
H19   H     H_    0.474158 0.580434 0.387251 0.127591
H20   H     H_    0.525841 0.419540 0.612748 0.128050
C45   C     C_R   0.077849 0.842305 0.464274 0.610798
C46   C     C_R   0.922490 0.158342 0.536073 0.609549
C47   C     C_R   0.422154 0.342275 0.035727 0.610790
C48   C     C_R   0.577505 0.658374 0.963925 0.609544
N1    N     N_R   0.073392 0.970880 0.423829 -0.563576
N2    N     N_R   0.927026 0.030159 0.576641 -0.565129
N3    N     N_R   0.426608 0.470869 0.076171 -0.563580
N4    N     N_R   0.572973 0.530173 0.923358 -0.565127
C49   C     C_R   0.040985 0.110657 0.413367 0.589458
C50   C     C_R   0.960037 0.892428 0.587838 0.597838
C51   C     C_R   0.459012 0.610668 0.086633 0.589467
C52   C     C_R   0.539964 0.392420 0.912161 0.597830
C53   C     C_R   0.011645 0.125608 0.443957 -0.059269
C54   C     C_R   0.989286 0.877096 0.557144 -0.041248
C55   C     C_R   0.488352 0.625624 0.056041 -0.059278
C56   C     C_R   0.510716 0.377083 0.942856 -0.041237
C57   C     C_R   0.014972 0.993261 0.484801 -0.096851
C58   C     C_R   0.985224 0.007022 0.515404 -0.102200
C59   C     C_R   0.485028 0.493258 0.015199 -0.096864
C60   C     C_R   0.514775 0.507024 0.984595 -0.102196
C61   C     C_R   0.048739 0.849893 0.495848 -0.111564
C62   C     C_R   0.952195 0.152758 0.505207 -0.104822
C63   C     C_R   0.451264 0.349868 0.004152 -0.111539
C64   C     C_R   0.547801 0.652785 0.994791 -0.104827
C65   C     C_R   0.980151 0.273724 0.435388 -0.274840
C66   C     C_R   0.023503 0.737817 0.568875 -0.222781
C67   C     C_R   0.519842 0.773763 0.064608 -0.274783
C68   C     C_R   0.476500 0.237785 0.931124 -0.222761
C69   C     C_R   0.949862 0.288855 0.464998 0.429590
C70   C     C_R   0.052918 0.720273 0.538344 0.429895
C71   C     C_R   0.550130 0.788896 0.034999 0.429556
C72   C     C_R   0.447086 0.220235 0.961655 0.429912
O21   O     O_2   0.110657 0.708500 0.474097 -0.491932
O22   O     O_2   0.888582 0.288274 0.524883 -0.495152
O23   O     O_2   0.389349 0.208447 0.025906 -0.491930
O24   O     O_2   0.611411 0.788330 0.975114 -0.495161
O25   O     O_2   0.036726 0.234287 0.372933 -0.534207
O26   O     O_2   0.964920 0.771091 0.629021 -0.532004
O27   O     O_2   0.463269 0.734317 0.127065 -0.534204
O28   O     O_2   0.535084 0.271067 0.870979 -0.532003
H21   H     H_    0.980292 0.381420 0.406697 0.170166
H22   H     H_    0.028278 0.644471 0.603017 0.164589
H23   H     H_    0.519699 0.881475 0.093298 0.170155
H24   H     H_    0.471726 0.144428 0.896981 0.164583
C73   C     C_R   0.867616 0.889315 0.608425 -0.090803
C74   C     C_R   0.133271 0.110005 0.392541 -0.090432
C75   C     C_R   0.632385 0.389340 0.891576 -0.090803
C76   C     C_R   0.366726 0.609978 0.107456 -0.090427
H25   H     H_    0.867897 0.765417 0.585255 0.150502
H26   H     H_    0.133542 0.233009 0.416321 0.147718
H27   H     H_    0.632105 0.265452 0.914747 0.150501
H28   H     H_    0.366453 0.732971 0.083675 0.147721
C77   C     C_R   0.838118 0.897873 0.638574 -0.204704
C78   C     C_R   0.162666 0.101231 0.362278 -0.201827
C79   C     C_R   0.661883 0.397895 0.861428 -0.204706
C80   C     C_R   0.337331 0.601207 0.137719 -0.201830
H29   H     H_    0.816317 0.779431 0.637960 0.133507
H30   H     H_    0.184944 0.218609 0.363407 0.133458
H31   H     H_    0.683686 0.279461 0.862042 0.133507
H32   H     H_    0.315051 0.718575 0.136589 0.133458
C81   C     C_R   0.836183 0.058257 0.668248 -0.053154
C82   C     C_R   0.163923 0.941875 0.331860 -0.053747
C83   C     C_R   0.663817 0.558266 0.831753 -0.053155
C84   C     C_R   0.336076 0.441866 0.168139 -0.053745
C85   C     C_R   0.864848 0.209285 0.667289 -0.206079
C86   C     C_R   0.134686 0.792099 0.332181 -0.205786
C87   C     C_R   0.635151 0.709285 0.832711 -0.206081
C88   C     C_R   0.365316 0.292102 0.167821 -0.205786
H33   H     H_    0.864455 0.334581 0.689814 0.138659
H34   H     H_    0.134574 0.667650 0.309069 0.138420
H35   H     H_    0.635543 0.834571 0.810185 0.138661
H36   H     H_    0.365430 0.167664 0.190934 0.138422
C89   C     C_R   0.894873 0.199513 0.637748 -0.091373
C90   C     C_R   0.104727 0.802191 0.361811 -0.090677
C91   C     C_R   0.605125 0.699516 0.862251 -0.091373
C92   C     C_R   0.395275 0.302193 0.138190 -0.090677
H37   H     H_    0.917034 0.316611 0.638211 0.151376
H38   H     H_    0.082107 0.686149 0.360854 0.149872
H39   H     H_    0.582963 0.816605 0.861787 0.151383
H40   H     H_    0.417897 0.186161 0.139149 0.149876
C93   C     C_R   0.896420 0.039709 0.607806 0.352720
C94   C     C_R   0.103858 0.960978 0.392496 0.354309
C95   C     C_R   0.603579 0.539723 0.892194 0.352716
C96   C     C_R   0.396142 0.460966 0.107504 0.354302
O29   O     O_3   0.922950 0.446969 0.461658 -0.542400
C97   C     C_3   0.899504 0.512689 0.406830 0.114217
H41   H     H_    0.861759 0.532635 0.400371 0.151997
H42   H     H_    0.899615 0.414818 0.373771 0.094560
C98   C     C_3   0.920038 0.700396 0.400686 -0.311300
H43   H     H_    0.914293 0.799611 0.430138 0.211299
H44   H     H_    0.958629 0.688209 0.411115 0.195206
C99   C     C_3   0.896915 0.776052 0.341927 -0.825451
H45   H     H_    0.903209 0.681375 0.311795 0.237084
H46   H     H_    0.912361 0.912898 0.339411 0.240877
H47   H     H_    0.858324 0.792745 0.330862 0.230115
O30   O     O_3   0.090081 0.594663 0.554360 -0.540322
C100  C     C_3   0.076080 0.413880 0.562205 0.121267
H48   H     H_    0.086606 0.319496 0.535175 0.154764
H49   H     H_    0.037323 0.395657 0.550188 0.105763
C101  C     C_3   0.102304 0.355904 0.622609 -0.325231
H50   H     H_    0.140923 0.356748 0.632064 0.215392
H51   H     H_    0.094951 0.455729 0.650788 0.198406
C102  C     C_3   0.087576 0.163621 0.633655 -0.793463
H52   H     H_    0.049442 0.162198 0.626706 0.233400
H53   H     H_    0.108013 0.124202 0.677403 0.238113
H54   H     H_    0.094679 0.061121 0.605995 0.241029
O31   O     O_3   0.577034 0.947033 0.038335 -0.542409
C103  C     C_3   0.600500 0.012720 0.093167 0.114230
H55   H     H_    0.638245 0.032617 0.099616 0.152021
H56   H     H_    0.600384 0.914859 0.126224 0.094537
C104  C     C_3   0.579988 0.200443 0.099335 -0.311264
H57   H     H_    0.585707 0.299624 0.069859 0.211324
H58   H     H_    0.541403 0.188277 0.088953 0.195172
C105  C     C_3   0.603165 0.276133 0.158087 -0.825463
H59   H     H_    0.596912 0.181464 0.188247 0.237066
H60   H     H_    0.587726 0.412968 0.160629 0.240865
H61   H     H_    0.641749 0.292855 0.169097 0.230114
O32   O     O_3   0.409923 0.094608 0.945637 -0.540326
C106  C     C_3   0.423925 0.913828 0.937788 0.121268
H62   H     H_    0.413400 0.819447 0.964818 0.154769
H63   H     H_    0.462682 0.895623 0.949803 0.105770
C107  C     C_3   0.397700 0.855827 0.877384 -0.325235
H64   H     H_    0.359082 0.856654 0.867930 0.215392
H65   H     H_    0.405053 0.955648 0.849206 0.198406
C108  C     C_3   0.412430 0.663546 0.866335 -0.793471
H66   H     H_    0.450563 0.662138 0.873283 0.233398
H67   H     H_    0.391993 0.624109 0.822587 0.238111
H68   H     H_    0.405328 0.561050 0.893994 0.241029

loop_
_geom_bond_atom_site_label_1
_geom_bond_atom_site_label_2
_ccdc_geom_bond_type
O17   V3    S    
C51   C55   A    
C25   C29   A    
C1    C84   S    
O18   V4    S    
O19   V1    S    
C53   C65   A    
C16   H16   S    
O3    C7    A    
C68   H24   S    
C10   C18   A    
C48   N4    A    
C73   H25   S    
C76   H28   S    
C11   C23   A    
C100  H48   S    
C77   C81   A    
C33   C38   A    
C5    C12   S    
C67   H23   S    
O29   C97   S    
O1    C5    A    
C6    C11   S    
C38   H18   S    
C35   C40   A    
C26   C30   A    
C105  H60   S    
C101  C102  S    
C40   C44   A    
O9    V1    S    
C23   H8    S    
C14   C18   A    
C78   H30   S    
C48   O24   S    
N2    C93   S    
C56   C68   A    
O4    C8    A    
N3    C51   A    
C100  H49   S    
C43   H3    S    
N2    C50   A    
C104  C105  S    
C45   C61   A    
O1    V3    S    
O13   V1    S    
O30   C100  S    
O2    V4    S    
C32   C44   A    
C47   C63   A    
O3    V1    S    
C81   C85   A    
C97   H41   S    
C73   C93   A    
C28   C36   A    
C90   H38   S    
C28   C32   A    
C104  H57   S    
C1    O15   A    
C52   C56   A    
C15   C31   A    
C76   C96   A    
C101  H51   S    
C2    O16   A    
C16   C32   A    
C105  H61   S    
C90   C94   A    
O2    C6    A    
C106  C107  S    
C59   C60   A    
C50   O26   S    
C54   C58   A    
C10   C22   A    
C83   C87   A    
C11   C19   A    
N3    C96   S    
C82   C86   A    
C27   C31   A    
C99   H47   S    
C77   H29   S    
C13   C29   A    
C98   C99   S    
C34   C37   A    
O11   C7    A    
O15   V3    S    
C35   C36   A    
O12   C8    A    
C47   O23   S    
C14   H14   S    
C85   H33   S    
C46   O22   S    
C24   H7    S    
C13   H13   S    
O10   V2    S    
C103  C104  S    
C62   C69   A    
C22   C26   A    
C99   H46   S    
C61   C70   A    
C46   N2    A    
O5    V1    S    
C106  H62   S    
C108  H67   S    
C53   C57   A    
C39   C43   A    
N1    C94   S    
O7    V3    S    
C105  H59   S    
C38   C42   A    
C87   H35   S    
C102  H52   S    
C26   C34   A    
C84   C88   A    
C88   H36   S    
C9    C17   A    
C44   H4    S    
C49   O25   S    
C17   H10   S    
O32   C106  S    
C48   C64   A    
C100  C101  S    
C15   C19   A    
C91   C95   A    
C87   C91   A    
C19   H12   S    
C108  H66   S    
C47   N3    A    
N4    C95   S    
C45   N1    A    
O4    V2    S    
C68   C72   A    
C67   C71   A    
C85   C89   A    
C101  H50   S    
O8    V4    S    
C64   C71   A    
C79   H31   S    
C102  H53   S    
O5    C1    A    
C55   C67   A    
C54   C66   A    
C9    C21   A    
C2    C83   S    
C74   C78   A    
C3    C82   S    
O7    C3    A    
C14   C30   A    
C24   C28   A    
C91   H39   S    
O8    C4    A    
C7    C10   S    
C21   C25   A    
O9    C5    A    
C97   C98   S    
C66   C70   A    
C37   H17   S    
C51   O27   S    
C92   H40   S    
C103  H56   S    
O6    V2    S    
C107  H64   S    
C75   C95   A    
C36   C39   A    
C89   H37   S    
O14   V2    S    
C65   C69   A    
C92   C96   A    
C27   C35   A    
C46   C62   A    
N1    C49   A    
C56   C60   A    
C29   C41   A    
C99   H45   S    
C104  H58   S    
O16   V4    S    
C108  H68   S    
C69   O29   S    
C57   C61   A    
C3    O13   A    
C39   H19   S    
C52   O28   S    
C59   C63   A    
C4    C81   S    
C86   C90   A    
C20   H11   S    
C103  H55   S    
C74   H26   S    
C25   C33   A    
C23   C27   A    
O11   V3    S    
C30   C42   A    
C70   O30   S    
O12   V4    S    
C107  C108  S    
C57   C58   A    
C66   H22   S    
C107  H65   S    
C8    C9    S    
C75   H27   S    
C72   O32   S    
O10   C6    A    
O20   V2    S    
C102  H54   S    
C89   C93   A    
C31   C43   A    
C76   C80   A    
C50   C54   A    
C78   C82   A    
C33   C34   A    
C42   H2    S    
C21   H6    S    
C45   O21   S    
C41   H1    S    
N4    C52   A    
C79   C83   A    
C75   C79   A    
C98   H44   S    
C12   C24   A    
C71   O31   S    
C37   C41   A    
C13   C17   A    
C97   H42   S    
C12   C20   A    
O6    C2    A    
C15   H15   S    
O31   C103  S    
C60   C64   A    
C16   C20   A    
C88   C92   A    
C18   H9    S    
C58   C62   A    
C98   H43   S    
C74   C94   A    
C4    O14   A    
C106  H63   S    
C86   H34   S    
C63   C72   A    
C55   C59   A    
C73   C77   A    
C65   H21   S    
C40   H20   S    
C22   H5    S    
C49   C53   A    
C80   C84   A    
C80   H32   S    
