data_mof_unit_22960.cif
_audit_creation_date              2012-10-26T19:43:50-0400
_audit_creation_method            fapswitch 2.2
_symmetry_space_group_name_H-M    P1
_symmetry_Int_Tables_number       1
_space_group_crystal_system       triclinic
_cell_length_a                    12.411134
_cell_length_b                    13.098858
_cell_length_c                    13.881692
_cell_angle_alpha                 105.232376
_cell_angle_beta                  74.193398
_cell_angle_gamma                 116.771279
_cell_volume                      1912.74791204

loop_
_atom_site_label
_atom_site_type_symbol
_atom_type_description
_atom_site_fract_x
_atom_site_fract_y
_atom_site_fract_z
_atom_type_partial_charge
C1    C     C_R   0.143352 0.715121 0.518702 0.569014
C2    C     C_R   0.556890 0.025004 0.520469 0.044188
C3    C     C_R   0.596436 0.943857 0.532488 0.023411
C4    C     C_R   0.984189 0.503696 0.685930 0.562538
C5    C     C_R   0.510722 0.843345 0.570988 -0.120516
C6    C     C_R   0.385955 0.817064 0.586588 0.010658
C7    C     C_R   0.646201 0.132288 0.495722 -0.126220
C8    C     C_R   0.809230 0.073834 0.484690 -0.021017
C9    C     C_R   0.222055 0.841704 0.538367 -0.007234
C10   C     C_R   0.615492 0.635500 0.683243 -0.157145
C11   C     C_R   0.270151 0.379121 0.346948 0.136560
C12   C     C_1   0.979454 0.511610 0.791003 0.029529
C13   C     C_R   0.387045 0.386138 0.299602 -0.152566
C14   C     C_R   0.484521 0.444658 0.352021 -0.029272
C15   C     C_R   0.460794 0.480616 0.458435 -0.022522
C16   C     C_R   0.855859 0.285108 0.485752 0.536971
C17   C     C_R   0.339061 0.473979 0.502797 0.143446
C18   C     C_R   0.550724 0.523138 0.523138 -0.028758
C19   C     C_R   0.522195 0.572394 0.625262 -0.012093
C20   C     C_R   0.399576 0.549219 0.669384 -0.043322
C21   C     C_R   0.309832 0.493335 0.608928 -0.073364
C22   C     C_R   0.663612 0.510384 0.495342 0.050501
C23   C     C_R   0.721503 0.967158 0.511235 -0.117517
C24   C     C_R   0.730587 0.634027 0.645717 0.134811
C25   C     C_R   0.014715 0.494694 0.313926 0.557895
C26   C     C_1   0.018188 0.484931 0.208739 0.027259
C27   C     C_2   0.016793 0.464076 0.015065 -0.012741
C28   C     C_2   0.980725 0.531649 0.984468 -0.015963
C29   C     C_1   0.978623 0.520619 0.879335 -0.018939
C30   C     C_1   0.018789 0.475173 0.120296 -0.018053
C31   C     C_1   0.945507 0.619378 0.054799 0.249510
C32   C     C_1   0.305625 0.750362 0.665286 0.217224
C33   C     C_1   0.826891 0.703543 0.703958 0.301390
C34   C     C_R   0.771633 0.161147 0.485420 -0.017472
C35   C     C_1   0.361345 0.569056 0.778452 0.224595
C36   C     C_1   0.171111 0.305526 0.292241 0.285668
C37   C     C_1   0.605791 0.470359 0.291682 0.186244
C38   C     C_1   0.053328 0.377291 0.944385 0.238600
C39   C     C_1   0.934787 0.087446 0.451551 0.282451
C40   C     C_1   0.207976 0.129180 0.569374 0.287777
C41   C     C_R   0.176670 0.924201 0.541560 0.378073
C42   C     C_R   0.255347 0.041851 0.548320 0.010269
C43   C     C_R   0.381200 0.076377 0.538023 -0.184273
C44   C     C_R   0.429258 0.995674 0.533880 -0.000016
C45   C     C_R   0.345481 0.882167 0.550223 -0.040605
Cu1   Cu    Cu3+1 0.899780 0.525060 0.522890 1.021441
Cu2   Cu    Cu3+1 0.100220 0.474940 0.477110 0.999689
F1    F     F_    0.056406 0.891594 0.540207 -0.604774
H1    H     H_    0.598431 0.683347 0.758139 0.122800
H2    H     H_    0.681326 0.452030 0.428762 0.141464
H3    H     H_    0.402690 0.348322 0.220275 0.122840
H4    H     H_    0.218457 0.452979 0.647650 0.184233
H5    H     H_    0.541244 0.789825 0.594879 0.119124
H6    H     H_    0.750744 0.902083 0.515487 0.145257
H7    H     H_    0.620115 0.195749 0.484478 0.128121
H8    H     H_    0.438081 0.167804 0.540285 0.113672
N1    N     N_R   0.748810 0.563010 0.557590 -0.246426
N2    N     N_1   0.034856 0.096548 0.423054 -0.225522
N3    N     N_1   0.171075 0.200324 0.587870 -0.270522
N4    N     N_R   0.250540 0.437620 0.443020 -0.243876
N5    N     N_1   0.917520 0.689663 0.110942 -0.231468
N6    N     N_1   0.240707 0.700514 0.730535 -0.292743
N7    N     N_1   0.904048 0.759983 0.751040 -0.246751
N8    N     N_1   0.330897 0.585016 0.865602 -0.266048
N9    N     N_1   0.092185 0.245797 0.247635 -0.275616
N10   N     N_1   0.702639 0.490833 0.242652 -0.272866
N11   N     N_1   0.082589 0.308013 0.887796 -0.252132
O1    O     O_R   0.025040 0.682470 0.528790 -0.421521
O2    O     O_R   0.194310 0.640150 0.490130 -0.504988
O3    O     O_R   0.903380 0.524130 0.659910 -0.502167
O4    O     O_R   0.072660 0.481800 0.621240 -0.513897
O5    O     O_R   0.805690 0.359850 0.509870 -0.520778
O6    O     O_R   0.974960 0.317530 0.471210 -0.484935
O7    O     O_R   0.927340 0.518200 0.378760 -0.488156
O8    O     O_R   0.096620 0.475870 0.340090 -0.502430

loop_
_geom_bond_atom_site_label_1
_geom_bond_atom_site_label_2
_ccdc_geom_bond_type
C15   C18   A    
C6    C32   S    
C9    C45   A    
C6    C45   A    
C12   C29   T    
C41   C42   A    
C31   N5    T    
C3    C23   A    
C19   C20   A    
C16   O5    A    
C7    H7    S    
C1    O1    A    
C22   N1    A    
C4    O3    A    
C5    H5    S    
C28   C29   S    
C25   O7    A    
C5    C6    A    
C27   C38   S    
C8    C23   A    
C18   C19   A    
Cu2   O2    S    
C16   C34   S    
Cu2   N4    S    
C13   H3    S    
C20   C35   S    
C2    C7    A    
C2    C44   A    
C24   N1    A    
C35   N8    T    
C8    C39   S    
C4    C12   S    
Cu1   O5    S    
C22   H2    S    
C40   C42   S    
C40   N3    T    
C13   C14   A    
C27   C30   S    
C16   O6    A    
C1    C9    S    
Cu2   O6    S    
C36   N9    T    
C10   C24   A    
C25   C26   S    
C39   N2    T    
C1    O2    A    
C25   O8    A    
C43   C44   A    
Cu1   O1    S    
C10   C19   A    
C33   N7    T    
C37   N10   T    
C8    C34   A    
C20   C21   A    
Cu2   O4    S    
C26   C30   T    
Cu1   N1    S    
C7    C34   A    
C42   C43   A    
C11   N4    A    
Cu1   O7    S    
C44   C45   A    
C23   H6    S    
C15   C17   A    
Cu1   Cu2   S    
C11   C36   S    
C18   C22   A    
C28   C31   S    
C3    C5    A    
C9    C41   A    
C24   C33   S    
C2    C3    A    
C32   N6    T    
C14   C37   S    
C11   C13   A    
C41   F1    S    
C4    O4    A    
C17   C21   A    
Cu1   O3    S    
C17   N4    A    
Cu2   O8    S    
C43   H8    S    
C38   N11   T    
C27   C28   D    
C14   C15   A    
C10   H1    S    
C21   H4    S    
