data_mof_unit_37678.cif
_audit_creation_date              2012-12-11T15:54:01-0500
_audit_creation_method            fapswitch 2.2
_symmetry_space_group_name_H-M    P1
_symmetry_Int_Tables_number       1
_space_group_crystal_system       triclinic
_cell_length_a                    10.653892
_cell_length_b                    10.718454
_cell_length_c                    16.94897
_cell_angle_alpha                 80.862427
_cell_angle_beta                  99.164242
_cell_angle_gamma                 117.804782
_cell_volume                      1682.20770231

loop_
_atom_site_label
_atom_site_type_symbol
_atom_type_description
_atom_site_fract_x
_atom_site_fract_y
_atom_site_fract_z
_atom_type_partial_charge
C1    C     C_R   0.358480 0.222729 0.626036 0.541535
C2    C     C_1   0.294273 0.108629 0.771690 -0.033316
C3    C     C_1   0.337478 0.661551 0.277408 0.022950
C4    C     C_R   0.412349 0.620929 0.601299 0.546090
C5    C     C_1   0.324913 0.670888 0.206412 0.006709
C6    C     C_R   0.797694 0.651652 0.148315 0.002662
C7    C     C_R   0.780843 0.530117 0.197698 0.073098
C8    C     C_R   0.737240 0.501163 0.271425 -0.028968
C9    C     C_R   0.705643 0.711294 0.251874 -0.100642
C10   C     C_R   0.747423 0.737761 0.173296 -0.112148
C11   C     C_3   0.811121 0.407068 0.202826 0.506448
C12   C     C_R   0.511693 0.700081 0.736260 -0.147882
C13   C     C_3   0.763633 0.372883 0.288533 0.163087
C14   C     C_R   0.712409 0.597101 0.304675 -0.015249
C15   C     C_R   0.260154 0.045414 0.183617 -0.018687
C16   C     C_R   0.777436 0.618928 0.626619 0.552040
C17   C     C_R   0.157098 0.065194 0.214192 -0.004070
C18   C     C_R   0.179541 0.105796 0.289554 0.032546
C19   C     C_R   0.388412 0.073451 0.319723 -0.078982
C20   C     C_R   0.368033 0.030047 0.242981 0.233986
C21   C     C_3   0.071747 0.145513 0.184880 0.114707
C22   C     C_3   0.091413 0.183005 0.270907 0.211403
C23   C     C_R   0.492354 0.715271 0.813818 0.234598
C24   C     C_R   0.304482 0.129228 0.338918 -0.062031
C25   C     C_R   0.890842 0.701872 0.856151 0.554796
C26   C     C_R   0.316682 0.705774 0.899277 0.559710
C27   C     C_R   0.252692 0.057770 0.851213 0.553482
C28   C     C_R   0.348481 0.220878 0.402380 0.519408
C29   C     C_R   0.880888 0.689070 0.080989 0.578951
C30   C     C_R   0.313615 0.700303 0.123229 0.538731
C31   C     C_R   0.246327 0.036645 0.095767 0.578240
C32   C     C_R   0.366362 0.653206 0.360698 0.558010
C33   C     C_R   0.699018 0.582093 0.389986 0.567302
C34   C     C_3   0.094397 0.529758 0.765144 -0.209967
C35   C     C_R   0.352374 0.650660 0.837511 0.061442
C36   C     C_R   0.242864 0.550014 0.790951 -0.065323
C37   C     C_R   0.263377 0.532010 0.716049 -0.014955
C38   C     C_3   0.114757 0.507248 0.682866 0.117374
C39   C     C_R   0.394275 0.619251 0.684544 -0.049573
C40   C     C_1   0.823016 0.656604 0.705928 -0.043267
C41   C     C_1   0.850133 0.684676 0.773849 -0.048879
C42   C     C_1   0.330109 0.155228 0.705199 -0.026938
Cr1   Cr    Cr6+3 0.608440 0.389080 0.519680 1.083011
Cr2   Cr    Cr6+3 0.288640 0.400090 0.490760 1.151818
Cr3   Cr    Cr6+3 0.602940 0.710800 0.489510 1.077480
Cr4   Cr    Cr6+3 0.052530 0.947560 0.964210 1.055504
Cr5   Cr    Cr6+3 0.059970 0.626800 0.992920 1.088572
Cr6   Cr    Cr6+3 0.373320 0.938440 0.995370 1.081999
H1    H     H_    0.616024 0.758908 0.714478 0.137453
H2    H     H_    0.743706 0.825412 0.133617 0.191586
H3    H     H_    0.668519 0.097843 0.088651 0.358220
H4    H     H_    0.835076 0.332385 0.396546 0.358576
H5    H     H_    0.468780 0.993335 0.173548 0.403796
H6    H     H_    0.925127 0.063443 0.099771 0.334898
H7    H     H_    0.898673 0.116246 0.446382 0.358288
H8    H     H_    0.693319 0.844670 0.835753 0.340816
H9    H     H_    0.136127 0.248912 0.731048 0.343951
H10   H     H_    0.964032 0.357918 0.205115 0.357123
H11   H     H_    0.665869 0.271511 0.297825 0.128334
H12   H     H_    0.477758 0.075103 0.361159 0.165103
H13   H     H_    0.125328 0.240288 0.141886 0.102305
H14   H     H_    0.152959 0.298891 0.275928 0.078974
H15   H     H_    0.084674 0.628595 0.764833 0.101412
H16   H     H_    0.014441 0.434793 0.798117 0.206924
H17   H     H_    0.111858 0.590020 0.634912 0.131605
H18   H     H_    0.674771 0.783030 0.272027 0.215870
O1    O     O_R   0.754020 0.497590 0.609930 -0.448271
O2    O     O_R   0.406180 0.826930 0.920660 -0.459578
O3    O     O_R   0.358620 0.062870 0.901950 -0.464931
O4    O     O_R   0.481420 0.271390 0.600630 -0.478869
O5    O     O_R   0.163910 0.085460 0.050210 -0.510823
O6    O     O_R   0.935200 0.815170 0.045770 -0.525394
O7    O     O_R   0.916120 0.596690 0.069430 -0.418555
O8    O     O_R   0.192310 0.631200 0.086170 -0.474106
O9    O     O_R   0.406770 0.819480 0.096420 -0.547047
O10   O     O_R   0.359170 0.055960 0.064880 -0.447927
O11   O     O_3   0.161940 0.837600 0.984160 -0.330806
O12   O     O_R   0.295080 0.533620 0.397890 -0.469596
O13   O     O_R   0.263810 0.254550 0.589590 -0.463562
O14   O     O_R   0.300820 0.531200 0.560890 -0.452981
O15   O     O_R   0.491480 0.744020 0.564270 -0.499129
O16   O     O_R   0.726290 0.693800 0.583010 -0.510352
O17   O     O_R   0.747830 0.500190 0.434090 -0.477351
O18   O     O_R   0.475680 0.273800 0.437630 -0.540716
O19   O     O_R   0.257620 0.257160 0.413750 -0.454608
O20   O     O_2   0.546761 0.266311 0.138583 -0.335374
O21   O     O_2   0.725482 0.354803 0.044400 -0.260264
O22   O     O_3   0.705762 0.138173 0.141014 -0.468303
O23   O     O_R   0.485280 0.746620 0.388440 -0.495913
O24   O     O_3   0.877629 0.393169 0.347875 -0.601190
O25   O     O_3   0.462425 0.983559 0.230578 -0.649736
O26   O     O_3   0.930648 0.056571 0.159164 -0.629553
O27   O     O_2   0.808059 0.091036 0.284714 -0.196680
O28   O     O_2   0.918498 0.944995 0.356467 -0.266254
O29   O     O_3   0.977134 0.178637 0.412688 -0.464922
O30   O     O_3   0.605476 0.801793 0.863693 -0.659635
O31   O     O_2   0.847506 0.297905 0.658583 -0.234094
O32   O     O_2   0.021832 0.313002 0.575270 -0.232641
O33   O     O_3   0.031446 0.211181 0.724805 -0.487703
O34   O     O_R   0.720550 0.696220 0.420010 -0.445668
O35   O     O_3   0.956173 0.447193 0.200855 -0.633388
O36   O     O_3   0.500010 0.499990 0.499980 -0.348746
O37   O     O_R   0.163320 0.092900 0.874450 -0.471484
O38   O     O_R   0.934650 0.822080 0.882840 -0.505306
O39   O     O_R   0.915520 0.604140 0.893670 -0.486392
O40   O     O_R   0.191760 0.638110 0.923230 -0.521250
S1    S     S_3+6 0.693833 0.290715 0.128722 0.027985
S2    S     S_3+6 0.941663 0.094091 0.330411 0.080388
S3    S     S_3+6 0.000075 0.329142 0.657732 0.038684

loop_
_geom_bond_atom_site_label_1
_geom_bond_atom_site_label_2
_ccdc_geom_bond_type
C8    C13   S    
C13   O24   S    
C28   O18   A    
Cr1   O17   S    
Cr6   O10   S    
H4    O24   S    
O20   S1    D    
Cr6   O3    S    
C26   O40   A    
C14   C33   S    
C12   H1    S    
C25   O39   A    
C7    C8    A    
C7    C11   S    
C12   C23   A    
O28   S2    D    
C18   C24   A    
C36   C37   A    
C2    C42   T    
C4    O14   A    
O27   S2    D    
C30   O8    A    
C29   O7    A    
H9    O33   S    
C23   O30   S    
C15   C17   A    
C9    H18   S    
C4    O15   A    
Cr3   O16   S    
Cr5   O39   S    
H5    O25   S    
C38   H17   S    
C2    C27   S    
Cr3   O23   S    
C9    C10   A    
C21   H13   S    
C27   O3    A    
C29   O6    A    
C31   O5    A    
O32   S3    D    
C18   C22   S    
C21   C22   S    
Cr1   O18   S    
Cr6   O9    S    
C16   O16   A    
C15   C20   A    
C20   O25   S    
Cr2   O14   S    
Cr5   O7    S    
H7    O29   S    
Cr3   O36   S    
C25   C41   S    
C16   O1    A    
O22   S1    S    
Cr2   O36   S    
Cr4   O38   S    
C17   C21   S    
C35   C36   A    
Cr6   O11   S    
C9    C14   A    
H6    O26   S    
C37   C38   S    
C22   H14   S    
O31   S3    D    
C1    C42   S    
C32   O23   A    
C4    C39   S    
Cr5   O40   S    
C34   H16   S    
C17   C18   A    
C11   O35   S    
H10   O35   S    
Cr6   O2    S    
C38   S3    S    
C33   O17   A    
Cr4   O5    S    
C16   C40   S    
C40   C41   T    
Cr1   O4    S    
C23   C35   A    
C11   S1    S    
C1    O13   A    
Cr5   O11   S    
Cr2   O19   S    
C10   H2    S    
C5    C30   S    
H8    O30   S    
C8    C14   A    
C34   C38   S    
Cr4   O6    S    
Cr2   O13   S    
Cr3   O15   S    
C24   C28   S    
Cr5   O8    S    
C3    C5    T    
Cr3   O34   S    
H3    O22   S    
C6    C10   A    
Cr4   O11   S    
C25   O38   A    
C15   C31   S    
C6    C7    A    
C13   H11   S    
C19   H12   S    
Cr4   O37   S    
C1    O4    A    
C33   O34   A    
C26   O2    A    
C19   C20   A    
Cr2   O12   S    
C19   C24   A    
Cr1   O36   S    
C37   C39   A    
C30   O9    A    
C11   C13   S    
C31   O10   A    
C12   C39   A    
C22   S2    S    
C27   O37   A    
C34   H15   S    
C34   C36   S    
C3    C32   S    
O29   S2    S    
C32   O12   A    
C26   C35   S    
C6    C29   S    
O21   S1    D    
Cr1   O1    S    
C28   O19   A    
C21   O26   S    
O33   S3    S    
