data_mof_unit_53209.cif
_audit_creation_date              2012-10-26T19:03:26-0400
_audit_creation_method            fapswitch 2.2
_symmetry_space_group_name_H-M    P1
_symmetry_Int_Tables_number       1
_space_group_crystal_system       triclinic
_cell_length_a                    10.83769
_cell_length_b                    13.058053
_cell_length_c                    11.847651
_cell_angle_alpha                 99.64382
_cell_angle_beta                  92.959301
_cell_angle_gamma                 93.311196
_cell_volume                      1647.01127933

loop_
_atom_site_label
_atom_site_type_symbol
_atom_type_description
_atom_site_fract_x
_atom_site_fract_y
_atom_site_fract_z
_atom_type_partial_charge
C1    C     C_R   0.496550 0.299679 0.479154 0.597525
C2    C     C_R   0.395285 0.126852 0.392437 0.170487
C3    C     C_R   0.551022 0.139787 0.551810 0.253675
C4    C     C_R   0.263345 0.505028 0.501906 0.653317
C5    C     C_R   0.536771 0.030746 0.546363 -0.057679
C6    C     C_R   0.448218 0.971092 0.464941 -0.109425
C7    C     C_R   0.441918 0.861550 0.451859 0.197254
C8    C     C_R   0.575362 0.875367 0.626350 0.212239
C9    C     C_R   0.606815 0.980331 0.621888 0.234279
C10   C     C_R   0.341088 0.454613 0.034404 0.286490
C11   C     C_R   0.364317 0.447661 0.151866 0.322922
C12   C     C_R   0.074259 0.599694 0.564604 -0.063630
C13   C     C_R   0.574747 0.505516 0.147282 0.375325
C14   C     C_R   0.558646 0.504730 0.026119 -0.128640
C15   C     C_R   0.440200 0.483052 0.969813 -0.121098
C16   C     C_R   0.500429 0.700363 0.521367 0.646003
C17   C     C_R   0.426407 0.483606 0.848342 0.373896
C18   C     C_R   0.634344 0.552205 0.849122 0.377016
C19   C     C_R   0.658267 0.527856 0.960202 0.205447
C20   C     C_R   0.737274 0.505564 0.499304 0.661178
C21   C     C_R   0.143014 0.686795 0.634245 0.253348
C22   C     C_R   0.080184 0.770000 0.692473 0.195744
C23   C     C_R   0.129595 0.510740 0.505814 0.043845
C24   C     C_R   0.957300 0.778337 0.661625 -0.077296
C25   C     C_R   0.891373 0.700193 0.582678 0.263043
C26   C     C_R   0.943990 0.603419 0.549616 -0.080311
C27   C     C_3   0.582821 0.218439 0.741691 -0.045810
C28   C     C_3   0.295832 0.346142 0.758717 -0.056544
C29   C     C_3   0.788710 0.687364 0.870366 -0.050340
C30   C     C_3   0.160762 0.345184 0.991453 -0.068819
C31   C     C_3   0.830392 0.437591 0.958447 -0.077680
C32   C     C_3   0.720110 0.631559 0.229502 -0.045873
C33   C     C_3   0.803395 0.804370 0.469385 -0.142429
C34   C     C_R   0.056785 0.423539 0.447296 0.203764
C35   C     C_3   0.435060 0.794044 0.260435 -0.039182
C36   C     C_3   0.558663 0.863683 0.813474 -0.111778
C37   C     C_3   0.167358 0.969545 0.400012 -0.050895
C38   C     C_R   0.927000 0.425209 0.440925 0.209336
C39   C     C_R   0.871701 0.512832 0.495775 0.036261
C40   C     C_R   0.503806 0.814132 0.534463 -0.015113
C41   C     C_R   0.485095 0.186414 0.470271 -0.037944
C42   C     C_R   0.369867 0.022072 0.396748 0.298047
Cu1   Cu    Cu3+1 0.509250 0.507730 0.615930 1.115520
Cu2   Cu    Cu3+1 0.490750 0.492270 0.384070 1.064474
H1    H     H_    0.913255 0.847903 0.696993 0.146074
H2    H     H_    0.328487 0.320445 0.672910 0.142048
H3    H     H_    0.881750 0.665031 0.896832 0.169529
H4    H     H_    0.738624 0.717679 0.947502 0.081240
H5    H     H_    0.802284 0.753034 0.823619 0.166282
H6    H     H_    0.102789 0.351437 0.066457 0.187326
H7    H     H_    0.225956 0.282380 0.993080 0.105028
H8    H     H_    0.095436 0.321371 0.915265 0.101153
H9    H     H_    0.836812 0.430164 0.863995 0.140994
H10   H     H_    0.776834 0.368672 0.979691 0.109819
H11   H     H_    0.925606 0.438803 0.997413 0.165632
H12   H     H_    0.060754 0.273124 0.404924 0.338092
H13   H     H_    0.312431 0.354507 0.249472 0.374022
H14   H     H_    0.820695 0.645312 0.253329 0.152628
H15   H     H_    0.669717 0.662532 0.304482 0.147708
H16   H     H_    0.698674 0.674868 0.158322 0.083138
H17   H     H_    0.301059 0.765766 0.656309 0.311245
H18   H     H_    0.209586 0.819255 0.811555 0.336728
H19   H     H_    0.878360 0.788363 0.409298 0.093610
H20   H     H_    0.826253 0.879555 0.527873 0.142212
H21   H     H_    0.718528 0.815422 0.418200 0.102291
H22   H     H_    0.895635 0.308108 0.315938 0.338665
H23   H     H_    0.755007 0.984059 0.724900 0.339442
H24   H     H_    0.536540 0.789204 0.275124 0.050177
H25   H     H_    0.418606 0.861632 0.217423 0.156152
H26   H     H_    0.399391 0.722648 0.200453 0.144043
H27   H     H_    0.456861 0.847875 0.796260 0.118084
H28   H     H_    0.580866 0.947747 0.847458 0.119322
H29   H     H_    0.586612 0.819689 0.881615 0.124830
H30   H     H_    0.142061 0.050210 0.432287 0.130320
H31   H     H_    0.185622 0.927649 0.473029 0.126418
H32   H     H_    0.086414 0.927830 0.347301 0.134879
H33   H     H_    0.382384 0.192419 0.261565 0.322445
H34   H     H_    0.494591 0.171704 0.747639 0.070147
H35   H     H_    0.567402 0.302024 0.766664 0.115733
H36   H     H_    0.651353 0.200419 0.807125 0.156913
H37   H     H_    0.195267 0.323698 0.750088 0.136006
H38   H     H_    0.339667 0.302470 0.821457 0.052900
N1    N     N_R   0.523180 0.519350 0.790130 -0.256576
N2    N     N_R   0.476820 0.480650 0.209890 -0.282894
O1    O     O_R   0.506570 0.354460 0.582000 -0.522454
O2    O     O_3   0.706713 0.033180 0.688428 -0.678004
O3    O     O_3   0.324334 0.170977 0.316564 -0.652103
O4    O     O_3   0.633777 0.201272 0.632534 -0.480515
O5    O     O_3   0.312263 0.455608 0.790564 -0.471579
O6    O     O_3   0.724810 0.602727 0.795541 -0.509875
O7    O     O_3   0.220408 0.443308 0.984974 -0.508465
O8    O     O_3   0.779164 0.531098 0.004602 -0.547002
O9    O     O_3   0.272136 0.402285 0.205049 -0.650528
O10   O     O_3   0.692086 0.523469 0.200071 -0.477635
O11   O     O_3   0.269861 0.691723 0.643881 -0.678847
O12   O     O_R   0.490940 0.341410 0.386200 -0.519221
O13   O     O_3   0.137971 0.847647 0.774813 -0.725664
O14   O     O_3   0.780620 0.721293 0.530608 -0.552925
O15   O     O_3   0.851463 0.342658 0.381444 -0.682126
O16   O     O_3   0.370882 0.799980 0.362189 -0.504935
O17   O     O_3   0.623936 0.830465 0.715148 -0.542090
O18   O     O_3   0.269289 0.969807 0.330612 -0.497607
O19   O     O_R   0.327470 0.506530 0.597920 -0.431942
O20   O     O_R   0.311840 0.493480 0.402120 -0.453002
O21   O     O_R   0.509060 0.658590 0.613800 -0.408756
O22   O     O_R   0.493430 0.645540 0.418000 -0.511572
O23   O     O_R   0.688160 0.506520 0.597880 -0.445978
O24   O     O_R   0.672530 0.493470 0.402080 -0.436858
O25   O     O_3   0.115630 0.335896 0.402328 -0.674073

loop_
_geom_bond_atom_site_label_1
_geom_bond_atom_site_label_2
_ccdc_geom_bond_type
C32   O10   S    
C30   H7    S    
Cu1   N1    S    
C32   H14   S    
C37   H30   S    
C27   H34   S    
Cu2   O20   S    
C33   H21   S    
C29   H5    S    
C12   C23   A    
C28   H2    S    
C29   H3    S    
C24   H1    S    
C18   C19   A    
C27   H35   S    
C10   C15   A    
C1    O12   A    
C37   O18   S    
C26   C39   A    
C2    C41   A    
C4    O19   A    
C33   O14   S    
Cu1   O21   S    
C19   O8    S    
C35   H26   S    
C8    C9    A    
C7    C40   A    
C28   O5    S    
C8    O17   S    
C36   H27   S    
C16   O22   A    
C20   O23   A    
C11   O9    S    
C37   H31   S    
C22   O13   S    
H13   O9    S    
C13   C14   A    
C42   O18   S    
C29   O6    S    
Cu2   O24   S    
C1    O1    A    
C38   C39   A    
C7    O16   S    
C29   H4    S    
C28   H38   S    
Cu1   O1    S    
C17   O5    S    
C24   C25   A    
C27   H36   S    
C36   H29   S    
C20   C39   S    
C38   O15   S    
C21   O11   S    
C3    C5    A    
C25   C26   A    
C12   C21   A    
C12   C26   A    
C36   O17   S    
C17   N1    A    
C18   O6    S    
H22   O15   S    
Cu1   Cu2   S    
C5    C9    A    
Cu2   O12   S    
C9    O2    S    
H18   O13   S    
C13   N2    A    
C33   H19   S    
C23   C34   A    
C18   N1    A    
C2    O3    S    
Cu1   O23   S    
C31   H9    S    
H33   O3    S    
C16   O21   A    
C16   C40   S    
C1    C41   S    
C37   H32   S    
C10   O7    S    
C22   C24   A    
C32   H16   S    
C35   O16   S    
H12   O25   S    
C15   C17   A    
C30   H8    S    
C3    C41   A    
H23   O2    S    
C3    O4    S    
C34   C38   A    
C14   C19   A    
C30   O7    S    
Cu2   N2    S    
H17   O11   S    
C6    C7    A    
Cu2   O22   S    
C11   N2    A    
C13   O10   S    
C28   H37   S    
C5    C6    A    
C35   H24   S    
C2    C42   A    
C33   H20   S    
C4    O20   A    
C31   H10   S    
C30   H6    S    
C27   O4    S    
Cu1   O19   S    
C10   C11   A    
C25   O14   S    
C35   H25   S    
C31   O8    S    
C6    C42   A    
C34   O25   S    
C14   C15   A    
C8    C40   A    
C32   H15   S    
C31   H11   S    
C4    C23   S    
C21   C22   A    
C36   H28   S    
C20   O24   A    
