data_mof_unit_49490.cif
_audit_creation_date              2012-12-10T18:19:55-0500
_audit_creation_method            fapswitch 2.2
_symmetry_space_group_name_H-M    P1
_symmetry_Int_Tables_number       1
_space_group_crystal_system       triclinic
_cell_length_a                    14.946709
_cell_length_b                    14.315902
_cell_length_c                    14.100447
_cell_angle_alpha                 90.755679
_cell_angle_beta                  84.995746
_cell_angle_gamma                 89.32425
_cell_volume                      3005.13601831

loop_
_atom_site_label
_atom_site_type_symbol
_atom_type_description
_atom_site_fract_x
_atom_site_fract_y
_atom_site_fract_z
_atom_type_partial_charge
C1    C     C_R   0.326470 0.500837 0.508768 0.852212
C2    C     C_R   0.672887 0.499813 0.492519 0.855330
C3    C     C_R   0.952709 0.527376 0.488712 0.005769
C4    C     C_R   0.046045 0.526808 0.494028 0.010093
C5    C     C_R   0.917012 0.508049 0.400937 0.083385
C6    C     C_R   0.080561 0.546850 0.582071 0.075484
C7    C     C_R   0.929695 0.583150 0.654167 0.110098
C8    C     C_R   0.069388 0.494356 0.322646 0.104666
C9    C     C_R   0.022327 0.586399 0.656322 -0.279622
C10   C     C_R   0.976453 0.499678 0.318038 -0.280616
C11   C     C_R   0.552793 0.797171 0.430286 0.199662
C12   C     C_R   0.446063 0.201294 0.567299 0.204146
C13   C     C_R   0.455997 0.802787 0.573690 0.204775
C14   C     C_R   0.548756 0.199098 0.427862 0.189774
C15   C     C_R   0.443830 0.901106 0.564868 -0.010877
C16   C     C_R   0.547492 0.098689 0.424618 0.016515
C17   C     C_R   0.548357 0.897368 0.424680 0.017824
C18   C     C_R   0.441235 0.101192 0.564021 0.012160
C19   C     C_R   0.493766 0.949285 0.492938 0.038948
C20   C     C_R   0.493727 0.049938 0.493423 0.035969
C21   C     C_R   0.386465 0.953212 0.630436 -0.209512
C22   C     C_R   0.598622 0.045028 0.353900 -0.207222
C23   C     C_R   0.598422 0.947681 0.353518 -0.207440
C24   C     C_R   0.385064 0.050291 0.630136 -0.206109
C25   C     C_R   0.500468 0.499491 0.329534 0.880567
C26   C     C_R   0.502730 0.500568 0.670122 0.877721
C27   C     C_1   0.501404 0.498663 0.227887 -0.217631
C28   C     C_1   0.504560 0.501742 0.771514 -0.201670
C29   C     C_1   0.502486 0.498909 0.142404 -0.036834
C30   C     C_1   0.505239 0.501796 0.856843 -0.033683
C31   C     C_1   0.503832 0.499897 0.042318 -0.001855
C32   C     C_1   0.504759 0.500917 0.956855 -0.001639
C33   C     C_R   0.822930 0.498644 0.398860 0.037945
C34   C     C_R   0.171795 0.527626 0.594115 0.051181
C35   C     C_R   0.769148 0.502629 0.486580 -0.072749
C36   C     C_R   0.229379 0.503714 0.511275 -0.062711
C37   C     C_R   0.804419 0.528230 0.570447 -0.295190
C38   C     C_R   0.195657 0.493334 0.422775 -0.292965
C39   C     C_R   0.895059 0.546152 0.571931 0.093858
C40   C     C_R   0.104243 0.504080 0.412433 0.092180
H1    H     H_    0.758901 0.536363 0.634163 0.152050
H2    H     H_    0.242725 0.476993 0.361941 0.154096
H3    H     H_    0.048164 0.619651 0.717410 0.140449
H4    H     H_    0.951673 0.495201 0.248532 0.157401
H5    H     H_    0.342318 0.919461 0.683904 0.155055
H6    H     H_    0.640840 0.076164 0.297337 0.152450
H7    H     H_    0.639570 0.913359 0.296430 0.153118
H8    H     H_    0.340245 0.083464 0.684849 0.156948
N1    N     N_R   0.500000 0.750030 0.500000 -0.129514
N2    N     N_R   0.500000 0.249970 0.500000 -0.132963
O1    O     O_R   0.367850 0.580280 0.500020 -0.599738
O2    O     O_R   0.632150 0.419720 0.499980 -0.624171
O3    O     O_R   0.632150 0.580280 0.499980 -0.621483
O4    O     O_R   0.367850 0.419720 0.500020 -0.630313
O5    O     O_R   0.500000 0.580290 0.373720 -0.618747
O6    O     O_R   0.500000 0.419710 0.626280 -0.608308
O7    O     O_R   0.500000 0.580290 0.626280 -0.600839
O8    O     O_R   0.500000 0.419710 0.373720 -0.597956
Zn1   Zn    Zn3+2 0.500000 0.607200 0.500000 0.917447
Zn2   Zn    Zn3+2 0.500000 0.392800 0.500000 0.910821
C41   C     C_3   0.780336 0.488669 0.304937 -0.433768
C42   C     C_3   0.796309 0.390979 0.259954 -0.334517
C43   C     C_3   0.762925 0.386459 0.160803 -0.892632
H9    H     H_    0.692482 0.412251 0.162687 0.266627
H10   H     H_    0.805673 0.430236 0.111168 0.258112
H11   H     H_    0.766370 0.313179 0.133803 0.251177
H12   H     H_    0.868070 0.369712 0.254124 0.221058
H13   H     H_    0.761110 0.339336 0.306307 0.213815
H14   H     H_    0.706813 0.502146 0.314225 0.177522
H15   H     H_    0.807005 0.543381 0.255323 0.200078
C44   C     C_3   0.200984 0.531011 0.695816 -0.481519
C45   C     C_3   0.268766 0.457765 0.722091 -0.355645
C46   C     C_3   0.277900 0.460676 0.829445 -0.881483
H16   H     H_    0.295315 0.532133 0.852742 0.265200
H17   H     H_    0.214157 0.439589 0.869394 0.252979
H18   H     H_    0.331746 0.412222 0.847525 0.258160
H19   H     H_    0.246362 0.387331 0.701193 0.224413
H20   H     H_    0.334535 0.472857 0.685575 0.219178
H21   H     H_    0.222177 0.602332 0.713099 0.206238
H22   H     H_    0.142185 0.515965 0.746524 0.224653
C47   C     C_3   0.870697 0.620040 0.740193 -0.425600
C48   C     C_3   0.822050 0.711081 0.717403 -0.329858
C49   C     C_3   0.757093 0.743537 0.801158 -0.891764
H23   H     H_    0.704697 0.690209 0.817129 0.263370
H24   H     H_    0.793772 0.755816 0.865297 0.261475
H25   H     H_    0.723675 0.809832 0.783022 0.249080
H26   H     H_    0.872429 0.766414 0.701085 0.223054
H27   H     H_    0.783530 0.701685 0.654172 0.227546
H28   H     H_    0.822207 0.565946 0.766100 0.197151
H29   H     H_    0.911745 0.634540 0.800724 0.193996
C50   C     C_3   0.128282 0.476611 0.230579 -0.429094
C51   C     C_3   0.176548 0.565616 0.196126 -0.335979
C52   C     C_3   0.239333 0.546021 0.106584 -0.877028
H30   H     H_    0.291472 0.493512 0.121317 0.268943
H31   H     H_    0.200785 0.519559 0.048160 0.258254
H32   H     H_    0.273218 0.611436 0.083136 0.252058
H33   H     H_    0.125879 0.619277 0.180016 0.222063
H34   H     H_    0.216504 0.594711 0.252111 0.228986
H35   H     H_    0.176953 0.418931 0.239846 0.199284
H36   H     H_    0.087015 0.451940 0.173466 0.195384
C53   C     C_3   0.626183 0.745541 0.367793 -0.360459
C54   C     C_3   0.719342 0.763283 0.401346 -0.886477
H37   H     H_    0.721094 0.742615 0.476829 0.275131
H38   H     H_    0.770442 0.720893 0.357277 0.245620
H39   H     H_    0.738019 0.837768 0.395096 0.255899
H40   H     H_    0.618849 0.670442 0.367538 0.262076
H41   H     H_    0.623924 0.763881 0.291876 0.165541
C55   C     C_3   0.391668 0.252642 0.647265 -0.355681
C56   C     C_3   0.435700 0.244260 0.741025 -0.863985
H42   H     H_    0.450318 0.170430 0.757575 0.250079
H43   H     H_    0.499894 0.282632 0.737560 0.280285
H44   H     H_    0.389983 0.273055 0.800416 0.242613
H45   H     H_    0.381727 0.325372 0.630600 0.254075
H46   H     H_    0.321646 0.227328 0.655306 0.157465
C57   C     C_3   0.447940 0.766257 0.674675 -0.342807
C58   C     C_3   0.360055 0.716731 0.700324 -0.856349
H47   H     H_    0.301993 0.765429 0.698531 0.230926
H48   H     H_    0.351915 0.659200 0.649717 0.298297
H49   H     H_    0.360044 0.687793 0.772999 0.239557
H50   H     H_    0.507808 0.724320 0.687832 0.224729
H51   H     H_    0.452908 0.823630 0.727696 0.171848
C59   C     C_3   0.602533 0.248954 0.348899 -0.354588
C60   C     C_3   0.553307 0.249909 0.257908 -0.838426
H52   H     H_    0.550445 0.179013 0.225923 0.240948
H53   H     H_    0.483305 0.276233 0.273004 0.275702
H54   H     H_    0.588728 0.295578 0.204566 0.248880
H55   H     H_    0.618117 0.319933 0.370299 0.256066
H56   H     H_    0.669984 0.216334 0.334710 0.154323

loop_
_geom_bond_atom_site_label_1
_geom_bond_atom_site_label_2
_ccdc_geom_bond_type
C41   H15   S    
C53   H41   S    
C38   C40   A    
C43   H10   S    
C52   H30   S    
C57   H51   S    
O5    Zn1   S    
C27   C29   T    
C46   H16   S    
C19   C20   A    
C6    C9    A    
C44   H21   S    
C47   C48   S    
O3    Zn1   S    
C51   H34   S    
C60   H52   S    
O4    Zn2   S    
C58   H47   S    
C15   C19   A    
C17   C23   A    
C42   H12   S    
C49   H23   S    
C14   C59   S    
C35   C37   A    
C38   H2    S    
C56   H43   S    
C60   H53   S    
O8    Zn2   S    
C57   C58   S    
C55   C56   S    
C54   H39   S    
C55   H46   S    
C59   H55   S    
C45   H20   S    
O2    Zn2   S    
C17   C19   A    
C4    C40   A    
C5    C33   A    
C18   C24   A    
C50   H36   S    
C34   C36   A    
C47   H28   S    
C43   H11   S    
C3    C39   A    
C52   H31   S    
C59   H56   S    
C46   H17   S    
C41   C42   S    
C44   H22   S    
C51   H33   S    
C21   H5    S    
C7    C47   S    
C37   C39   A    
C9    H3    S    
C23   H7    S    
C10   H4    S    
C24   H8    S    
C53   C54   S    
C4    C6    A    
C56   H44   S    
C50   C51   S    
C12   C55   S    
C2    C35   S    
C60   H54   S    
C6    C34   A    
C55   H45   S    
C1    O4    A    
C45   H19   S    
C11   N1    A    
C31   C32   T    
C16   C20   A    
C42   C43   S    
C11   C53   S    
C8    C50   S    
C54   H38   S    
C1    O1    A    
C13   C57   S    
C2    O2    A    
C13   N1    A    
C47   H29   S    
C33   C41   S    
C49   H24   S    
C48   C49   S    
C52   H32   S    
C13   C15   A    
C46   H18   S    
C14   C16   A    
O1    Zn1   S    
C25   O8    A    
C3    C4    A    
C41   H14   S    
C53   H40   S    
C7    C9    A    
C11   C17   A    
C16   C22   A    
C22   H6    S    
C25   O5    A    
C45   C46   S    
C3    C5    A    
C2    O3    A    
C26   O6    A    
C12   N2    A    
C25   C27   S    
C26   C28   S    
N1    Zn1   S    
C58   H49   S    
C42   H13   S    
N2    Zn2   S    
C28   C30   T    
C5    C10   A    
C29   C31   S    
C56   H42   S    
C30   C32   S    
C14   N2    A    
C48   H27   S    
C36   C38   A    
C51   C52   S    
C33   C35   A    
C58   H48   S    
C18   C20   A    
C37   H1    S    
C54   H37   S    
C26   O7    A    
O7    Zn1   S    
C43   H9    S    
O6    Zn2   S    
C15   C21   A    
C49   H25   S    
C44   C45   S    
C8    C10   A    
C57   H50   S    
C21   C24   A    
C12   C18   A    
C7    C39   A    
C22   C23   A    
C8    C40   A    
C50   H35   S    
C59   C60   S    
C34   C44   S    
C48   H26   S    
C1    C36   S    
