data_mof_unit_35713.cif
_audit_creation_date              2012-12-10T19:05:18-0500
_audit_creation_method            fapswitch 2.2
_symmetry_space_group_name_H-M    P1
_symmetry_Int_Tables_number       1
_space_group_crystal_system       triclinic
_cell_length_a                    9.537101
_cell_length_b                    10.854615
_cell_length_c                    17.288176
_cell_angle_alpha                 90.404947
_cell_angle_beta                  85.704208
_cell_angle_gamma                 90.696453
_cell_volume                      1784.50516215

loop_
_atom_site_label
_atom_site_type_symbol
_atom_type_description
_atom_site_fract_x
_atom_site_fract_y
_atom_site_fract_z
_atom_type_partial_charge
C1    C     C_R   0.500672 0.737405 0.503760 0.794250
C2    C     C_R   0.349216 0.481658 0.778885 -0.197701
C3    C     C_R   0.434817 0.443082 0.144227 -0.174665
C4    C     C_R   0.422486 0.446430 0.224740 -0.218263
C5    C     C_R   0.654013 0.541491 0.224727 -0.190067
C6    C     C_R   0.666613 0.537798 0.144088 -0.171553
C7    C     C_R   0.556575 0.489514 0.103507 0.134888
C8    C     C_2   0.460691 0.531845 0.980368 -0.238559
C9    C     C_2   0.567928 0.488806 0.018347 0.113119
C10   C     C_R   0.531579 0.496270 0.265431 -0.028096
C11   C     C_R   0.388539 0.935774 0.487302 0.097214
C12   C     C_R   0.481499 0.503499 0.649914 0.785218
C13   C     C_R   0.502510 0.870613 0.510535 -0.175780
C14   C     C_R   0.616785 0.939942 0.539386 0.075207
C15   C     C_R   0.612985 0.070168 0.535497 -0.222964
C16   C     C_R   0.498217 0.130789 0.506901 -0.134246
C17   C     C_R   0.385909 0.059665 0.486271 0.086505
C18   C     C_3   0.252019 0.065582 0.447280 -0.486883
C19   C     C_3   0.253308 0.923277 0.448820 -0.101560
C20   C     C_R   0.931023 0.416173 0.456175 0.262539
C21   C     C_R   0.919890 0.572660 0.549809 -0.093154
C22   C     C_R   0.068897 0.573093 0.549584 -0.088814
C23   C     C_R   0.499189 0.262826 0.500803 0.821103
C24   C     C_R   0.078478 0.416313 0.456086 0.264299
C25   C     C_3   0.094926 0.402474 0.370066 -0.527569
C26   C     C_3   0.936041 0.401304 0.370312 -0.497701
C27   C     C_R   0.518873 0.499380 0.350027 0.792245
C28   C     C_R   0.472216 0.515804 0.734207 -0.024917
C29   C     C_R   0.587562 0.564331 0.770511 -0.220590
C30   C     C_R   0.582196 0.574144 0.850660 -0.098951
C31   C     C_R   0.462836 0.532558 0.895595 0.209962
C32   C     C_R   0.344665 0.490139 0.859512 -0.183977
Cu1   Cu    Cu3+1 0.359330 0.500020 0.500000 0.932690
Cu2   Cu    Cu3+1 0.640670 0.499980 0.500000 0.929131
H1    H     H_    0.681837 0.595158 0.736945 0.140705
H2    H     H_    0.760747 0.575215 0.113628 0.119811
H3    H     H_    0.698963 0.125651 0.554255 0.160326
H4    H     H_    0.165648 0.106222 0.485640 0.183468
H5    H     H_    0.266961 0.106928 0.388601 0.185998
H6    H     H_    0.167418 0.884226 0.488707 0.149240
H7    H     H_    0.859506 0.632203 0.589556 0.140166
H8    H     H_    0.120611 0.633722 0.588673 0.139651
H9    H     H_    0.143270 0.485304 0.341009 0.214513
H10   H     H_    0.328864 0.408269 0.254995 0.143308
H11   H     H_    0.142911 0.313105 0.351797 0.186470
H12   H     H_    0.895637 0.482690 0.340850 0.213353
H13   H     H_    0.891816 0.311018 0.352747 0.194854
H14   H     H_    0.738875 0.581484 0.255132 0.136550
H15   H     H_    0.250846 0.460160 0.893789 0.126253
H16   H     H_    0.349885 0.403364 0.113663 0.127857
H17   H     H_    0.258376 0.445805 0.751692 0.150912
H18   H     H_    0.365543 0.563400 0.012722 0.119458
H19   H     H_    0.671768 0.613112 0.877545 0.140370
N1    N     N_R   0.852130 0.499070 0.499500 -0.186355
N2    N     N_R   0.148040 0.499110 0.499500 -0.188080
O1    O     O_R   0.381190 0.680360 0.500000 -0.582600
O2    O     O_R   0.618770 0.680320 0.499990 -0.595742
O3    O     O_R   0.367430 0.500040 0.613600 -0.587366
O4    O     O_R   0.605020 0.500000 0.613590 -0.589198
O5    O     O_R   0.381230 0.319680 0.500010 -0.574733
O6    O     O_R   0.618810 0.319640 0.500000 -0.586469
O7    O     O_R   0.394980 0.500000 0.386410 -0.589167
O8    O     O_R   0.632570 0.499960 0.386400 -0.584588
C33   C     C_3   0.739681 0.876264 0.573638 -0.365943
C34   C     C_3   0.837438 0.959466 0.618729 -0.381112
C35   C     C_3   0.946531 0.884078 0.657272 -0.874401
H20   H     H_    0.894260 0.815666 0.697685 0.248265
H21   H     H_    0.015162 0.835556 0.612566 0.240254
H22   H     H_    0.013204 0.946357 0.690625 0.251565
H23   H     H_    0.894933 0.025281 0.578466 0.214626
H24   H     H_    0.774500 0.011599 0.664457 0.229721
H25   H     H_    0.695346 0.804698 0.614528 0.198403
H26   H     H_    0.804652 0.831256 0.525688 0.212541
C36   C     C_3   0.262512 0.859726 0.368252 -0.352962
C37   C     C_3   0.400168 0.883036 0.317766 -0.324119
C38   C     C_3   0.394038 0.823090 0.237949 -0.860646
H27   H     H_    0.372935 0.722648 0.243772 0.264400
H28   H     H_    0.309834 0.865254 0.206222 0.248931
H29   H     H_    0.496222 0.836849 0.203745 0.246770
H30   H     H_    0.419727 0.983387 0.310070 0.217015
H31   H     H_    0.490053 0.843314 0.345977 0.213751
H32   H     H_    0.249208 0.758816 0.377170 0.213519
H33   H     H_    0.171958 0.890653 0.336713 0.192568
N3    N     N_3   0.689531 0.436321 0.977016 -0.586541
H34   H     H_    0.778230 0.487880 0.989638 0.199003
H35   H     H_    0.701328 0.347000 0.997594 0.223062

loop_
_geom_bond_atom_site_label_1
_geom_bond_atom_site_label_2
_ccdc_geom_bond_type
C10   C27   S    
Cu1   N2    S    
C35   H21   S    
Cu1   O3    S    
C38   H29   S    
C36   H33   S    
C18   H5    S    
C25   H9    S    
C24   N2    A    
C11   C19   S    
C12   C28   S    
C5    C6    A    
C28   C29   A    
C1    O1    A    
C38   H28   S    
C3    C7    A    
C30   C31   A    
C35   H22   S    
C16   C17   A    
C15   C16   A    
C2    C32   A    
C18   C19   S    
C15   H3    S    
C12   O4    A    
N3    H34   S    
C20   C24   A    
Cu1   O7    S    
Cu2   O2    S    
C33   H26   S    
C37   H30   S    
C8    H18   S    
C12   O3    A    
Cu1   O1    S    
C35   H20   S    
C21   C22   A    
C36   H32   S    
C30   H19   S    
C3    H16   S    
Cu1   Cu2   S    
C23   O5    A    
C5    H14   S    
C36   C37   S    
C24   C25   S    
C20   N1    A    
C19   H6    S    
C37   H31   S    
C4    H10   S    
C25   C26   S    
C34   H24   S    
Cu2   O6    S    
C37   C38   S    
C29   C30   A    
C27   O7    A    
C1    O2    A    
C31   C32   A    
C14   C33   S    
C17   C18   S    
C8    C9    D    
C38   H27   S    
C6    C7    A    
C27   O8    A    
C26   H13   S    
C21   H7    S    
Cu2   N1    S    
C16   C23   S    
Cu2   O4    S    
C1    C13   S    
C4    C10   A    
C3    C4    A    
C25   H11   S    
C7    C9    S    
C11   C17   A    
C8    C31   S    
C19   C36   S    
N3    H35   S    
C22   N2    A    
Cu1   O5    S    
C29   H1    S    
C21   N1    A    
C33   C34   S    
C18   H4    S    
C5    C10   A    
C11   C13   A    
C22   H8    S    
C20   C26   S    
Cu2   O8    S    
C6    H2    S    
C33   H25   S    
C32   H15   S    
C2    H17   S    
C26   H12   S    
C9    N3    S    
C23   O6    A    
C34   C35   S    
C14   C15   A    
C2    C28   A    
C13   C14   A    
C34   H23   S    
