data_mof_unit_22760.cif
_audit_creation_date              2012-12-10T20:45:30-0500
_audit_creation_method            fapswitch 2.2
_symmetry_space_group_name_H-M    P1
_symmetry_Int_Tables_number       1
_space_group_crystal_system       triclinic
_cell_length_a                    10.718467
_cell_length_b                    10.762684
_cell_length_c                    9.872298
_cell_angle_alpha                 88.475442
_cell_angle_beta                  91.355488
_cell_angle_gamma                 90.364007
_cell_volume                      1138.12271148

loop_
_atom_site_label
_atom_site_type_symbol
_atom_type_description
_atom_site_fract_x
_atom_site_fract_y
_atom_site_fract_z
_atom_type_partial_charge
C1    C     C_R   0.501363 0.259857 0.501723 0.911327
C2    C     C_R   0.256508 0.800408 0.095567 -0.213116
C3    C     C_R   0.932435 0.588701 0.404378 -0.069409
C4    C     C_R   0.872919 0.514963 0.504787 -0.082547
C5    C     C_R   0.941340 0.447608 0.605227 0.120082
C6    C     C_R   0.068234 0.442827 0.596942 -0.135674
C7    C     C_R   0.127987 0.508065 0.494080 -0.121168
C8    C     C_R   0.062444 0.582589 0.396882 -0.096945
C9    C     C_R   0.878826 0.462779 0.847104 0.032322
C10   C     C_R   0.832285 0.407764 0.965562 -0.167454
C11   C     C_R   0.788922 0.285262 0.968066 0.042258
C12   C     C_R   0.260333 0.503143 0.498001 0.873375
C13   C     C_R   0.791840 0.215835 0.850557 -0.259402
C14   C     C_R   0.840582 0.266065 0.729919 -0.044429
C15   C     C_R   0.885164 0.391109 0.728184 0.026515
C16   C     C_R   0.496106 0.057316 0.621987 0.145615
C17   C     C_R   0.516611 0.128201 0.504623 -0.130041
C18   C     C_R   0.558928 0.070802 0.388645 -0.172077
C19   C     C_R   0.558269 0.942205 0.381080 -0.037285
C20   C     C_R   0.518373 0.871795 0.495505 -0.181062
C21   C     C_R   0.497900 0.930652 0.616494 0.183697
C22   C     C_3   0.391669 0.912573 0.709414 -0.440039
C23   C     C_R   0.504020 0.739877 0.497866 0.845689
C24   C     C_3   0.386841 0.052302 0.714310 -0.501785
C25   C     C_R   0.413638 0.432089 0.071183 0.259593
C26   C     C_R   0.576879 0.576774 0.071630 -0.140769
C27   C     C_R   0.576432 0.577273 0.927646 -0.151531
C28   C     C_R   0.413670 0.432338 0.928656 0.273854
C29   C     C_3   0.399939 0.295544 0.927557 -0.525994
C30   C     C_3   0.396973 0.294959 0.080722 -0.487227
C31   C     C_R   0.739887 0.504449 0.501576 0.873304
C32   C     C_R   0.232087 0.851227 0.220324 -0.085670
C33   C     C_R   0.167575 0.782230 0.319488 0.044721
C34   C     C_R   0.130027 0.658404 0.292677 0.019943
C35   C     C_R   0.153087 0.607957 0.164199 0.097485
C36   C     C_R   0.216398 0.680456 0.066908 -0.108108
H1    H     H_    0.305806 0.854973 0.020133 0.145173
H2    H     H_    0.756507 0.121261 0.854083 0.187849
H3    H     H_    0.583724 0.125694 0.300208 0.197902
H4    H     H_    0.308273 0.869992 0.660450 0.226980
H5    H     H_    0.422005 0.867082 0.807029 0.194363
H6    H     H_    0.300492 0.093235 0.667639 0.241559
H7    H     H_    0.410389 0.080684 0.818073 0.201591
H8    H     H_    0.641566 0.636042 0.125624 0.176851
H9    H     H_    0.263298 0.945306 0.238923 0.169452
H10   H     H_    0.640244 0.637508 0.873263 0.167151
H11   H     H_    0.310111 0.266843 0.878884 0.230135
H12   H     H_    0.486219 0.253157 0.889586 0.202436
H13   H     H_    0.304790 0.267624 0.121625 0.231471
H14   H     H_    0.477891 0.246696 0.129592 0.204979
H15   H     H_    0.235179 0.644320 0.968148 0.170237
H16   H     H_    0.121014 0.389440 0.673385 0.159716
H17   H     H_    0.828909 0.461483 0.056771 0.169760
N1    N     N_R   0.499160 0.499140 0.142800 -0.113627
N2    N     N_R   0.499160 0.499180 0.857150 -0.123735
O1    O     O_R   0.500020 0.316790 0.614690 -0.624517
O2    O     O_R   0.500000 0.316760 0.385350 -0.601688
O3    O     O_R   0.316770 0.500030 0.614670 -0.613693
O4    O     O_R   0.316750 0.499990 0.385330 -0.628080
O5    O     O_R   0.500000 0.683240 0.614650 -0.611878
O6    O     O_R   0.499980 0.683210 0.385310 -0.656380
O7    O     O_R   0.683250 0.500010 0.614670 -0.622495
O8    O     O_R   0.683230 0.499970 0.385330 -0.588216
Zn1   Zn    Zn3+2 0.500010 0.500020 0.653130 0.958849
Zn2   Zn    Zn3+2 0.499990 0.499980 0.346870 0.976253
C37   C     C_2   0.740127 0.228361 0.093548 0.395336
H18   H     H_    0.697652 0.136970 0.091028 0.102554
O9    O     O_2   0.746805 0.282525 0.200641 -0.527646
C38   C     C_2   0.843473 0.184455 0.609688 0.913308
O10   O     O_2   0.868822 0.226654 0.497455 -0.590965
O11   O     O_R   0.815995 0.057617 0.625082 -0.794966
H19   H     H_    0.820237 0.011874 0.536828 0.367582
C39   C     C_2   0.590069 0.888443 0.249941 0.343866
H20   H     H_    0.527905 0.823114 0.200699 0.099754
O12   O     O_2   0.685601 0.920004 0.193377 -0.562030
C40   C     C_2   0.136965 0.841534 0.448569 0.344769
H21   H     H_    0.096495 0.787629 0.531027 0.119666
O13   O     O_2   0.155286 0.952447 0.463997 -0.570085
C41   C     C_2   0.110628 0.480380 0.130663 0.327864
H22   H     H_    0.063715 0.421901 0.204939 0.128582
O14   O     O_2   0.127123 0.438680 0.018739 -0.618624
C42   C     C_2   0.858835 0.679535 0.318360 0.437870
H23   H     H_    0.774218 0.718561 0.357083 0.080214
O15   O     O_2   0.889947 0.710460 0.204223 -0.578764
C43   C     C_2   0.919047 0.595482 0.854873 0.411683
H24   H     H_    0.916655 0.641435 0.951174 0.128927
O16   O     O_2   0.953665 0.655923 0.756309 -0.585336

loop_
_geom_bond_atom_site_label_1
_geom_bond_atom_site_label_2
_ccdc_geom_bond_type
C37   O9    D    
O8    Zn2   S    
C16   C21   A    
C24   H6    S    
C32   H9    S    
C35   C36   A    
C26   H8    S    
C7    C8    A    
N1    Zn2   S    
C43   H24   S    
C25   C28   A    
C26   C27   A    
C29   H11   S    
C28   C29   S    
C1    O1    A    
C40   O13   D    
C18   C19   A    
C5    C6    A    
C27   N2    A    
C22   H5    S    
C2    C32   A    
C34   C35   A    
C39   H20   S    
C38   O11   S    
C10   H17   S    
O7    Zn1   S    
C9    C43   S    
C12   O4    A    
C19   C20   A    
C16   C17   A    
O1    Zn1   S    
C9    C10   A    
C11   C37   S    
C12   O3    A    
C37   H18   S    
C30   H14   S    
C16   C24   S    
C21   C22   S    
C39   O12   D    
C31   O7    A    
C7    C12   S    
C26   N1    A    
C28   N2    A    
C33   C34   A    
C43   O16   D    
O3    Zn1   S    
C23   O5    A    
C29   H12   S    
C31   O8    A    
C19   C39   S    
C25   N1    A    
C3    C8    A    
C41   O14   D    
C18   H3    S    
C29   C30   S    
C1    O2    A    
C33   C40   S    
C20   C23   S    
C22   H4    S    
N2    Zn1   S    
C3    C42   S    
C17   C18   A    
C8    C34   S    
C40   H21   S    
C13   H2    S    
C36   H15   S    
C27   H10   S    
C30   H13   S    
C42   O15   D    
C14   C38   S    
C22   C24   S    
C3    C4    A    
C2    C36   A    
C25   C30   S    
O2    Zn2   S    
C4    C5    A    
C6    C7    A    
C1    C17   S    
O5    Zn1   S    
C32   C33   A    
C9    C15   A    
O11   H19   S    
O4    Zn2   S    
C11   C13   A    
C2    H1    S    
C35   C41   S    
C38   O10   D    
C5    C15   S    
C4    C31   S    
C10   C11   A    
C41   H22   S    
O6    Zn2   S    
C23   O6    A    
C20   C21   A    
C42   H23   S    
C24   H7    S    
C14   C15   A    
C6    H16   S    
C13   C14   A    
