data_mof_unit_61812.cif
_audit_creation_date              2012-12-10T19:45:10-0500
_audit_creation_method            fapswitch 2.2
_symmetry_space_group_name_H-M    P1
_symmetry_Int_Tables_number       1
_space_group_crystal_system       triclinic
_cell_length_a                    18.705217
_cell_length_b                    18.721321
_cell_length_c                    18.656199
_cell_angle_alpha                 109.279353
_cell_angle_beta                  109.326529
_cell_angle_gamma                 109.295295
_cell_volume                      5060.77658108

loop_
_atom_site_label
_atom_site_type_symbol
_atom_type_description
_atom_site_fract_x
_atom_site_fract_y
_atom_site_fract_z
_atom_type_partial_charge
Br1   Br    Br    0.273358 0.478686 0.623477 -0.508415
Br2   Br    Br    0.717862 0.913838 0.477344 -0.520990
Br3   Br    Br    0.744717 0.526343 0.412116 -0.528337
Br4   Br    Br    0.405809 0.872098 0.677398 -0.544532
Br5   Br    Br    0.016619 0.208065 0.361634 -0.505421
C1    C     C_R   0.120569 0.000484 0.619990 0.857760
C2    C     C_R   0.522589 0.479578 0.799225 -0.128337
C3    C     C_R   0.513096 0.553312 0.826075 -0.151500
C4    C     C_R   0.119344 0.120011 0.498928 0.872527
C5    C     C_R   0.438984 0.552109 0.773366 -0.163395
C6    C     C_R   0.374401 0.477523 0.693038 0.274292
C7    C     C_R   0.384170 0.403298 0.665483 0.047017
C8    C     C_R   0.255828 0.077437 0.757259 0.086569
C9    C     C_R   0.184594 0.999325 0.686259 -0.072843
C10   C     C_R   0.172914 0.920475 0.683516 -0.212308
C11   C     C_R   0.237118 0.920678 0.748304 -0.167343
C12   C     C_R   0.961221 0.971433 0.170665 -0.174393
C13   C     C_R   0.313100 0.999620 0.814521 -0.061046
C14   C     C_R   0.318981 0.077892 0.821510 0.025419
C15   C     C_3   0.391212 0.156788 0.836736 -0.443386
C16   C     C_R   0.879964 0.000421 0.379958 0.920978
C17   C     C_3   0.321678 0.155176 0.763486 -0.009199
C18   C     C_R   0.818824 0.748930 0.505166 0.015063
C19   C     C_R   0.810136 0.816552 0.497159 -0.164379
C20   C     C_R   0.734975 0.822153 0.491684 0.180231
C21   C     C_R   0.671335 0.758485 0.495207 0.140857
C22   C     C_R   0.684086 0.690190 0.503081 -0.177943
C23   C     C_R   0.246024 0.243025 0.421350 -0.206813
C24   C     C_R   0.759171 0.689101 0.508973 0.040405
C25   C     C_3   0.807114 0.639787 0.515635 0.134983
C26   C     C_3   0.876609 0.709813 0.512789 -0.475683
C27   C     C_R   0.743450 0.921362 0.241563 0.151083
C28   C     C_R   0.878382 0.880524 0.498583 0.948020
C29   C     C_R   0.811470 0.999589 0.315550 -0.108970
C30   C     C_R   0.808612 0.076987 0.330730 -0.146728
C31   C     C_R   0.745420 0.077279 0.265585 -0.201114
C32   C     C_R   0.683812 0.999573 0.187154 -0.099608
C33   C     C_R   0.679470 0.921278 0.178360 0.154977
C34   C     C_R   0.314248 0.314824 0.501547 -0.051560
C35   C     C_3   0.674496 0.850805 0.106006 -0.544068
C36   C     C_3   0.744983 0.850669 0.175941 -0.465286
C37   C     C_R   0.500720 0.621039 0.620330 0.884422
C38   C     C_R   0.380047 0.380470 0.500822 0.886042
C39   C     C_R   0.500149 0.379860 0.380084 0.904578
C40   C     C_R   0.038616 0.968761 0.202964 -0.124799
C41   C     C_R   0.619691 0.621136 0.500876 0.952636
C42   C     C_R   0.499527 0.119655 0.119516 0.877529
C43   C     C_R   0.379973 0.999540 0.879344 0.902938
C44   C     C_R   0.499713 0.880214 0.879735 0.903624
C45   C     C_R   0.317379 0.324000 0.580578 0.049202
C46   C     C_R   0.619719 0.999025 0.119342 0.869356
C47   C     C_R   0.423658 0.688405 0.673945 0.103526
C48   C     C_R   0.500429 0.685998 0.687365 -0.080700
C49   C     C_R   0.575712 0.742486 0.769863 -0.213823
C50   C     C_R   0.575918 0.807391 0.833777 -0.227776
C51   C     C_R   0.500403 0.814190 0.815332 -0.031770
C52   C     C_R   0.110177 0.036678 0.283705 -0.171686
C53   C     C_R   0.423367 0.751254 0.737568 0.047945
C54   C     C_3   0.359069 0.759684 0.672084 0.055555
C55   C     C_3   0.360043 0.690257 0.601739 -0.429413
C56   C     C_R   0.252204 0.258967 0.578035 -0.211924
C57   C     C_R   0.428158 0.255980 0.233745 0.127699
C58   C     C_R   0.501323 0.314270 0.315219 -0.112231
C59   C     C_R   0.576923 0.306403 0.332865 -0.142362
C60   C     C_R   0.577072 0.242237 0.267722 -0.196136
C61   C     C_R   0.500805 0.184453 0.186351 -0.088101
C62   C     C_R   0.427513 0.192751 0.172507 0.119115
C63   C     C_3   0.335634 0.157619 0.106866 -0.502910
C64   C     C_R   0.104523 0.107618 0.332848 0.058725
C65   C     C_3   0.335942 0.229789 0.177498 -0.456075
C66   C     C_R   0.026631 0.110571 0.299697 0.277891
C67   C     C_R   0.184865 0.186086 0.497964 -0.055784
C68   C     C_R   0.955215 0.042131 0.218882 -0.168767
C69   C     C_3   0.334951 0.061481 0.639853 -0.655029
C70   C     C_3   0.602899 0.803939 0.576686 -0.684049
C71   C     C_R   0.180334 0.178352 0.418722 0.047466
C72   C     C_R   0.458206 0.404616 0.719381 -0.165432
H1    H     H_    0.905890 0.918767 0.108113 0.137908
H2    H     H_    0.829829 0.640083 0.578885 0.134928
H3    H     H_    0.939331 0.752416 0.575372 0.165934
H4    H     H_    0.882530 0.685771 0.453184 0.244466
H5    H     H_    0.857741 0.137660 0.390484 0.200554
H6    H     H_    0.745692 0.137766 0.275414 0.165437
H7    H     H_    0.610714 0.789950 0.069178 0.216631
H8    H     H_    0.696269 0.873374 0.064947 0.193199
H9    H     H_    0.721746 0.789864 0.179696 0.213428
H10   H     H_    0.169754 0.033778 0.308289 0.138904
H11   H     H_    0.807530 0.872671 0.175279 0.214267
H12   H     H_    0.563006 0.611319 0.887922 0.142870
H13   H     H_    0.635038 0.738946 0.783492 0.165157
H14   H     H_    0.634830 0.852965 0.896341 0.141727
H15   H     H_    0.295609 0.737631 0.671055 0.148717
H16   H     H_    0.297081 0.628167 0.560350 0.216983
H17   H     H_    0.388840 0.713772 0.565111 0.226342
H18   H     H_    0.635612 0.350072 0.395830 0.199363
H19   H     H_    0.635611 0.237167 0.280901 0.158416
H20   H     H_    0.330521 0.166727 0.049771 0.202920
H21   H     H_    0.292233 0.090854 0.091026 0.213426
H22   H     H_    0.330345 0.280202 0.160852 0.216401
H23   H     H_    0.431818 0.609271 0.795024 0.163634
H24   H     H_    0.293034 0.204779 0.202845 0.197646
H25   H     H_    0.895077 0.043817 0.193233 0.166615
H26   H     H_    0.243488 0.238025 0.360822 0.146354
H27   H     H_    0.253704 0.265428 0.638568 0.148650
H28   H     H_    0.466274 0.347848 0.699150 0.147664
H29   H     H_    0.579871 0.480504 0.840315 0.139244
H30   H     H_    0.295444 0.153740 0.644707 0.209044
H31   H     H_    0.369212 0.074084 0.603177 0.229793
H32   H     H_    0.268083 0.006110 0.591972 0.237681
H33   H     H_    0.370070 0.042922 0.684510 0.269086
H34   H     H_    0.115631 0.859342 0.630774 0.154953
H35   H     H_    0.570349 0.784909 0.451485 0.269211
H36   H     H_    0.653367 0.873842 0.614331 0.258210
H37   H     H_    0.620118 0.771148 0.614143 0.211410
H38   H     H_    0.539387 0.798753 0.567987 0.247244
H39   H     H_    0.229377 0.859367 0.744593 0.162509
H40   H     H_    0.418961 0.213518 0.901700 0.174561
H41   H     H_    0.441090 0.145078 0.823468 0.228324
H42   H     H_    0.312968 0.212951 0.786737 0.130161
H43   H     H_    0.043131 0.913979 0.165441 0.136996
N1    N     N_2   0.331958 0.138937 0.686238 -0.300573
N2    N     N_2   0.595893 0.763124 0.492080 -0.283264
O1    O     O_R   0.091630 0.948280 0.539910 -0.626015
O2    O     O_R   0.448290 0.040010 0.091660 -0.620910
O3    O     O_R   0.460120 0.051750 0.908410 -0.609783
O4    O     O_R   0.091590 0.051710 0.643320 -0.629485
O5    O     O_R   0.356670 0.948360 0.908460 -0.633865
O6    O     O_R   0.551710 0.960090 0.908440 -0.593726
O7    O     O_R   0.448260 0.856700 0.908490 -0.633579
O8    O     O_R   0.643330 0.051740 0.091640 -0.621047
O9    O     O_R   0.539880 0.948350 0.091690 -0.614784
O10   O     O_R   0.091640 0.039900 0.448300 -0.626628
O11   O     O_R   0.091600 0.143340 0.551710 -0.605300
O12   O     O_R   0.551690 0.591610 0.643360 -0.628431
O13   O     O_R   0.908410 0.948290 0.356680 -0.627962
O14   O     O_R   0.908370 0.051720 0.460090 -0.593085
O15   O     O_R   0.908400 0.856660 0.448290 -0.624935
O16   O     O_R   0.908360 0.960100 0.551700 -0.587411
O17   O     O_R   0.448260 0.591640 0.539950 -0.610534
O18   O     O_R   0.356650 0.408410 0.448330 -0.601040
O19   O     O_R   0.460080 0.408380 0.551740 -0.627376
O20   O     O_R   0.448280 0.408420 0.356720 -0.624853
O21   O     O_R   0.551710 0.408390 0.460130 -0.620377
O22   O     O_R   0.539890 0.591650 0.448340 -0.595134
O23   O     O_R   0.643320 0.591620 0.551750 -0.632563
O24   O     O_R   0.551740 0.143400 0.091610 -0.616490
Zn1   Zn    Zn3+2 0.000030 0.930940 0.430950 0.969626
Zn2   Zn    Zn3+2 0.999970 0.069060 0.569050 1.024119
Zn3   Zn    Zn3+2 0.430920 0.500040 0.430990 1.001251
Zn4   Zn    Zn3+2 0.569050 0.499990 0.569090 0.970131
Zn5   Zn    Zn3+2 0.569070 0.069080 0.000020 1.000460
Zn6   Zn    Zn3+2 0.430930 0.931020 0.000080 0.970529

loop_
_geom_bond_atom_site_label_1
_geom_bond_atom_site_label_2
_ccdc_geom_bond_type
C50   C51   A    
C22   C24   A    
C70   N2    S    
C35   H7    S    
C14   C15   S    
Br1   C6    S    
C4    C67   S    
C67   C71   A    
C69   H32   S    
C15   H41   S    
C65   H24   S    
C26   H3    S    
C63   C65   S    
C48   C49   A    
C65   H22   S    
C36   H9    S    
C40   C52   A    
C21   C22   A    
C32   C33   A    
C57   C62   A    
C18   C24   A    
O20   Zn3   S    
C31   C32   A    
C12   C40   A    
C29   C30   A    
C37   C48   S    
C25   C26   S    
C32   C46   S    
C41   O23   A    
C31   H6    S    
C10   C11   A    
O12   Zn4   S    
C57   C65   S    
C64   C71   S    
C13   C14   A    
C64   C66   A    
C63   H20   S    
C50   H14   S    
O3    Zn5   S    
C43   O3    A    
C30   H5    S    
C60   H19   S    
C30   C31   A    
O16   Zn2   S    
C36   H11   S    
C18   C19   A    
C70   H36   S    
C27   C33   A    
C47   C55   S    
C42   C61   S    
O23   Zn4   S    
C2    C72   A    
C55   H16   S    
C61   C62   A    
O2    Zn6   S    
C42   O24   A    
C54   C55   S    
C8    C9    A    
C12   C68   A    
O9    Zn6   S    
C1    O1    A    
C11   H39   S    
C15   H40   S    
C46   O8    A    
O19   Zn4   S    
O21   Zn4   S    
C39   C58   S    
C17   H42   S    
C8    C14   A    
C62   C63   S    
C10   H34   S    
C2    C3    A    
C56   H27   S    
C19   C20   A    
C1    O4    A    
O7    Zn6   S    
C28   O15   A    
C66   C68   A    
O4    Zn2   S    
C41   O22   A    
C16   C29   S    
C23   C34   A    
C53   C54   S    
C44   O7    A    
O17   Zn3   S    
C52   H10   S    
C18   C26   S    
C35   H8    S    
Br3   C25   S    
H35   N2    S    
C24   C25   S    
O5    Zn6   S    
C1    C9    S    
O6    Zn5   S    
C7    C45   S    
C28   O16   A    
C27   C36   S    
C7    C72   A    
C69   N1    S    
C57   C58   A    
C2    H29   S    
C38   O18   A    
O11   Zn2   S    
C5    H23   S    
O14   Zn2   S    
C47   C53   A    
C25   H2    S    
C40   H43   S    
C3    C5    A    
C35   C36   S    
O1    Zn1   S    
O13   Zn1   S    
C38   O19   A    
C70   H38   S    
H30   N1    S    
C23   C71   A    
C47   C48   A    
C22   C41   S    
C17   N1    S    
C4    O10   A    
C44   O6    A    
C49   C50   A    
C68   H25   S    
C46   O9    A    
C16   O14   A    
O22   Zn3   S    
C37   O17   A    
O10   Zn1   S    
C70   H37   S    
O15   Zn1   S    
C11   C13   A    
C4    O11   A    
C56   C67   A    
C59   H18   S    
C15   C17   S    
C58   C59   A    
C13   C43   S    
C69   H33   S    
C34   C38   S    
C6    C7    A    
C49   H13   S    
C44   C51   S    
C19   C28   S    
C26   H4    S    
C37   O12   A    
C59   C60   A    
C72   H28   S    
C20   C21   A    
Br5   C66   S    
C43   O5    A    
C33   C35   S    
C23   H26   S    
C42   O2    A    
C39   O21   A    
Br4   C54   S    
C12   H1    S    
C51   C53   A    
C8    C17   S    
Br2   C20   S    
C54   H15   S    
C63   H21   S    
C5    C6    A    
C69   H31   S    
O24   Zn5   S    
C34   C45   A    
C39   O20   A    
C60   C61   A    
O8    Zn5   S    
C45   C56   A    
C9    C10   A    
C3    H12   S    
C21   N2    S    
C52   C64   A    
O18   Zn3   S    
C16   O13   A    
C27   C29   A    
C55   H17   S    
