data_mof_unit_54573.cif
_audit_creation_date              2012-12-10T18:52:56-0500
_audit_creation_method            fapswitch 2.2
_symmetry_space_group_name_H-M    P1
_symmetry_Int_Tables_number       1
_space_group_crystal_system       triclinic
_cell_length_a                    9.822049
_cell_length_b                    10.700586
_cell_length_c                    16.79231
_cell_angle_alpha                 90.128153
_cell_angle_beta                  85.576142
_cell_angle_gamma                 89.942389
_cell_volume                      1759.63623123

loop_
_atom_site_label
_atom_site_type_symbol
_atom_type_description
_atom_site_fract_x
_atom_site_fract_y
_atom_site_fract_z
_atom_type_partial_charge
C1    C     C_R   0.499968 0.740164 0.500236 0.851312
C2    C     C_R   0.499967 0.259823 0.500117 0.905198
C3    C     C_R   0.621190 0.936005 0.511665 -0.212736
C4    C     C_R   0.378341 0.063965 0.489945 -0.190213
C5    C     C_R   0.621236 0.063860 0.511522 -0.189320
C6    C     C_R   0.378308 0.936123 0.490048 -0.213727
C7    C     C_R   0.499871 0.127417 0.500533 0.004997
C8    C     C_R   0.499801 0.872554 0.500714 -0.001513
C9    C     C_R   0.932725 0.404245 0.465407 -0.096687
C10   C     C_R   0.067288 0.595755 0.534556 -0.056274
C11   C     C_R   0.076566 0.403748 0.466111 -0.089992
C12   C     C_R   0.923313 0.595653 0.534634 -0.087850
C13   C     C_R   0.481670 0.495495 0.652778 0.952727
C14   C     C_R   0.518270 0.495959 0.347092 0.949542
C15   C     C_R   0.471107 0.466800 0.737147 -0.249992
C16   C     C_R   0.529192 0.468643 0.262304 -0.272427
C17   C     C_R   0.555680 0.372570 0.765203 0.415778
C18   C     C_R   0.442679 0.377437 0.232535 0.436862
C19   C     C_R   0.538216 0.338963 0.845579 -0.289543
C20   C     C_R   0.466638 0.338919 0.153435 -0.276948
C21   C     C_R   0.444362 0.402775 0.897494 0.068102
C22   C     C_R   0.564638 0.399365 0.102709 0.056945
C23   C     C_R   0.358875 0.494113 0.869026 -0.263012
C24   C     C_R   0.649588 0.490348 0.132099 -0.263662
C25   C     C_R   0.372910 0.527991 0.788892 0.398468
C26   C     C_R   0.631489 0.526533 0.211866 0.403863
C27   C     C_2   0.445343 0.384475 0.983041 -0.186164
C28   C     C_2   0.564431 0.381643 0.016969 -0.187805
H1    H     H_    0.660872 0.388482 0.980824 0.147373
H2    H     H_    0.349385 0.394687 0.019380 0.149032
H3    H     H_    0.285674 0.542921 0.909541 0.153539
H4    H     H_    0.725367 0.537290 0.092485 0.154719
H5    H     H_    0.406880 0.264034 0.130338 0.148462
H6    H     H_    0.598445 0.264139 0.868290 0.142736
H7    H     H_    0.715678 0.887329 0.520339 0.148944
H8    H     H_    0.283863 0.112622 0.481182 0.152739
H9    H     H_    0.715742 0.112460 0.520036 0.148325
H10   H     H_    0.283812 0.887545 0.481401 0.152231
H11   H     H_    0.134814 0.326703 0.439254 0.142177
H12   H     H_    0.864977 0.671917 0.562529 0.122116
N1    N     N_R   0.142790 0.500030 0.500020 -0.080579
N2    N     N_R   0.857210 0.499970 0.499980 -0.079736
O1    O     O_R   0.385380 0.683250 0.500010 -0.642956
O2    O     O_R   0.614620 0.316750 0.499990 -0.630102
O3    O     O_R   0.614710 0.683220 0.500000 -0.639377
O4    O     O_R   0.385290 0.316780 0.500000 -0.628626
O5    O     O_R   0.371780 0.500040 0.615800 -0.582688
O6    O     O_R   0.628220 0.499960 0.384200 -0.583929
O7    O     O_R   0.601110 0.500010 0.615800 -0.598070
O8    O     O_R   0.398890 0.499990 0.384200 -0.601571
Zn1   Zn    Zn3+2 0.346870 0.500020 0.500000 0.960084
Zn2   Zn    Zn3+2 0.653130 0.499980 0.500000 0.958907
O9    O     O_3   0.644606 0.307568 0.711305 -0.624293
C29   C     C_3   0.775402 0.293792 0.740298 0.084045
H13   H     H_    0.776888 0.208889 0.778285 0.136099
H14   H     H_    0.804773 0.377150 0.775245 0.129005
C30   C     C_3   0.881134 0.277595 0.669426 -0.306834
H15   H     H_    0.854207 0.195270 0.633382 0.212959
H16   H     H_    0.879863 0.361979 0.631397 0.245050
C31   C     C_3   0.024893 0.260167 0.696336 -0.957917
H17   H     H_    0.055001 0.342760 0.731114 0.281613
H18   H     H_    0.098586 0.249697 0.643138 0.270990
H19   H     H_    0.029700 0.174962 0.733690 0.258350
O10   O     O_3   0.343080 0.320297 0.283386 -0.631694
C32   C     C_3   0.211246 0.333675 0.255091 0.097896
H20   H     H_    0.139356 0.278250 0.295192 0.148942
H21   H     H_    0.205019 0.292857 0.194625 0.117083
C33   C     C_3   0.162211 0.470384 0.256940 -0.416252
H22   H     H_    0.169602 0.510376 0.317437 0.255924
H23   H     H_    0.227507 0.526842 0.213683 0.205067
C34   C     C_3   0.014635 0.480581 0.235380 -0.870634
H24   H     H_    0.004072 0.442027 0.174694 0.251624
H25   H     H_    0.984008 0.580466 0.236016 0.292136
H26   H     H_    0.945547 0.429219 0.279403 0.273056
O11   O     O_3   0.715855 0.616695 0.240627 -0.635633
C35   C     C_3   0.648494 0.733479 0.240979 0.076324
H27   H     H_    0.542553 0.727804 0.269954 0.112633
H28   H     H_    0.644155 0.767393 0.178567 0.138871
C36   C     C_3   0.728191 0.827380 0.287903 -0.323628
H29   H     H_    0.735855 0.792161 0.349639 0.239778
H30   H     H_    0.833215 0.837314 0.258893 0.215991
C37   C     C_3   0.658701 0.955191 0.291995 -0.946965
H31   H     H_    0.652294 0.993532 0.230980 0.262314
H32   H     H_    0.718772 0.020779 0.326737 0.265901
H33   H     H_    0.554227 0.947738 0.322012 0.276263
O12   O     O_3   0.288060 0.618552 0.760954 -0.628775
C38   C     C_3   0.355718 0.735109 0.760852 0.077334
H34   H     H_    0.461542 0.728953 0.731684 0.110381
H35   H     H_    0.360442 0.768927 0.823352 0.139689
C39   C     C_3   0.276154 0.829546 0.714339 -0.331774
H36   H     H_    0.269444 0.795053 0.652294 0.228329
H37   H     H_    0.170815 0.839109 0.743015 0.219843
C40   C     C_3   0.345016 0.957513 0.711395 -0.935007
H38   H     H_    0.350771 0.995203 0.772729 0.262379
H39   H     H_    0.284857 0.023413 0.677005 0.270502
H40   H     H_    0.449701 0.950549 0.681555 0.275359
H41   H     H_    0.881980 0.327743 0.437713 0.125390
H42   H     H_    0.118042 0.672202 0.562255 0.122600

loop_
_geom_bond_atom_site_label_1
_geom_bond_atom_site_label_2
_ccdc_geom_bond_type
C38   H34   S    
C4    H8    S    
C40   H38   S    
C5    H9    S    
C1    C8    S    
C2    C7    S    
C35   C36   S    
C1    O3    A    
C39   H36   S    
O9    C29   S    
C2    O4    A    
C9    N2    A    
C31   H19   S    
C22   C24   A    
C28   H1    S    
C19   C21   A    
C35   H28   S    
C30   H16   S    
C31   H18   S    
C10   H42   S    
C12   N2    A    
C13   O5    A    
C1    O1    A    
O5    Zn1   S    
C2    O2    A    
C33   H22   S    
C32   H21   S    
C6    H10   S    
O2    Zn2   S    
C21   C27   S    
C40   H39   S    
C22   C28   S    
C27   H2    S    
C4    C7    A    
O8    Zn1   S    
C16   C26   A    
C29   H14   S    
C35   H27   S    
C4    C6    A    
C3    C8    A    
C5    C7    A    
O12   C38   S    
C30   C31   S    
C14   O6    A    
O3    Zn2   S    
O4    Zn1   S    
C31   H17   S    
C23   H3    S    
C12   H12   S    
O11   C35   S    
C24   H4    S    
C34   H26   S    
C39   H37   S    
C3    H7    S    
C32   C33   S    
C26   O11   S    
C11   H11   S    
C9    C11   A    
C10   C12   A    
C13   O7    A    
C20   H5    S    
C16   C18   A    
C20   C22   A    
C32   H20   S    
C40   H40   S    
C37   H32   S    
C13   C15   S    
C14   C16   S    
C17   O9    S    
C39   C40   S    
C36   H30   S    
C15   C17   A    
C29   H13   S    
C9    H41   S    
O7    Zn2   S    
C24   C26   A    
C3    C5    A    
C19   H6    S    
C36   C37   S    
C6    C8    A    
C37   H33   S    
O10   C32   S    
C21   C23   A    
C34   H24   S    
C18   O10   S    
C30   H15   S    
C14   O8    A    
O1    Zn1   S    
C33   C34   S    
C25   O12   S    
C17   C19   A    
C11   N1    A    
C18   C20   A    
C23   C25   A    
C15   C25   A    
C36   H29   S    
O6    Zn2   S    
C33   H23   S    
C37   H31   S    
C38   C39   S    
C34   H25   S    
C27   C28   D    
C38   H35   S    
N1    Zn1   S    
N2    Zn2   S    
C10   N1    A    
C29   C30   S    
