data_mof_unit_28568.cif
_audit_creation_date              2012-10-26T21:21:57-0400
_audit_creation_method            fapswitch 2.2
_symmetry_space_group_name_H-M    P1
_symmetry_Int_Tables_number       1
_space_group_crystal_system       triclinic
_cell_length_a                    17.953033
_cell_length_b                    18.704927
_cell_length_c                    11.832996
_cell_angle_alpha                 89.751696
_cell_angle_beta                  78.379894
_cell_angle_gamma                 90.126983
_cell_volume                      3892.14327215

loop_
_atom_site_label
_atom_site_type_symbol
_atom_type_description
_atom_site_fract_x
_atom_site_fract_y
_atom_site_fract_z
_atom_type_partial_charge
C1    C     C_R   0.399450 0.099667 0.520232 0.538495
C2    C     C_R   0.464666 0.987672 0.034013 0.004621
C3    C     C_R   0.036947 0.492816 0.965451 0.006273
C4    C     C_R   0.964666 0.487672 0.034013 0.004620
C5    C     C_R   0.411923 0.982214 0.858422 0.029381
C6    C     C_R   0.589945 0.991661 0.141206 0.026132
C7    C     C_R   0.911923 0.482214 0.858422 0.029381
C8    C     C_R   0.089945 0.491660 0.141206 0.026131
C9    C     C_R   0.402323 0.977742 0.978754 -0.185917
C10   C     C_R   0.600146 0.990175 0.020635 -0.185872
C11   C     C_R   0.902323 0.477742 0.978754 -0.185917
C12   C     C_R   0.599627 0.899744 0.480273 0.538756
C13   C     C_R   0.100146 0.490174 0.020635 -0.185872
C14   C     C_R   0.543408 0.008012 0.845348 0.166155
C15   C     C_R   0.456230 0.000291 0.154869 0.163555
C16   C     C_R   0.043408 0.508012 0.845348 0.166156
C17   C     C_R   0.956230 0.500291 0.154869 0.163556
C18   C     C_R   0.660076 0.153354 0.467651 0.003321
C19   C     C_R   0.338404 0.848416 0.531216 0.000457
C20   C     C_R   0.344517 0.157633 0.531684 0.003225
C21   C     C_R   0.652211 0.840309 0.471439 0.003586
C22   C     C_R   0.160074 0.653356 0.467650 0.003319
C23   C     C_R   0.601148 0.099069 0.479482 0.540219
C24   C     C_R   0.838404 0.348416 0.531216 0.000457
C25   C     C_R   0.844517 0.657633 0.531684 0.003225
C26   C     C_R   0.152211 0.340309 0.471439 0.003586
C27   C     C_R   0.225200 0.793474 0.643568 -0.139316
C28   C     C_R   0.772232 0.209512 0.354017 -0.140606
C29   C     C_R   0.710656 0.737006 0.368080 -0.140252
C30   C     C_R   0.283895 0.259418 0.637942 -0.139639
C31   C     C_R   0.725197 0.293477 0.643566 -0.139315
C32   C     C_R   0.272223 0.709522 0.354011 -0.140608
C33   C     C_R   0.210653 0.237004 0.368082 -0.140252
C34   C     C_R   0.398452 0.901390 0.520407 0.539195
C35   C     C_R   0.783892 0.759416 0.637945 -0.139640
C36   C     C_R   0.284103 0.842669 0.634306 -0.133819
C37   C     C_R   0.714525 0.158920 0.364609 -0.134346
C38   C     C_R   0.661923 0.795013 0.375403 -0.134881
C39   C     C_R   0.335290 0.203212 0.627540 -0.132249
C40   C     C_R   0.784101 0.342671 0.634304 -0.133819
C41   C     C_R   0.214516 0.658929 0.364604 -0.134347
C42   C     C_R   0.161921 0.295011 0.375405 -0.134881
C43   C     C_R   0.835287 0.703210 0.627543 -0.132250
C44   C     C_R   0.334283 0.804402 0.437676 -0.138679
C45   C     C_R   0.899450 0.599667 0.520232 0.538494
C46   C     C_R   0.662552 0.199426 0.559225 -0.133836
C47   C     C_R   0.691743 0.827753 0.559881 -0.132742
C48   C     C_R   0.300948 0.167765 0.447794 -0.136817
C49   C     C_R   0.834287 0.304398 0.437678 -0.138677
C50   C     C_R   0.162553 0.699425 0.559226 -0.133835
C51   C     C_R   0.191745 0.327754 0.559880 -0.132742
C52   C     C_R   0.800949 0.667766 0.447793 -0.136818
C53   C     C_R   0.276088 0.754418 0.446727 0.047063
C54   C     C_R   0.720912 0.249180 0.550303 0.049636
C55   C     C_R   0.742153 0.770921 0.551769 0.049611
C56   C     C_R   0.099627 0.399744 0.480273 0.538756
C57   C     C_R   0.251159 0.224919 0.455562 0.051698
C58   C     C_R   0.776092 0.254414 0.446729 0.047063
C59   C     C_R   0.220912 0.749180 0.550303 0.049636
C60   C     C_R   0.242155 0.270922 0.551768 0.049611
C61   C     C_R   0.751160 0.724920 0.455561 0.051698
C62   C     C_3   0.381737 0.034956 0.211102 -0.226113
C63   C     C_3   0.324617 0.984728 0.285947 -0.394806
C64   C     C_3   0.612778 0.052695 0.792187 -0.216613
C65   C     C_3   0.678190 0.010287 0.720587 -0.406175
C66   C     C_3   0.881738 0.534958 0.211101 -0.226113
C67   C     C_R   0.101148 0.599070 0.479482 0.540219
C68   C     C_3   0.824617 0.484732 0.285948 -0.394806
C69   C     C_3   0.112777 0.552696 0.792188 -0.216615
C70   C     C_3   0.178190 0.510289 0.720587 -0.406177
C71   C     C_R   0.898452 0.401390 0.520407 0.539193
C72   C     C_R   0.536947 0.992817 0.965451 0.006272
Cu1   Cu    Cu3+1 0.507800 1.000000 0.383250 0.923328
Cu2   Cu    Cu3+1 0.492200 1.000000 0.616750 0.925197
Cu3   Cu    Cu3+1 0.007800 0.500000 0.383250 0.923327
Cu4   Cu    Cu3+1 0.992200 0.500000 0.616750 0.925196
H1    H     H_    0.638970 0.989054 0.181282 0.125998
H2    H     H_    0.876694 0.308569 0.358410 0.116750
H3    H     H_    0.804449 0.630986 0.377391 0.097547
H4    H     H_    0.184004 0.362502 0.634192 0.110232
H5    H     H_    0.713061 0.123540 0.292836 0.123791
H6    H     H_    0.286506 0.876958 0.707035 0.118994
H7    H     H_    0.368394 0.195872 0.693782 0.129487
H8    H     H_    0.630938 0.803775 0.306928 0.131019
H9    H     H_    0.213048 0.623553 0.292828 0.123797
H10   H     H_    0.786502 0.376962 0.707032 0.118993
H11   H     H_    0.868389 0.695869 0.693786 0.129487
H12   H     H_    0.363504 0.973821 0.818497 0.124846
H13   H     H_    0.130934 0.303772 0.306932 0.131018
H14   H     H_    0.683341 0.289885 0.723400 0.100264
H15   H     H_    0.314084 0.713033 0.274179 0.103179
H16   H     H_    0.217189 0.202108 0.293855 0.100989
H17   H     H_    0.777560 0.794289 0.712165 0.100903
H18   H     H_    0.183345 0.789880 0.723403 0.100264
H19   H     H_    0.814098 0.213018 0.274188 0.103178
H20   H     H_    0.717193 0.702112 0.293850 0.100988
H21   H     H_    0.277565 0.294293 0.712161 0.100904
H22   H     H_    0.345864 0.966547 0.028108 0.099836
H23   H     H_    0.138970 0.489053 0.181282 0.125999
H24   H     H_    0.657737 0.987331 0.971321 0.098248
H25   H     H_    0.845863 0.466548 0.028109 0.099836
H26   H     H_    0.157737 0.487330 0.971321 0.098249
H27   H     H_    0.337890 0.927860 0.264184 0.155812
H28   H     H_    0.322798 0.994150 0.378695 0.175672
H29   H     H_    0.266478 0.995575 0.271284 0.105464
H30   H     H_    0.393557 0.084944 0.251410 0.165162
H31   H     H_    0.352526 0.058338 0.145429 0.090266
H32   H     H_    0.688071 0.960294 0.766158 0.121431
H33   H     H_    0.667832 0.997291 0.634400 0.191974
H34   H     H_    0.863504 0.473821 0.818497 0.124846
H35   H     H_    0.730997 0.042959 0.707353 0.120972
H36   H     H_    0.596273 0.100833 0.750818 0.161592
H37   H     H_    0.636598 0.079801 0.860379 0.094317
H38   H     H_    0.837884 0.427863 0.264179 0.155809
H39   H     H_    0.822803 0.494150 0.378696 0.175679
H40   H     H_    0.766477 0.495586 0.271294 0.105464
H41   H     H_    0.893560 0.584946 0.251408 0.165161
H42   H     H_    0.852527 0.558340 0.145427 0.090267
H43   H     H_    0.188076 0.460298 0.766158 0.121429
H44   H     H_    0.167830 0.497291 0.634401 0.191976
H45   H     H_    0.618798 0.197251 0.636810 0.100146
H46   H     H_    0.230995 0.542965 0.707348 0.120974
H47   H     H_    0.096270 0.600833 0.750821 0.161591
H48   H     H_    0.136597 0.579802 0.860381 0.094318
H49   H     H_    0.376688 0.808575 0.358407 0.116749
H50   H     H_    0.304447 0.130984 0.377394 0.097545
H51   H     H_    0.684000 0.862500 0.634195 0.110234
H52   H     H_    0.118803 0.697247 0.636814 0.100147
N1    N     N_R   0.519530 1.000000 0.207810 -0.221981
N2    N     N_R   0.480470 1.000000 0.792190 -0.223205
N3    N     N_R   0.019530 0.500000 0.207810 -0.221982
N4    N     N_R   0.980470 0.500000 0.792190 -0.223205
O1    O     O_R   0.430030 0.075530 0.417420 -0.516324
O2    O     O_R   0.583140 0.924490 0.385390 -0.511855
O3    O     O_R   0.583140 0.075510 0.385390 -0.502245
O4    O     O_R   0.416860 0.924490 0.614610 -0.507391
O5    O     O_R   0.916860 0.575510 0.614610 -0.506446
O6    O     O_R   0.083140 0.424490 0.385390 -0.511853
O7    O     O_R   0.083140 0.575510 0.385390 -0.502247
O8    O     O_R   0.916860 0.424490 0.614610 -0.507390
O9    O     O_R   0.569970 0.924470 0.582580 -0.502323
O10   O     O_R   0.569970 0.075530 0.582580 -0.523183
O11   O     O_R   0.430030 0.924470 0.417420 -0.507164
O12   O     O_R   0.930030 0.575530 0.417420 -0.516326
O13   O     O_R   0.069970 0.424470 0.582580 -0.502323
O14   O     O_R   0.069970 0.575530 0.582580 -0.523183
O15   O     O_R   0.930030 0.424470 0.417420 -0.507164
O16   O     O_R   0.416860 0.075510 0.614610 -0.506446

loop_
_geom_bond_atom_site_label_1
_geom_bond_atom_site_label_2
_ccdc_geom_bond_type
C66   C68   S    
C9    H22   S    
C17   N3    A    
Cu1   Cu2   S    
C71   O15   A    
C25   C43   A    
C53   C59   A    
C48   C57   A    
Cu4   O5    S    
C31   C40   A    
C7    C11   A    
C30   H21   S    
C17   C66   S    
C8    C13   A    
C28   H19   S    
C50   C59   A    
Cu2   O16   S    
C8    H23   S    
C52   C61   A    
C54   C58   A    
C1    O1    A    
C64   H36   S    
C22   C41   A    
C69   H47   S    
C49   H2    S    
C40   H10   S    
C56   O13   A    
C51   H4    S    
C65   H35   S    
C5    H12   S    
C44   C53   A    
C21   C38   A    
Cu1   O3    S    
C36   H6    S    
C66   H41   S    
C30   C60   A    
C29   C38   A    
C45   O12   A    
C32   C41   A    
C23   O10   A    
C63   H29   S    
C52   H3    S    
C35   C43   A    
C65   H32   S    
C3    C13   A    
C22   C50   A    
Cu4   O8    S    
Cu2   O10   S    
Cu4   O14   S    
C11   H25   S    
C12   O2    A    
C37   H5    S    
C8    N3    A    
C6    N1    A    
C2    C72   A    
C18   C46   A    
Cu3   N3    S    
C29   C61   A    
C35   H17   S    
C44   H49   S    
Cu1   N1    S    
C34   O11   A    
C35   C55   A    
C18   C23   S    
C63   H27   S    
C33   H16   S    
C70   H44   S    
C20   C39   A    
C6    H1    S    
C62   H31   S    
C69   H48   S    
Cu3   O15   S    
C1    O16   A    
C12   C21   S    
C19   C34   S    
C49   C58   A    
Cu2   O4    S    
Cu3   Cu4   S    
C5    C9    A    
C62   C63   S    
C56   O6    A    
C70   H46   S    
C15   N1    A    
C34   O4    A    
C70   H43   S    
C31   H14   S    
C14   C64   S    
C46   C54   A    
C67   O14   A    
C45   O5    A    
C46   H45   S    
C4    C11   A    
C10   H24   S    
C2    C15   A    
C65   H33   S    
C7    N4    A    
C20   C48   A    
C68   H40   S    
C4    C17   A    
C5    N2    A    
Cu2   O9    S    
Cu1   O1    S    
Cu4   O13   S    
Cu2   N2    S    
C50   H52   S    
C33   C42   A    
C3    C4    A    
C25   C45   S    
C32   C53   A    
C67   O7    A    
C19   C44   A    
C26   C42   A    
C47   C55   A    
C14   N2    A    
C24   C49   A    
C1    C20   S    
C33   C57   A    
C64   H37   S    
C38   H8    S    
C14   C72   A    
C18   C37   A    
C16   C69   S    
C63   H28   S    
C57   C60   A    
Cu3   O6    S    
C26   C56   S    
C6    C10   A    
C29   H20   S    
C47   H51   S    
C71   O8    A    
C62   H30   S    
C28   C58   A    
C27   C36   A    
C41   H9    S    
C7    H34   S    
C23   O3    A    
C19   C36   A    
C42   H13   S    
C43   H11   S    
C64   C65   S    
C12   O9    A    
C25   C52   A    
C39   H7    S    
Cu3   O7    S    
C26   C51   A    
Cu4   N4    S    
C28   C37   A    
C55   C61   A    
C24   C40   A    
C15   C62   S    
C30   C39   A    
C31   C54   A    
C69   C70   S    
C16   N4    A    
Cu1   O11   S    
C22   C67   S    
Cu3   O12   S    
C68   H39   S    
C48   H50   S    
C32   H15   S    
Cu1   O2    S    
C66   H42   S    
C27   H18   S    
C27   C59   A    
C51   C60   A    
C13   H26   S    
C2    C9    A    
C3    C16   A    
C24   C71   S    
C68   H38   S    
C21   C47   A    
C10   C72   A    
