data_mof_unit_23520.cif
_audit_creation_date              2012-12-10T20:42:38-0500
_audit_creation_method            fapswitch 2.2
_symmetry_space_group_name_H-M    P1
_symmetry_Int_Tables_number       1
_space_group_crystal_system       triclinic
_cell_length_a                    8.904559
_cell_length_b                    10.681063
_cell_length_c                    9.884747
_cell_angle_alpha                 89.963225
_cell_angle_beta                  90.082794
_cell_angle_gamma                 89.971228
_cell_volume                      940.138531707

loop_
_atom_site_label
_atom_site_type_symbol
_atom_type_description
_atom_site_fract_x
_atom_site_fract_y
_atom_site_fract_z
_atom_type_partial_charge
C1    C     C_R   0.496001 0.259961 0.500031 0.882776
C2    C     C_R   0.450912 0.935346 0.377565 -0.187693
C3    C     C_R   0.471261 0.871251 0.499978 -0.126074
C4    C     C_R   0.463362 0.935735 0.622022 -0.035668
C5    C     C_3   0.562572 0.928468 0.745818 0.352133
C6    C     C_3   0.565335 0.070702 0.744343 -0.504610
C7    C     C_R   0.370902 0.476092 0.070834 0.175313
C8    C     C_R   0.623683 0.535346 0.071987 -0.100584
C9    C     C_R   0.623642 0.535445 0.928247 -0.071937
C10   C     C_R   0.371129 0.476224 0.928484 0.153331
C11   C     C_3   0.278674 0.360385 0.921066 -0.533908
C12   C     C_R   0.218770 0.500034 0.499941 0.933998
C13   C     C_3   0.278807 0.359300 0.074968 0.197989
C14   C     C_R   0.495339 0.739956 0.499950 0.855019
C15   C     C_R   0.781236 0.500041 0.500085 0.933322
C16   C     C_1   0.065430 0.500064 0.499985 -0.146957
C17   C     C_1   0.934594 0.500060 0.500141 -0.168447
C18   C     C_R   0.466182 0.063623 0.622075 0.028764
C19   C     C_R   0.472890 0.128481 0.500013 -0.067901
C20   C     C_R   0.450939 0.064666 0.377573 -0.196090
H1    H     H_    0.445079 0.113361 0.281578 0.167662
H2    H     H_    0.340718 0.280599 0.875936 0.180426
H3    H     H_    0.339330 0.278355 0.120104 0.117427
H4    H     H_    0.446367 0.886583 0.281767 0.181075
H5    H     H_    0.674260 0.886618 0.723623 0.103539
H6    H     H_    0.507774 0.113940 0.832249 0.211278
H7    H     H_    0.678048 0.110109 0.721374 0.177094
H8    H     H_    0.724457 0.562034 0.125839 0.182732
H9    H     H_    0.724350 0.562262 0.874599 0.157982
H10   H     H_    0.166948 0.378580 0.874694 0.237713
N1    N     N_R   0.499010 0.499140 0.142800 -0.141346
N2    N     N_R   0.499010 0.499180 0.857150 -0.107350
O1    O     O_R   0.500020 0.316790 0.614690 -0.614868
O2    O     O_R   0.500000 0.316760 0.385350 -0.623574
O3    O     O_R   0.285350 0.500020 0.614650 -0.632509
O4    O     O_R   0.285340 0.499980 0.385310 -0.570440
O5    O     O_R   0.500000 0.683240 0.614650 -0.620678
O6    O     O_R   0.499980 0.683210 0.385310 -0.619496
O7    O     O_R   0.714660 0.500020 0.614690 -0.631210
O8    O     O_R   0.714650 0.499980 0.385350 -0.598293
Zn1   Zn    Zn3+2 0.500010 0.500020 0.653130 0.948676
Zn2   Zn    Zn3+2 0.499990 0.499980 0.346870 0.979794
Cl1   Cl    Cl    0.096600 0.386664 0.144069 -0.622423
O9    O     O_3   0.500994 0.879705 0.868429 -0.588753
C21   C     C_3   0.342926 0.865501 0.866796 0.139931
H11   H     H_    0.310498 0.788247 0.797244 0.165902
H12   H     H_    0.285838 0.953851 0.836096 0.139213
C22   C     C_3   0.289082 0.832467 0.008200 -0.815815
H13   H     H_    0.307928 0.913102 0.076946 0.243455
H14   H     H_    0.167104 0.810807 0.005875 0.216968
H15   H     H_    0.350990 0.749650 0.047128 0.263118

loop_
_geom_bond_atom_site_label_1
_geom_bond_atom_site_label_2
_ccdc_geom_bond_type
C7    C10   A    
N2    Zn1   S    
N1    Zn2   S    
C14   O6    A    
C11   H2    S    
O4    Zn2   S    
C19   C20   A    
O2    Zn2   S    
C6    H7    S    
C9    H9    S    
O1    Zn1   S    
C13   Cl1   S    
C22   H14   S    
C2    C3    A    
C1    O1    A    
O7    Zn1   S    
C21   H11   S    
O9    C21   S    
C12   O3    A    
C2    H4    S    
C11   C13   S    
C15   O7    A    
C6    H6    S    
C3    C14   S    
O3    Zn1   S    
O8    Zn2   S    
C22   H13   S    
C5    O9    S    
C1    O2    A    
O6    Zn2   S    
C21   H12   S    
O5    Zn1   S    
C5    C6    S    
C8    H8    S    
C6    C18   S    
C5    H5    S    
C15   O8    A    
C1    C19   S    
C12   O4    A    
C10   C11   S    
C2    C20   A    
C3    C4    A    
C16   C17   T    
C10   N2    A    
C7    C13   S    
C7    N1    A    
C20   H1    S    
C13   H3    S    
C18   C19   A    
C21   C22   S    
C15   C17   S    
C8    C9    A    
C9    N2    A    
C8    N1    A    
C4    C18   A    
C22   H15   S    
C12   C16   S    
C11   H10   S    
C4    C5    S    
C14   O5    A    
