data_mof_unit_12316.cif
_audit_creation_date              2012-12-10T20:44:03-0500
_audit_creation_method            fapswitch 2.2
_symmetry_space_group_name_H-M    P1
_symmetry_Int_Tables_number       1
_space_group_crystal_system       triclinic
_cell_length_a                    17.473612
_cell_length_b                    10.68147
_cell_length_c                    9.848977
_cell_angle_alpha                 90.336102
_cell_angle_beta                  89.889989
_cell_angle_gamma                 90.430322
_cell_volume                      1838.16439984

loop_
_atom_site_label
_atom_site_type_symbol
_atom_type_description
_atom_site_fract_x
_atom_site_fract_y
_atom_site_fract_z
_atom_type_partial_charge
C1    C     C_R   0.497368 0.260133 0.499723 0.893780
C2    C     C_R   0.885457 0.439646 0.485505 0.067746
C3    C     C_1   0.965890 0.432095 0.483849 -0.022485
C4    C     C_1   0.033825 0.434145 0.484577 0.004030
C5    C     C_R   0.154776 0.402935 0.600865 0.520619
C6    C     C_R   0.234002 0.421085 0.604359 -0.303073
C7    C     C_R   0.270893 0.485484 0.499086 -0.083400
C8    C     C_R   0.229147 0.529893 0.388478 -0.175507
C9    C     C_R   0.150748 0.510593 0.383521 -0.248091
C10   C     C_R   0.114259 0.445808 0.488091 0.055310
C11   C     C_R   0.488529 0.064486 0.622147 0.065055
C12   C     C_R   0.353422 0.498372 0.500034 0.895410
C13   C     C_R   0.486339 0.128808 0.499960 -0.138802
C14   C     C_R   0.470701 0.063873 0.378896 -0.169840
C15   C     C_R   0.470631 0.934275 0.379305 -0.225012
C16   C     C_R   0.485697 0.871205 0.500996 -0.094955
C17   C     C_R   0.486823 0.936913 0.623259 0.042874
C18   C     C_3   0.538603 0.927752 0.743834 -0.524232
C19   C     C_3   0.540468 0.070376 0.744037 0.315694
C20   C     C_R   0.461123 0.409380 0.070875 0.063785
C21   C     C_R   0.545382 0.580252 0.072941 -0.269240
C22   C     C_R   0.547259 0.578703 0.927697 0.539257
C23   C     C_R   0.497720 0.740048 0.500252 0.874397
C24   C     C_R   0.460987 0.409637 0.928336 0.007320
C25   C     C_3   0.377331 0.383013 0.922499 0.370358
C26   C     C_3   0.377299 0.383033 0.076831 0.420654
C27   C     C_R   0.646691 0.497213 0.499790 0.885261
C28   C     C_R   0.845947 0.413613 0.605215 -0.249353
C29   C     C_R   0.767730 0.434195 0.611953 0.572830
C30   C     C_R   0.729261 0.481529 0.497986 -0.176060
C31   C     C_R   0.769801 0.506445 0.377815 -0.275522
C32   C     C_R   0.847905 0.485757 0.371840 -0.167806
H1    H     H_    0.875805 0.378930 0.693571 0.165958
H2    H     H_    0.463809 0.884603 0.283821 0.178011
H3    H     H_    0.508497 0.888260 0.833597 0.211195
H4    H     H_    0.593832 0.882328 0.718910 0.220907
H5    H     H_    0.510254 0.110422 0.833579 0.170473
H6    H     H_    0.579391 0.647171 0.129572 0.162188
H7    H     H_    0.343432 0.459737 0.877167 0.011645
H8    H     H_    0.343612 0.459886 0.123624 0.016987
H9    H     H_    0.741266 0.542554 0.288826 0.179540
H10   H     H_    0.879175 0.507715 0.279734 0.148009
H11   H     H_    0.266597 0.382165 0.687024 0.198313
H12   H     H_    0.257111 0.579474 0.306308 0.152301
H13   H     H_    0.118470 0.546685 0.298627 0.156459
H14   H     H_    0.463679 0.112114 0.283340 0.223414
N1    N     N_R   0.499490 0.499140 0.142800 -0.145348
N2    N     N_R   0.499490 0.499180 0.857150 -0.158314
O1    O     O_R   0.500010 0.316790 0.614690 -0.572576
O2    O     O_R   0.500000 0.316760 0.385350 -0.603688
O3    O     O_R   0.389120 0.500020 0.614710 -0.627933
O4    O     O_R   0.389110 0.499990 0.385370 -0.612922
O5    O     O_R   0.500000 0.683240 0.614650 -0.578655
O6    O     O_R   0.499990 0.683210 0.385310 -0.637781
O7    O     O_R   0.610890 0.500010 0.614630 -0.530162
O8    O     O_R   0.610880 0.499980 0.385290 -0.627745
Zn1   Zn    Zn3+2 0.500010 0.500020 0.653130 1.041223
Zn2   Zn    Zn3+2 0.499990 0.499980 0.346870 0.965157
O9    O     O_3   0.614865 0.125172 0.729685 -0.595769
C33   C     C_3   0.653268 0.100092 0.605505 0.150119
H15   H     H_    0.647060 0.182663 0.538507 0.147689
H16   H     H_    0.631711 0.016127 0.550120 0.112652
C34   C     C_3   0.738268 0.081073 0.634352 -0.324865
H17   H     H_    0.760611 0.160561 0.696160 0.274066
H18   H     H_    0.745659 0.993647 0.693377 0.207159
C35   C     C_3   0.784543 0.072159 0.503120 -0.958693
H19   H     H_    0.763949 0.992121 0.440217 0.263314
H20   H     H_    0.845812 0.057573 0.527659 0.274824
H21   H     H_    0.779459 0.160130 0.444248 0.273678
O10   O     O_3   0.591674 0.663668 0.855939 -0.636671
C36   C     C_3   0.669809 0.657696 0.893991 0.117889
H22   H     H_    0.703998 0.644734 0.799850 0.196520
H23   H     H_    0.684029 0.577134 0.961034 0.154516
C37   C     C_3   0.695085 0.781281 0.960407 -0.414590
H24   H     H_    0.689785 0.858504 0.886188 0.235640
H25   H     H_    0.657860 0.803361 0.048606 0.224114
C38   C     C_3   0.777984 0.775304 0.008190 -0.936542
H26   H     H_    0.784520 0.701075 0.085772 0.259501
H27   H     H_    0.794871 0.866540 0.054184 0.272870
H28   H     H_    0.816599 0.755451 0.921072 0.266066
F1    F     F_    0.362981 0.265936 0.866675 -0.631957
F2    F     F_    0.729968 0.405395 0.728386 -0.679588
F3    F     F_    0.362140 0.266180 0.131129 -0.614982
O11   O     O_3   0.117235 0.334238 0.700125 -0.638453
C39   C     C_3   0.124107 0.392536 0.829208 0.031588
H29   H     H_    0.065921 0.420693 0.862703 0.165477
H30   H     H_    0.160378 0.479150 0.830972 0.117792
C40   C     C_3   0.155844 0.298348 0.930492 -0.296351
H31   H     H_    0.117889 0.214422 0.933528 0.233680
H32   H     H_    0.213547 0.268230 0.896946 0.276037
C41   C     C_3   0.161489 0.354689 0.072812 -0.905108
H33   H     H_    0.198841 0.439273 0.072206 0.246589
H34   H     H_    0.186388 0.285145 0.143143 0.304826
H35   H     H_    0.103711 0.380489 0.110374 0.249306

loop_
_geom_bond_atom_site_label_1
_geom_bond_atom_site_label_2
_ccdc_geom_bond_type
C35   H20   S    
C34   H18   S    
C18   H4    S    
C9    H13   S    
C26   F3    S    
C22   N2    A    
N2    Zn1   S    
C14   H14   S    
C38   H26   S    
C11   C19   S    
C37   H25   S    
C33   C34   S    
C18   H3    S    
C33   H16   S    
C28   C29   A    
O6    Zn2   S    
C30   C31   A    
C27   O7    A    
C38   H28   S    
C35   H21   S    
C15   C16   A    
O1    Zn1   S    
C2    C32   A    
C18   C19   S    
C19   H5    S    
C21   H6    S    
C20   C24   A    
C8    C9    A    
C37   C38   S    
O10   C36   S    
O3    Zn1   S    
C1    O2    A    
C15   H2    S    
C38   H27   S    
C35   H19   S    
C34   C35   S    
O9    C33   S    
C21   C22   A    
C27   C30   S    
C25   F1    S    
C12   O4    A    
C23   O5    A    
C39   H30   S    
C7    C12   S    
C37   H24   S    
O2    Zn2   S    
C7    C8    A    
O11   C39   S    
C41   H33   S    
C36   H23   S    
C5    O11   S    
O5    Zn1   S    
C27   O8    A    
C16   C17   A    
C19   O9    S    
C25   C26   S    
C39   H29   S    
C33   H15   S    
C24   N2    A    
C29   C30   A    
C41   H34   S    
C31   C32   A    
C40   C41   S    
C17   C18   S    
C24   C25   S    
O4    Zn2   S    
C40   H32   S    
C28   H1    S    
C16   C23   S    
C6    H11   S    
O7    Zn1   S    
C1    C13   S    
C4    C10   S    
C3    C4    T    
C12   O3    A    
C23   O6    A    
C9    C10   A    
C39   C40   S    
C11   C17   A    
C31   H9    S    
C8    H12   S    
C36   C37   S    
C6    C7    A    
C2    C3    S    
C5    C10   A    
C25   H7    S    
C41   H35   S    
C11   C13   A    
C26   H8    S    
C5    C6    A    
C20   C26   S    
O8    Zn2   S    
C20   N1    A    
C34   H17   S    
C29   F2    S    
C36   H22   S    
C40   H31   S    
C32   H10   S    
C14   C15   A    
C2    C28   A    
C21   N1    A    
C13   C14   A    
C1    O1    A    
C22   O10   S    
N1    Zn2   S    
