data_mof_unit_58011.cif
_audit_creation_date              2012-10-26T20:42:27-0400
_audit_creation_method            fapswitch 2.2
_symmetry_space_group_name_H-M    P1
_symmetry_Int_Tables_number       1
_space_group_crystal_system       triclinic
_cell_length_a                    10.731477
_cell_length_b                    9.643555
_cell_length_c                    10.9151
_cell_angle_alpha                 90.314537
_cell_angle_beta                  91.516618
_cell_angle_gamma                 89.726314
_cell_volume                      1129.17436548

loop_
_atom_site_label
_atom_site_type_symbol
_atom_type_description
_atom_site_fract_x
_atom_site_fract_y
_atom_site_fract_z
_atom_type_partial_charge
C1    C     C_R   0.262795 0.500561 0.501407 0.558416
C2    C     C_R   0.932022 0.474794 0.399680 -0.187832
C3    C     C_R   0.871355 0.498676 0.509166 0.023211
C4    C     C_R   0.128972 0.502957 0.506028 0.021003
C5    C     C_R   0.938625 0.525793 0.619512 0.126030
C6    C     C_R   0.069829 0.529983 0.617289 0.135600
C7    C     C_R   0.435673 0.074734 0.410944 0.335312
C8    C     C_R   0.569896 0.074194 0.583919 0.341181
C9    C     C_R   0.440565 0.926188 0.407269 0.211874
C10   C     C_R   0.557074 0.927397 0.593286 0.211169
C11   C     C_3   0.829389 0.436713 0.794574 -0.316871
C12   C     C_R   0.737255 0.499681 0.504655 0.557886
C13   C     C_3   0.176079 0.695948 0.750947 -0.300644
C14   C     C_3   0.249675 0.155045 0.330675 -0.091421
C15   C     C_3   0.775224 0.124273 0.599106 -0.111490
C16   C     C_3   0.261547 0.811469 0.305904 -0.252713
C17   C     C_3   0.708327 0.826175 0.740474 -0.262698
C18   C     C_R   0.501275 0.499791 0.265679 0.538315
C19   C     C_R   0.498301 0.500324 0.734309 0.563731
C20   C     C_2   0.502904 0.386523 0.932363 -0.172341
C21   C     C_2   0.497238 0.385997 0.066299 -0.168569
C22   C     C_2   0.491954 0.502911 0.866270 -0.121635
C23   C     C_2   0.507479 0.501959 0.133732 -0.129782
C24   C     C_R   0.060533 0.478214 0.397905 -0.207156
Cu1   Cu    Cu3+1 0.500000 0.640660 0.500000 0.970274
Cu2   Cu    Cu3+1 0.500000 0.359340 0.500000 1.014874
H1    H     H_    0.514757 0.286730 0.887364 0.167384
H2    H     H_    0.786965 0.471338 0.881341 0.134529
H3    H     H_    0.110149 0.503504 0.802794 0.249953
H4    H     H_    0.092221 0.758506 0.772036 0.108675
H5    H     H_    0.221708 0.742702 0.671342 0.184182
H6    H     H_    0.242185 0.700860 0.830842 0.137276
H7    H     H_    0.219680 0.261674 0.307790 0.144098
H8    H     H_    0.218334 0.131638 0.425080 0.099449
H9    H     H_    0.200653 0.087284 0.263452 0.098826
H10   H     H_    0.845708 0.190351 0.646373 0.122844
H11   H     H_    0.771938 0.153048 0.500485 0.137822
H12   H     H_    0.486357 0.286053 0.110061 0.183039
H13   H     H_    0.809990 0.016452 0.604842 0.080728
H14   H     H_    0.412869 0.899979 0.219660 0.244386
H15   H     H_    0.257091 0.698101 0.289324 0.166675
H16   H     H_    0.205505 0.860014 0.230710 0.087932
H17   H     H_    0.218646 0.837169 0.394929 0.138052
H18   H     H_    0.538007 0.914530 0.780317 0.228748
H19   H     H_    0.706798 0.739607 0.806857 0.155065
H20   H     H_    0.757641 0.914074 0.786119 0.123826
H21   H     H_    0.759081 0.792093 0.658367 0.183194
H22   H     H_    0.475481 0.603463 0.907300 0.096846
H23   H     H_    0.523393 0.602456 0.093640 0.101355
H24   H     H_    0.106610 0.463112 0.311784 0.094104
H25   H     H_    0.879449 0.455726 0.315130 0.115252
H26   H     H_    0.918512 0.625728 0.787422 0.244652
H27   H     H_    0.907101 0.363817 0.816880 0.130085
H28   H     H_    0.756080 0.383502 0.739292 0.213613
N1    N     N_R   0.500000 0.852070 0.500000 -0.245833
N2    N     N_R   0.500000 0.147940 0.500000 -0.242503
N3    N     N_2   0.874653 0.555657 0.729609 -0.552923
N4    N     N_2   0.142950 0.552766 0.726589 -0.519683
N5    N     N_2   0.390185 0.856240 0.302139 -0.454301
N6    N     N_2   0.581514 0.864940 0.709077 -0.458593
O1    O     O_R   0.319640 0.618740 0.499990 -0.510770
O2    O     O_3   0.658524 0.141630 0.655724 -0.557075
O3    O     O_R   0.680360 0.618740 0.500010 -0.494308
O4    O     O_R   0.319620 0.381170 0.499990 -0.495821
O5    O     O_R   0.680380 0.381170 0.500010 -0.500136
O6    O     O_R   0.500000 0.618750 0.321940 -0.479031
O7    O     O_R   0.500000 0.618750 0.678060 -0.467123
O8    O     O_R   0.499970 0.381180 0.321940 -0.453928
O9    O     O_R   0.500030 0.381180 0.678060 -0.469744
O10   O     O_3   0.379554 0.145861 0.314769 -0.556545

loop_
_geom_bond_atom_site_label_1
_geom_bond_atom_site_label_2
_ccdc_geom_bond_type
C14   H8    S    
C22   H22   S    
C19   O7    A    
C9    N1    A    
C20   H1    S    
C18   O6    A    
C17   H21   S    
C12   O5    A    
C6    N4    S    
C13   H6    S    
C10   N6    S    
C2    H25   S    
C11   H27   S    
C5    N3    S    
C1    C4    S    
Cu2   O8    S    
C8    N2    A    
C14   H7    S    
C2    C3    A    
C3    C12   S    
C15   H10   S    
H14   N5    S    
Cu1   O1    S    
C20   C21   S    
C24   H24   S    
C10   N1    A    
C14   O10   S    
C16   H17   S    
C15   H13   S    
C11   H28   S    
Cu2   N2    S    
C7    N2    A    
C7    O10   S    
C11   H2    S    
C8    C10   A    
C15   O2    S    
H18   N6    S    
H3    N4    S    
C21   C23   D    
C2    C24   A    
C5    C6    A    
C4    C24   A    
C17   H19   S    
C19   O9    A    
C23   H23   S    
H26   N3    S    
Cu1   O6    S    
C17   N6    S    
C18   O8    A    
C18   C23   S    
C1    O4    A    
C16   H16   S    
C13   H4    S    
C19   C22   S    
C17   H20   S    
C12   O3    A    
C4    C6    A    
Cu1   O3    S    
C8    O2    S    
C14   H9    S    
C7    C9    A    
Cu2   O9    S    
Cu2   O4    S    
C15   H11   S    
C13   N4    S    
C3    C5    A    
Cu1   Cu2   S    
C11   N3    S    
Cu2   O5    S    
C16   H15   S    
C13   H5    S    
C21   H12   S    
Cu1   N1    S    
C20   C22   D    
Cu1   O7    S    
C9    N5    S    
C16   N5    S    
C1    O1    A    
