data_mof_unit_10946.cif
_audit_creation_date              2012-10-26T20:21:19-0400
_audit_creation_method            fapswitch 2.2
_symmetry_space_group_name_H-M    P1
_symmetry_Int_Tables_number       1
_space_group_crystal_system       triclinic
_cell_length_a                    9.56131
_cell_length_b                    10.748383
_cell_length_c                    15.463828
_cell_angle_alpha                 90.570785
_cell_angle_beta                  74.157017
_cell_angle_gamma                 88.782547
_cell_volume                      1528.27782646

loop_
_atom_site_label
_atom_site_type_symbol
_atom_type_description
_atom_site_fract_x
_atom_site_fract_y
_atom_site_fract_z
_atom_type_partial_charge
C1    C     C_R   0.001327 0.262368 0.499732 0.536959
C2    C     C_R   0.110497 0.061341 0.436293 -0.146893
C3    C     C_R   0.999705 0.871505 0.499096 0.018836
C4    C     C_R   0.003321 0.128619 0.500388 0.022241
C5    C     C_R   0.600509 0.417136 0.447988 -0.001221
C6    C     C_R   0.398589 0.580089 0.553900 -0.004533
C7    C     C_R   0.451843 0.416661 0.447027 0.242389
C8    C     C_R   0.547729 0.583329 0.552549 0.239636
C9    C     C_R   0.918308 0.496702 0.672436 0.555786
C10   C     C_R   0.081422 0.507466 0.327994 0.556729
C11   C     C_R   0.873759 0.487894 0.771647 -0.012744
C12   C     C_R   0.999416 0.737665 0.499661 0.535848
C13   C     C_R   0.125321 0.534803 0.230931 -0.012363
C14   C     C_R   0.919166 0.438151 0.915665 0.160573
C15   C     C_R   0.085319 0.629869 0.096168 0.164792
C16   C     C_R   0.971308 0.450565 0.821263 0.134029
C17   C     C_R   0.031673 0.596666 0.187655 0.135076
C18   C     C_R   0.728114 0.514396 0.816165 -0.186598
C19   C     C_R   0.269829 0.509863 0.184048 -0.188598
C20   C     C_R   0.675171 0.510998 0.909956 -0.007818
C21   C     C_R   0.327293 0.546784 0.095050 -0.010309
C22   C     C_R   0.772870 0.472875 0.959809 0.053965
C23   C     C_R   0.580418 0.502351 0.097692 -0.166144
C24   C     C_R   0.231650 0.599535 0.049231 0.051077
C25   C     C_R   0.526955 0.542643 0.955498 0.044920
C26   C     C_R   0.477489 0.528767 0.050022 0.044323
C27   C     C_3   0.864421 0.745182 0.286696 -0.267095
C28   C     C_3   0.157284 0.300536 0.741164 -0.272686
C29   C     C_3   0.984567 0.260113 0.993256 -0.321912
C30   C     C_3   0.023558 0.830394 0.044410 -0.321955
C31   C     C_3   0.498317 0.287798 0.309565 -0.344784
C32   C     C_3   0.562803 0.799844 0.591154 -0.312319
C33   C     C_R   0.426807 0.589709 0.910591 -0.158751
C34   C     C_R   0.723957 0.473399 0.053660 -0.148777
C35   C     C_R   0.283755 0.619836 0.956838 -0.146853
C36   C     C_R   0.896523 0.067702 0.564933 -0.145458
C37   C     C_R   0.108254 0.932292 0.435387 -0.146975
C38   C     C_R   0.896895 0.938839 0.565283 -0.146031
Cu1   Cu    Cu3+1 0.140660 0.500020 0.500000 0.955735
Cu2   Cu    Cu3+1 0.859340 0.499980 0.500000 0.955780
H1    H     H_    0.335969 0.457847 0.218081 0.141231
H2    H     H_    0.166125 0.237773 0.795933 0.120998
H3    H     H_    0.263978 0.299970 0.689549 0.146621
H4    H     H_    0.074579 0.265390 0.709134 0.154946
H5    H     H_    0.120357 0.405112 0.942361 0.259651
H6    H     H_    0.056729 0.231824 0.035379 0.137466
H7    H     H_    0.006801 0.197416 0.933407 0.134731
H8    H     H_    0.870270 0.248672 0.033328 0.149089
H9    H     H_    0.886505 0.680649 0.072416 0.258256
H10   H     H_    0.953808 0.874587 0.005940 0.135856
H11   H     H_    0.138828 0.846799 0.008294 0.149304
H12   H     H_    0.657234 0.537509 0.775348 0.129875
H13   H     H_    0.998812 0.875363 0.111955 0.138466
H14   H     H_    0.553534 0.509173 0.169853 0.100759
H15   H     H_    0.455510 0.608506 0.839854 0.088648
H16   H     H_    0.815587 0.119825 0.615955 0.111196
H17   H     H_    0.189885 0.879929 0.384950 0.112786
H18   H     H_    0.821013 0.891462 0.618576 0.118191
H19   H     H_    0.193069 0.108546 0.386108 0.112108
H20   H     H_    0.677948 0.350016 0.408093 0.125518
H21   H     H_    0.319556 0.641844 0.598289 0.123195
H22   H     H_    0.366337 0.246450 0.435077 0.249150
H23   H     H_    0.797250 0.453028 0.094316 0.144873
H24   H     H_    0.432294 0.249176 0.267192 0.144965
H25   H     H_    0.578746 0.215192 0.316683 0.114026
H26   H     H_    0.557032 0.369232 0.275584 0.139488
H27   H     H_    0.548492 0.650844 0.675911 0.216347
H28   H     H_    0.446689 0.817671 0.594559 0.110667
H29   H     H_    0.631363 0.825658 0.523750 0.166571
H30   H     H_    0.586841 0.860751 0.643233 0.122631
H31   H     H_    0.212824 0.656154 0.918652 0.145746
H32   H     H_    0.805064 0.607609 0.207416 0.231684
H33   H     H_    0.830059 0.819122 0.246718 0.113614
H34   H     H_    0.964982 0.773476 0.303868 0.142455
H35   H     H_    0.776962 0.735137 0.350177 0.168502
H36   H     H_    0.195590 0.464564 0.804247 0.233983
N1    N     N_R   0.352080 0.500030 0.499980 -0.228747
N2    N     N_R   0.647920 0.499970 0.500020 -0.226597
N3    N     N_2   0.885995 0.628136 0.237177 -0.501081
N4    N     N_2   0.120604 0.426063 0.775758 -0.500080
N5    N     N_2   0.011296 0.388147 0.966405 -0.518254
N6    N     N_2   0.995738 0.698466 0.052154 -0.517600
N7    N     N_2   0.403513 0.323097 0.396907 -0.465558
N8    N     N_2   0.590971 0.670805 0.608968 -0.458166
O1    O     O_R   0.118740 0.319660 0.500000 -0.498508
O2    O     O_R   0.881260 0.680340 0.500000 -0.477337
O3    O     O_R   0.881170 0.319630 0.500010 -0.512954
O4    O     O_R   0.118830 0.680370 0.499990 -0.512045
O5    O     O_R   0.055570 0.500030 0.629830 -0.468980
O6    O     O_R   0.944430 0.499970 0.370170 -0.472592
O7    O     O_R   0.818000 0.500000 0.629840 -0.493245
O8    O     O_R   0.182000 0.500000 0.370160 -0.479727

loop_
_geom_bond_atom_site_label_1
_geom_bond_atom_site_label_2
_ccdc_geom_bond_type
C1    O3    A    
C31   H26   S    
C7    N7    S    
C30   H11   S    
C4    C36   A    
C11   C18   A    
C33   H15   S    
H22   N7    S    
C9    O7    A    
C18   H12   S    
C32   H28   S    
C22   C34   A    
C29   H7    S    
Cu1   N1    S    
Cu2   O3    S    
C19   C21   A    
H32   N3    S    
C27   N3    S    
C20   C25   A    
C17   N3    S    
C31   N7    S    
C31   H25   S    
C23   C26   A    
Cu2   O2    S    
C3    C12   S    
C38   H18   S    
C3    C38   A    
C27   H34   S    
C18   C20   A    
C7    N1    A    
C30   H10   S    
C10   O8    A    
H27   N8    S    
C8    N2    A    
Cu1   O4    S    
C27   H35   S    
C21   C26   A    
C15   N6    S    
C1    O1    A    
C32   N8    S    
C30   H13   S    
C24   C35   A    
C13   C19   A    
C29   H8    S    
C9    O5    A    
Cu1   Cu2   S    
C5    C7    A    
C12   O4    A    
C2    H19   S    
C6    N1    A    
C32   H30   S    
C25   C26   A    
C28   H4    S    
C16   N4    S    
H9    N6    S    
C30   N6    S    
C2    C4    A    
C29   N5    S    
C36   H16   S    
C11   C16   A    
C23   C34   A    
C9    C11   S    
C3    C37   A    
C15   C24   A    
C20   C22   A    
C14   C16   A    
Cu1   O1    S    
Cu1   O8    S    
C6    H21   S    
C23   H14   S    
C15   C17   A    
C5    H20   S    
C8    N8    S    
C31   H24   S    
H5    N5    S    
H36   N4    S    
C10   C13   S    
C6    C8    A    
C32   H29   S    
C13   C17   A    
C28   H3    S    
C12   O2    A    
C29   H6    S    
C1    C4    S    
C14   C22   A    
C36   C38   A    
C2    C37   A    
C28   H2    S    
C34   H23   S    
C33   C35   A    
Cu2   N2    S    
Cu2   O7    S    
C28   N4    S    
C35   H31   S    
C10   O6    A    
C21   C24   A    
C14   N5    S    
Cu2   O6    S    
C5    N2    A    
C27   H33   S    
Cu1   O5    S    
C37   H17   S    
C19   H1    S    
C25   C33   A    
