data_mof_unit_5969.cif
_audit_creation_date              2012-12-11T17:41:40-0500
_audit_creation_method            fapswitch 2.2
_symmetry_space_group_name_H-M    P1
_symmetry_Int_Tables_number       1
_space_group_crystal_system       triclinic
_cell_length_a                    15.600851
_cell_length_b                    15.016176
_cell_length_c                    15.209527
_cell_angle_alpha                 109.48778
_cell_angle_beta                  120.587684
_cell_angle_gamma                 59.472656
_cell_volume                      2628.50631639

loop_
_atom_site_label
_atom_site_type_symbol
_atom_type_description
_atom_site_fract_x
_atom_site_fract_y
_atom_site_fract_z
_atom_type_partial_charge
C1    C     C_R   0.805534 0.934291 0.763807 0.121353
C2    C     C_R   0.186296 0.375563 0.105041 -0.161057
C3    C     C_R   0.645129 0.817285 0.929284 -0.093676
C4    C     C_R   0.292216 0.310965 0.111127 -0.121364
C5    C     C_R   0.680812 0.896745 0.984471 0.078073
C6    C     C_R   0.310672 0.220590 0.043677 0.085118
C7    C     C_R   0.790234 0.876533 0.017220 -0.182183
C8    C     C_R   0.222279 0.195700 0.969274 -0.241267
C9    C     C_R   0.862075 0.779248 0.992423 -0.055680
C10   C     C_R   0.116547 0.260626 0.962432 -0.027764
C11   C     C_R   0.826041 0.700230 0.934312 0.029943
C12   C     C_R   0.199827 0.061812 0.229917 0.136434
C13   C     C_R   0.097714 0.351162 0.030395 0.049465
C14   C     C_R   0.609595 0.029722 0.106242 -0.057052
C15   C     C_R   0.428912 0.154373 0.953696 -0.106508
C16   C     C_R   0.217123 0.284253 0.461403 -0.042839
C17   C     C_R   0.785575 0.716690 0.537862 -0.114217
C18   C     C_R   0.511274 0.091351 0.120061 0.010253
C19   C     C_R   0.513004 0.067172 0.930391 0.048132
C20   C     C_R   0.419418 0.156486 0.041868 -0.052487
C21   C     C_R   0.602465 0.001921 0.007261 -0.057527
C22   C     C_2   0.057041 0.379046 0.508040 -0.051078
C23   C     C_R   0.160594 0.291524 0.511276 -0.043676
C24   C     C_2   0.927232 0.616957 0.468338 -0.023638
C25   C     C_2   0.988501 0.427918 0.421743 -0.059089
C26   C     C_2   0.903865 0.533365 0.420901 -0.067796
C27   C     C_2   0.941308 0.008720 0.865471 -0.089393
C28   C     C_2   0.043634 0.011079 0.137925 -0.115275
C29   C     C_R   0.134923 0.683380 0.369921 -0.014720
C30   C     C_R   0.862380 0.135542 0.479034 -0.071499
C31   C     C_R   0.244799 0.660069 0.402589 -0.124754
C32   C     C_R   0.767629 0.219272 0.428515 -0.164198
C33   C     C_R   0.288346 0.629761 0.330525 -0.041258
C34   C     C_R   0.838905 0.711593 0.485724 -0.055825
C35   C     C_R   0.722618 0.310659 0.485501 -0.032193
C36   C     C_R   0.217497 0.634209 0.225028 -0.069222
C37   C     C_R   0.781450 0.322966 0.593540 -0.035629
C38   C     C_R   0.108504 0.653834 0.193733 -0.201751
C39   C     C_R   0.878957 0.239105 0.642202 -0.113124
C40   C     C_R   0.595333 0.213471 0.488585 -0.078164
C41   C     C_R   0.408579 0.768912 0.441861 -0.103693
C42   C     C_R   0.068201 0.675246 0.265306 0.239493
C43   C     C_R   0.914287 0.143727 0.586246 0.260192
C44   C     C_R   0.413791 0.452500 0.350206 -0.236746
C45   C     C_R   0.508907 0.296328 0.435015 0.038011
C46   C     C_R   0.599566 0.484376 0.427367 -0.240544
C47   C     C_R   0.513986 0.375132 0.401598 0.060132
C48   C     C_R   0.498039 0.570830 0.407774 0.056797
C49   C     C_R   0.610338 0.387948 0.432864 0.043067
C50   C     C_R   0.402838 0.552278 0.360052 0.035118
C51   C     C_2   0.945130 0.004925 0.953709 -0.066063
C52   C     C_2   0.035352 0.013147 0.047100 -0.076869
C53   C     C_R   0.411681 0.045955 0.734589 -0.048324
C54   C     C_R   0.590830 0.022150 0.290026 -0.138781
C55   C     C_R   0.414152 0.288294 0.414171 -0.079675
C56   C     C_R   0.498359 0.674145 0.453217 0.034144
C57   C     C_R   0.590069 0.694021 0.523796 -0.126637
C58   C     C_R   0.593566 0.983838 0.801967 -0.094684
C59   C     C_R   0.411116 0.082828 0.209253 -0.090916
C60   C     C_R   0.207909 0.195273 0.546149 0.212715
C61   C     C_R   0.792315 0.809037 0.454534 0.228679
C62   C     C_R   0.786639 0.054465 0.691926 0.186657
C63   C     C_R   0.198637 0.966753 0.314149 0.157084
C64   C     C_R   0.855193 0.991523 0.770777 0.045643
C65   C     C_R   0.142317 0.014260 0.225734 0.035920
C66   C     C_2   0.898853 0.599150 0.900459 0.472559
C67   C     C_R   0.505091 0.038719 0.825820 0.090076
C68   C     C_2   0.987355 0.417563 0.027987 0.558768
C69   C     C_2   0.718231 0.981068 0.188671 0.485541
C70   C     C_2   0.350548 0.241714 0.887013 0.511463
C71   C     C_2   0.037873 0.615022 0.513258 0.559125
C72   C     C_2   0.037657 0.414383 0.602583 0.596652
C73   C     C_2   0.260319 0.606610 0.147482 0.547901
C74   C     C_2   0.737304 0.418101 0.657286 0.572878
C75   C     C_R   0.503110 0.068746 0.203054 0.027769
C76   C     C_R   0.717304 0.719665 0.904040 -0.171527
H1    H     H_    0.984444 0.999245 0.145213 0.164325
H2    H     H_    0.049970 0.239324 0.905131 0.163733
H3    H     H_    0.820249 0.541411 0.388161 0.140619
H4    H     H_    0.002887 0.395291 0.352629 0.163062
H5    H     H_    0.196296 0.340310 0.416147 0.159842
H6    H     H_    0.811969 0.658874 0.583746 0.185770
H7    H     H_    0.104261 0.700241 0.425922 0.170982
H8    H     H_    0.893205 0.063347 0.435178 0.229896
H9    H     H_    0.298601 0.654633 0.483588 0.151498
H10   H     H_    0.724546 0.210203 0.345768 0.184992
H11   H     H_    0.057938 0.642625 0.113866 0.191715
H12   H     H_    0.999183 0.026986 0.863162 0.161266
H13   H     H_    0.923409 0.245001 0.724846 0.179779
H14   H     H_    0.339549 0.441459 0.315492 0.127224
H15   H     H_    0.673472 0.494051 0.453795 0.146457
H16   H     H_    0.680383 0.183986 0.507704 0.129427
H17   H     H_    0.326088 0.784043 0.388735 0.141476
H18   H     H_    0.330010 0.081256 0.728447 0.136161
H19   H     H_    0.668052 0.027179 0.327085 0.140426
H20   H     H_    0.330717 0.331397 0.363464 0.105835
H21   H     H_    0.673384 0.637834 0.555814 0.107895
H22   H     H_    0.678081 0.968773 0.851591 0.125880
H23   H     H_    0.687764 0.659928 0.859314 0.148685
H24   H     H_    0.326784 0.123253 0.160191 0.152186
H25   H     H_    0.099631 0.017140 0.040567 0.151793
H26   H     H_    0.883353 0.993140 0.956635 0.130583
H27   H     H_    0.867759 0.541509 0.852249 0.101126
H28   H     H_    0.973737 0.488567 0.078800 0.031624
H29   H     H_    0.745454 0.904173 0.205758 0.097972
H30   H     H_    0.271999 0.294870 0.889592 0.061624
H31   H     H_    0.054316 0.678996 0.567657 0.061794
H32   H     H_    0.106056 0.389551 0.675662 0.052143
H33   H     H_    0.345388 0.588947 0.171700 0.010351
H34   H     H_    0.173488 0.443850 0.159196 0.117541
H35   H     H_    0.664141 0.485296 0.622737 0.001586
H36   H     H_    0.560938 0.831764 0.904185 0.127357
H37   H     H_    0.359624 0.331495 0.166774 0.122555
H38   H     H_    0.818710 0.937392 0.058565 0.156190
H39   H     H_    0.235362 0.126526 0.915677 0.156226
H40   H     H_    0.944091 0.768344 0.014051 0.176301
I1    I     I_    0.899744 0.779691 0.798283 -0.394340
I2    I     I_    0.121000 0.209599 0.180017 -0.485341
I3    I     I_    0.912971 0.678991 0.213991 -0.445586
I4    I     I_    0.042301 0.012265 0.666392 -0.386655
I5    I     I_    0.123501 0.148994 0.580115 -0.413747
I6    I     I_    0.875937 0.869369 0.434842 -0.450070
I7    I     I_    0.744710 0.214624 0.741716 -0.330859
I8    I     I_    0.119932 0.933095 0.370634 -0.360368
N1    N     N_R   0.705410 0.966550 0.689210 -0.073715
N2    N     N_R   0.556610 0.796750 0.548620 -0.041862
N3    N     N_R   0.556610 0.951620 0.703500 -0.050906
N4    N     N_R   0.443390 0.048380 0.296500 -0.045260
N5    N     N_R   0.294590 0.131500 0.522480 -0.058054
N6    N     N_R   0.705410 0.868500 0.477520 -0.069071
N7    N     N_R   0.705410 0.023370 0.632390 -0.075913
N8    N     N_R   0.294590 0.976630 0.367610 -0.085556
N9    N     N_R   0.294590 0.033450 0.310790 -0.080193
N10   N     N_R   0.294590 0.188320 0.465660 -0.060182
N11   N     N_R   0.705410 0.811680 0.534340 -0.055621
N12   N     N_R   0.556610 0.157790 0.497330 -0.039865
N13   N     N_R   0.443390 0.842210 0.502670 -0.039890
N14   N     N_R   0.443390 0.997080 0.657540 -0.046648
N15   N     N_R   0.556610 0.002920 0.342460 -0.043447
N16   N     N_R   0.443390 0.203250 0.451380 -0.039628
Ni1   Ni    Ni4+2 0.629830 0.882720 0.617850 0.245858
Ni2   Ni    Ni4+2 0.370170 0.117280 0.382150 0.235215
Ni3   Ni    Ni4+2 0.629830 0.013030 0.487540 0.242183
Ni4   Ni    Ni4+2 0.370170 0.986970 0.512460 0.280505
O1    O     O_2   0.993923 0.579098 0.924850 -0.532279
O2    O     O_2   0.910809 0.393338 0.970212 -0.507149
O3    O     O_2   0.779028 0.025388 0.234512 -0.578277
O4    O     O_2   0.375402 0.258791 0.831980 -0.562326
O5    O     O_2   0.110508 0.544337 0.488987 -0.609396
O6    O     O_2   0.945714 0.467057 0.599485 -0.612658
O7    O     O_2   0.201047 0.604380 0.055738 -0.511754
O8    O     O_2   0.781253 0.421782 0.750691 -0.557832

loop_
_geom_bond_atom_site_label_1
_geom_bond_atom_site_label_2
_ccdc_geom_bond_type
N8    Ni4   S    
C37   C74   S    
C63   C65   A    
N2    N13   A    
C18   C75   S    
C31   H9    S    
C71   H31   S    
C29   C42   A    
C25   H4    S    
C14   C18   A    
N6    N11   A    
C58   H22   S    
N12   N16   A    
C16   N10   A    
C63   I8    S    
C10   H2    S    
N7    Ni3   S    
C47   C49   A    
N5    Ni4   S    
C51   H26   S    
C15   C19   A    
C40   N12   A    
C46   C49   A    
N9    Ni2   S    
C27   H12   S    
C14   C21   A    
C35   C37   A    
N4    N15   A    
N16   Ni2   S    
C29   H7    S    
N12   Ni3   S    
C11   C76   A    
C13   C68   S    
C42   I3    S    
C33   C36   A    
C56   C57   A    
C48   C56   S    
C17   H6    S    
N3    Ni1   S    
C2    C13   A    
C66   O1    D    
C62   C64   A    
C8    H39   S    
N15   Ni3   S    
C41   H17   S    
C72   H32   S    
N1    Ni1   S    
N8    N9    A    
C22   C25   D    
C17   N11   A    
C31   C33   A    
C19   C67   S    
N3    N14   A    
C41   N13   A    
C11   C66   S    
C43   I4    S    
C48   C50   A    
C32   H10   S    
C58   N3    A    
C73   O7    D    
C59   H24   S    
C74   O8    D    
C23   C60   A    
C66   H27   S    
C22   C72   S    
C62   I7    S    
C27   C51   D    
C45   C47   S    
C40   C45   A    
C46   C48   A    
C52   H25   S    
C53   N14   A    
C32   C35   A    
C4    H37   S    
C4    C6    A    
C70   H30   S    
C74   H35   S    
C5    C7    A    
C69   H29   S    
C39   C43   A    
C46   H15   S    
C25   C26   S    
C34   C61   A    
C24   C34   S    
C55   N16   A    
C51   C52   S    
C15   C20   A    
C76   H23   S    
C2    C4    A    
C41   C56   A    
C35   C49   S    
N6    Ni3   S    
N10   Ni2   S    
N1    N7    A    
C54   N15   A    
C3    H36   S    
C57   H21   S    
C59   N4    A    
C1    I1    S    
C63   N8    A    
C40   H16   S    
C28   H1    S    
C9    C11   A    
C54   H19   S    
C61   N6    A    
C12   I2    S    
C8    C10   A    
N13   Ni4   S    
C16   C23   A    
C72   O6    D    
C12   N9    A    
C69   O3    D    
C14   C69   S    
C30   C43   A    
C70   O4    D    
C17   C34   A    
C1    C64   A    
C59   C75   A    
C57   N2    A    
C68   O2    D    
C7    H38   S    
C44   C50   A    
C7    C9    A    
C15   C70   S    
C2    H34   S    
C19   C21   A    
C53   H18   S    
C9    H40   S    
C62   N7    A    
C68   H28   S    
C1    N1    A    
C55   H20   S    
C3    C5    A    
C10   C13   A    
C60   N5    A    
C6    C8    A    
C44   C47   A    
C73   H33   S    
C6    C20   S    
C12   C65   A    
N2    Ni1   S    
C26   H3    S    
C38   H11   S    
C36   C38   A    
C28   C65   S    
C33   C50   S    
C29   C31   A    
N14   Ni4   S    
C30   C32   A    
C28   C52   D    
C24   C26   D    
C71   O5    D    
C16   H5    S    
C18   C20   A    
C30   H8    S    
C60   I5    S    
C53   C67   A    
C27   C64   S    
N5    N10   A    
C38   C42   A    
C58   C67   A    
N11   Ni1   S    
C5    C21   S    
C45   C55   A    
C37   C39   A    
C3    C76   A    
C22   C23   S    
C61   I6    S    
N4    Ni2   S    
C36   C73   S    
C39   H13   S    
C24   C71   S    
C54   C75   A    
C44   H14   S    
