data_mof_unit_22090.cif
_audit_creation_date              2012-12-10T19:44:54-0500
_audit_creation_method            fapswitch 2.2
_symmetry_space_group_name_H-M    P1
_symmetry_Int_Tables_number       1
_space_group_crystal_system       triclinic
_cell_length_a                    15.048023
_cell_length_b                    10.879467
_cell_length_c                    13.78429
_cell_angle_alpha                 90.773023
_cell_angle_beta                  91.697089
_cell_angle_gamma                 89.67656
_cell_volume                      2255.46150587

loop_
_atom_site_label
_atom_site_type_symbol
_atom_type_description
_atom_site_fract_x
_atom_site_fract_y
_atom_site_fract_z
_atom_type_partial_charge
C1    C     C_R   0.504151 0.262193 0.499005 0.779589
C2    C     C_R   0.503207 0.737659 0.501166 0.798057
C3    C     C_R   0.051668 0.422342 0.663992 -0.213349
C4    C     C_R   0.948175 0.588770 0.337765 -0.223627
C5    C     C_R   0.476689 0.141322 0.146893 -0.165888
C6    C     C_R   0.626462 0.777954 0.804199 -0.132931
C7    C     C_R   0.461818 0.103505 0.241300 -0.259863
C8    C     C_R   0.609036 0.821725 0.710733 -0.167375
C9    C     C_R   0.529830 0.110492 0.312935 0.075862
C10   C     C_R   0.530168 0.887129 0.689104 0.036863
C11   C     C_R   0.615124 0.152257 0.289379 0.515823
C12   C     C_R   0.469807 0.911470 0.763742 0.470160
C13   C     C_R   0.629502 0.187552 0.192422 -0.247831
C14   C     C_R   0.487502 0.864998 0.857094 -0.219736
C15   C     C_R   0.560335 0.183143 0.122530 -0.156849
C16   C     C_R   0.565886 0.799769 0.877269 -0.193738
C17   C     C_R   0.511015 0.931164 0.414268 -0.227448
C18   C     C_R   0.515392 0.067999 0.585938 -0.218864
C19   C     C_R   0.509911 0.871345 0.503439 -0.098633
C20   C     C_R   0.511410 0.128083 0.496973 -0.073761
C21   C     C_R   0.516381 0.940821 0.591092 0.066381
C22   C     C_R   0.514826 0.058189 0.409743 0.058249
C23   C     C_R   0.328637 0.500461 0.499032 0.816772
C24   C     C_R   0.671329 0.501893 0.501087 0.799728
C25   C     C_R   0.575799 0.468136 0.797288 0.580836
C26   C     C_R   0.421614 0.512869 0.201243 0.581576
C27   C     C_R   0.425409 0.535995 0.791519 -0.081048
C28   C     C_R   0.578581 0.489394 0.208460 -0.087362
C29   C     C_R   0.423824 0.537846 0.893935 0.007185
C30   C     C_R   0.580812 0.490508 0.105931 0.010971
C31   C     C_R   0.501949 0.511032 0.948294 0.036238
C32   C     C_R   0.502047 0.511984 0.051382 0.037945
C33   C     C_R   0.579764 0.481789 0.899764 -0.074634
C34   C     C_R   0.422746 0.530913 0.099652 -0.071526
C35   C     C_R   0.346163 0.566960 0.943221 -0.206737
C36   C     C_R   0.660007 0.470514 0.056718 -0.223307
C37   C     C_R   0.345455 0.562870 0.044852 -0.194488
C38   C     C_R   0.659444 0.465742 0.954864 -0.205296
C39   C     C_R   0.811699 0.547383 0.420597 -0.261818
C40   C     C_R   0.188002 0.460252 0.580178 -0.243006
C41   C     C_R   0.768111 0.506423 0.502638 -0.087972
C42   C     C_R   0.231766 0.501063 0.498219 -0.084036
C43   C     C_R   0.817152 0.467476 0.584537 -0.258554
C44   C     C_R   0.182915 0.544706 0.417626 -0.260120
C45   C     C_R   0.909667 0.466529 0.584403 0.101275
C46   C     C_R   0.090302 0.545945 0.417757 0.107837
C47   C     C_R   0.953421 0.507079 0.501608 0.056068
C48   C     C_R   0.046472 0.505120 0.500446 0.061905
C49   C     C_R   0.904173 0.548549 0.419660 0.113252
C50   C     C_R   0.095624 0.462324 0.582012 0.111091
C51   C     C_R   0.959101 0.424622 0.665238 -0.210955
C52   C     C_R   0.040812 0.587689 0.336888 -0.205187
Cu1   Cu    Cu3+1 0.500010 0.499980 0.597420 0.963082
Cu2   Cu    Cu3+1 0.499990 0.500020 0.402580 0.960768
H1    H     H_    0.773669 0.578247 0.357368 0.147818
H2    H     H_    0.225852 0.426474 0.642601 0.146164
H3    H     H_    0.511279 0.878763 0.346766 0.168738
H4    H     H_    0.520005 0.120363 0.652787 0.131118
H5    H     H_    0.366232 0.562366 0.750542 0.161101
H6    H     H_    0.640175 0.476173 0.248852 0.145603
H7    H     H_    0.285431 0.590022 0.903211 0.140528
H8    H     H_    0.722075 0.456108 0.096914 0.130585
H9    H     H_    0.283896 0.583833 0.080360 0.169779
H10   H     H_    0.721872 0.450745 0.919489 0.167937
H11   H     H_    0.783588 0.435328 0.647474 0.195795
H12   H     H_    0.216784 0.579346 0.355517 0.195392
H13   H     H_    0.088877 0.389372 0.727040 0.142401
H14   H     H_    0.910938 0.620508 0.274348 0.140442
H15   H     H_    0.572041 0.210554 0.048789 0.153780
H16   H     H_    0.579491 0.765560 0.949596 0.165997
H17   H     H_    0.423618 0.136585 0.092247 0.148966
H18   H     H_    0.687161 0.727310 0.820068 0.151777
H19   H     H_    0.397331 0.067809 0.258861 0.144892
H20   H     H_    0.657322 0.805537 0.655161 0.143474
H21   H     H_    0.693934 0.216347 0.169151 0.126151
H22   H     H_    0.440541 0.879989 0.914094 0.148164
N1    N     N_R   0.499960 0.499900 0.743810 -0.220685
N2    N     N_R   0.500040 0.500100 0.256190 -0.223293
O1    O     O_R   0.500000 0.319630 0.582270 -0.607083
O2    O     O_R   0.500000 0.680370 0.417730 -0.578358
O3    O     O_R   0.499990 0.319660 0.417730 -0.586402
O4    O     O_R   0.500010 0.680340 0.582270 -0.568263
O5    O     O_R   0.370260 0.499960 0.582280 -0.600036
O6    O     O_R   0.629740 0.500040 0.417720 -0.611829
O7    O     O_R   0.370250 0.499990 0.417740 -0.545318
O8    O     O_R   0.629750 0.500010 0.582260 -0.536049
O9    O     O_3   0.649231 0.420539 0.752135 -0.623864
C53   C     C_3   0.641989 0.290925 0.743387 0.078474
H23   H     H_    0.645869 0.266411 0.665226 0.183401
H24   H     H_    0.578637 0.252720 0.770455 0.099540
C54   C     C_3   0.720126 0.228020 0.796524 -0.414831
H25   H     H_    0.783809 0.265196 0.770967 0.219584
H26   H     H_    0.716436 0.245359 0.875747 0.218320
C55   C     C_3   0.718405 0.089356 0.779108 -0.899691
H27   H     H_    0.776516 0.046098 0.816901 0.258764
H28   H     H_    0.721174 0.067447 0.700289 0.260381
H29   H     H_    0.656745 0.050620 0.808376 0.260390
O10   O     O_3   0.339643 0.502991 0.242771 -0.625067
C56   C     C_3   0.314668 0.377175 0.245889 0.078749
H30   H     H_    0.275682 0.364047 0.311929 0.179512
H31   H     H_    0.372397 0.313483 0.253112 0.152831
C57   C     C_3   0.254949 0.340806 0.158393 -0.419295
H32   H     H_    0.202110 0.411455 0.147395 0.230070
H33   H     H_    0.295509 0.334814 0.092743 0.226037
C58   C     C_3   0.210930 0.216537 0.172434 -0.915526
H34   H     H_    0.262014 0.143348 0.181294 0.252820
H35   H     H_    0.168185 0.193719 0.107729 0.256113
H36   H     H_    0.168751 0.219478 0.237237 0.259930
H37   H     H_    0.926192 0.393261 0.729174 0.137623
H38   H     H_    0.073744 0.618963 0.272932 0.143844
O11   O     O_3   0.682800 0.141505 0.360318 -0.635993
C59   C     C_3   0.752438 0.227314 0.352741 0.058286
H39   H     H_    0.770308 0.259504 0.427526 0.172978
H40   H     H_    0.733383 0.311511 0.311989 0.121965
C60   C     C_3   0.834527 0.164130 0.311166 -0.357178
H41   H     H_    0.854714 0.086016 0.358240 0.233097
H42   H     H_    0.818844 0.126549 0.237442 0.210007
C61   C     C_3   0.912208 0.252997 0.305759 -0.897598
H43   H     H_    0.893274 0.333041 0.260271 0.254345
H44   H     H_    0.969702 0.205463 0.272895 0.253669
H45   H     H_    0.932673 0.285519 0.379715 0.266064
O12   O     O_3   0.391036 0.973768 0.743513 -0.612979
C62   C     C_3   0.391577 0.091128 0.789697 0.027402
H46   H     H_    0.387050 0.161654 0.732167 0.174300
H47   H     H_    0.452809 0.111691 0.834862 0.106764
C63   C     C_3   0.310230 0.104991 0.852695 -0.322016
H48   H     H_    0.249220 0.082678 0.808656 0.232998
H49   H     H_    0.315678 0.039933 0.914070 0.206391
C64   C     C_3   0.302210 0.235946 0.892738 -0.942161
H50   H     H_    0.361894 0.259822 0.938376 0.256364
H51   H     H_    0.242343 0.243476 0.937588 0.258663
H52   H     H_    0.295259 0.302404 0.832444 0.255664

loop_
_geom_bond_atom_site_label_1
_geom_bond_atom_site_label_2
_ccdc_geom_bond_type
O9    C53   S    
C63   H48   S    
C27   C29   A    
C34   C37   A    
C53   H24   S    
C44   H12   S    
O11   C59   S    
C59   H40   S    
C62   H46   S    
C7    H19   S    
Cu1   Cu2   S    
C6    H18   S    
C58   H35   S    
C26   N2    A    
C23   C42   S    
C23   O5    A    
C4    C52   A    
C25   N1    A    
Cu1   O1    S    
C9    C22   S    
C62   H47   S    
C45   C51   A    
C1    O3    A    
C60   H41   S    
C18   C21   A    
C46   C52   A    
C25   O9    S    
C57   C58   S    
C61   H43   S    
C26   C34   A    
C39   H1    S    
C13   H21   S    
C60   H42   S    
C31   C33   A    
Cu1   O8    S    
C28   N2    A    
Cu2   O2    S    
C64   H52   S    
C40   C42   A    
C51   H37   S    
C24   C41   S    
C41   C43   A    
C55   H27   S    
C42   C44   A    
C36   H8    S    
Cu2   O6    S    
C59   H39   S    
C37   H9    S    
C3    C50   A    
C44   C46   A    
C38   H10   S    
C45   C47   A    
C10   C21   S    
C15   H15   S    
C58   H36   S    
C46   C48   A    
C11   O11   S    
C16   H16   S    
C39   C41   A    
C54   H25   S    
C5    C7    A    
C3    C51   A    
C62   C63   S    
C6    C8    A    
C63   C64   S    
C40   H2    S    
Cu1   O4    S    
C61   H45   S    
C32   C34   A    
C57   H33   S    
C54   H26   S    
C43   C45   A    
C47   C48   A    
C53   C54   S    
C52   H38   S    
C43   H11   S    
C60   C61   S    
C25   C33   A    
C8    H20   S    
C35   H7    S    
C55   H28   S    
C9    C11   A    
C28   H6    S    
C10   C12   A    
C26   O10   S    
C8    C10   A    
C56   H31   S    
C12   C14   A    
C13   C15   A    
Cu1   N1    S    
C1    O1    A    
C14   C16   A    
C2    O4    A    
C36   C38   A    
C35   C37   A    
C4    H14   S    
C64   H50   S    
C7    C9    A    
C1    C20   S    
C63   H49   S    
C19   C21   A    
C2    C19   S    
C31   C32   A    
C3    H13   S    
C33   C38   A    
C20   C22   A    
C27   N1    A    
Cu2   O7    S    
C39   C49   A    
C47   C49   A    
C58   H34   S    
C29   C35   A    
C17   C22   A    
C55   H29   S    
C56   H30   S    
C30   C36   A    
C4    C49   A    
Cu1   O5    S    
C28   C30   A    
C24   O6    A    
C29   C31   A    
C27   H5    S    
C54   C55   S    
C30   C32   A    
C11   C13   A    
C40   C50   A    
C48   C50   A    
C17   C19   A    
C18   H4    S    
C18   C20   A    
C59   C60   S    
C57   H32   S    
C61   H44   S    
C5    C15   A    
C2    O2    A    
C6    C16   A    
C56   C57   S    
C12   O12   S    
C53   H23   S    
C5    H17   S    
O10   C56   S    
C23   O7    A    
C17   H3    S    
C64   H51   S    
O12   C62   S    
C24   O8    A    
Cu2   O3    S    
C14   H22   S    
Cu2   N2    S    
