data_mof_unit_9690.cif
_audit_creation_date              2012-12-11T16:45:39-0500
_audit_creation_method            fapswitch 2.2
_symmetry_space_group_name_H-M    P1
_symmetry_Int_Tables_number       1
_space_group_crystal_system       triclinic
_cell_length_a                    8.255287
_cell_length_b                    17.306683
_cell_length_c                    18.774901
_cell_angle_alpha                 98.249466
_cell_angle_beta                  91.924292
_cell_angle_gamma                 95.904189
_cell_volume                      2637.37774452

loop_
_atom_site_label
_atom_site_type_symbol
_atom_type_description
_atom_site_fract_x
_atom_site_fract_y
_atom_site_fract_z
_atom_type_partial_charge
Ba1   Ba    Ba6+2 0.849550 0.533890 0.465080 1.758310
Ba2   Ba    Ba6+2 0.340280 0.466170 0.534930 1.782352
C1    C     C_3   0.673512 0.816368 0.284870 -0.358376
C2    C     C_R   0.890923 0.437054 0.098114 0.038644
C3    C     C_R   0.729598 0.407166 0.076055 -0.079864
C4    C     C_3   0.132520 0.701180 0.268906 1.073409
C5    C     C_R   0.665578 0.415068 0.007855 -0.107946
C6    C     C_R   0.763518 0.450315 0.959159 0.012300
C7    C     C_R   0.925942 0.480114 0.980389 0.020027
C8    C     C_R   0.702710 0.453839 0.889041 -0.111462
C9    C     C_R   0.805270 0.481156 0.837255 -0.020469
C10   C     C_R   0.967602 0.513365 0.859036 0.014976
C11   C     C_R   0.026256 0.513850 0.931148 0.025762
C12   C     C_3   0.647399 0.736077 0.309074 0.356119
C13   C     C_R   0.752878 0.474636 0.763749 0.062012
C14   C     C_R   0.860376 0.500584 0.714029 -0.203984
C15   C     C_R   0.018377 0.534929 0.734724 0.032875
C16   C     C_3   0.153235 0.736190 0.199511 -0.275792
C17   C     C_R   0.072329 0.543864 0.808684 -0.073242
C18   C     C_R   0.148135 0.508066 0.073500 0.015024
C19   C     C_R   0.207595 0.506764 0.145232 0.030249
C20   C     C_R   0.107931 0.469539 0.193778 0.006078
C21   C     C_R   0.954597 0.430284 0.167111 -0.040612
C22   C     C_R   0.227890 0.581325 0.833970 -0.017392
C23   C     C_3   0.478108 0.349747 0.314898 0.362369
C24   C     C_R   0.287569 0.580309 0.904833 -0.035344
C25   C     C_R   0.187050 0.545661 0.953487 -0.058618
C26   C     C_R   0.247376 0.543353 0.024722 0.004858
C27   C     C_R   0.447812 0.612093 0.927621 0.563871
C28   C     C_3   0.228506 0.706796 0.619653 0.327768
C29   C     C_R   0.507002 0.609644 0.997834 -0.121638
C30   C     C_R   0.407699 0.575817 0.046838 -0.047810
C31   C     C_R   0.366934 0.542418 0.167996 -0.040375
C32   C     C_R   0.466457 0.574788 0.117633 -0.094128
C33   C     C_R   0.421018 0.545394 0.240717 -0.028881
C34   C     C_3   0.465074 0.328158 0.233387 -0.386134
C35   C     C_R   0.316803 0.514776 0.289504 -0.246108
C36   C     C_R   0.163555 0.474907 0.267514 0.071622
C37   C     C_R   0.402986 0.718847 0.471541 -0.261723
C38   C     C_R   0.550983 0.746260 0.508974 -0.006105
C39   C     C_R   0.614196 0.825073 0.511606 -0.132970
C40   C     C_3   0.224946 0.795518 0.631745 -0.347849
C41   C     C_R   0.525539 0.876884 0.479278 0.002352
C42   C     C_R   0.370969 0.849761 0.445772 -0.136189
C43   C     C_R   0.309466 0.770572 0.442785 -0.010191
C44   C     C_R   0.600527 0.161109 0.471813 -0.170359
C45   C     C_3   0.022649 0.195576 0.707003 0.356659
C46   C     C_R   0.646817 0.241958 0.484494 0.075169
C47   C     C_R   0.896710 0.221735 0.547927 -0.051839
C48   C     C_R   0.853867 0.139667 0.532114 0.479145
C49   C     C_R   0.701834 0.109639 0.496931 -0.028498
C50   C     C_1   0.644421 0.026825 0.488932 0.112588
C51   C     C_1   0.590830 0.958369 0.483709 0.020522
C52   C     C_3   0.988982 0.280083 0.367203 1.233429
C53   C     C_R   0.790067 0.271970 0.525179 -0.238033
C54   C     C_3   0.066655 0.202881 0.356182 0.355704
C55   C     C_3   0.758197 0.764829 0.679443 0.698724
C56   C     C_3   0.093945 0.117308 0.705068 -0.238012
C57   C     C_3   0.636546 0.819791 0.711338 -0.398449
C58   C     C_3   0.082468 0.150096 0.235794 0.182513
C59   C     C_3   0.825078 0.716411 0.786586 0.254621
C60   C     C_3   0.733402 0.267657 0.841261 0.189043
C61   C     C_3   0.632023 0.276197 0.724921 1.044883
C62   C     C_3   0.552670 0.224555 0.657916 0.671670
C63   C     C_R   0.988260 0.475415 0.050808 0.009515
F1    F     F_    0.823008 0.262600 0.361756 -0.732434
F2    F     F_    0.037057 0.318816 0.435260 -0.752019
F3    F     F_    0.777798 0.314475 0.705844 -0.861730
F4    F     F_    0.421190 0.176775 0.676377 -0.704216
F5    F     F_    0.030399 0.631962 0.254250 -0.687536
F6    F     F_    0.548444 0.644613 0.881704 -0.762760
F7    F     F_    0.957512 0.089363 0.550852 -0.740813
H1    H     H_    0.723155 0.737295 0.359275 0.096279
H2    H     H_    0.702399 0.872396 0.744984 0.113970
H3    H     H_    0.549223 0.789322 0.744552 0.118009
H4    H     H_    0.516951 0.724628 0.320524 -0.060201
H5    H     H_    0.639534 0.861977 0.327913 0.077689
H6    H     H_    0.360157 0.367647 0.333764 -0.052989
H7    H     H_    0.575128 0.399532 0.328860 0.060327
H8    H     H_    0.365896 0.279885 0.217318 0.097975
H9    H     H_    0.438277 0.379603 0.207810 0.031476
H10   H     H_    0.581913 0.308620 0.213944 0.134298
H11   H     H_    0.596382 0.817002 0.235358 0.108344
H12   H     H_    0.273273 0.820800 0.686978 0.137275
H13   H     H_    0.205665 0.694116 0.158641 0.071019
H14   H     H_    0.996697 0.215754 0.763914 0.058305
H15   H     H_    0.903914 0.186616 0.676563 0.020793
H16   H     H_    0.188207 0.121619 0.749754 0.143357
H17   H     H_    0.995766 0.070074 0.712093 0.063486
H18   H     H_    0.149817 0.100924 0.652668 0.227926
H19   H     H_    0.640381 0.186002 0.633197 -0.128583
H20   H     H_    0.511732 0.261072 0.618281 -0.035422
H21   H     H_    0.651906 0.378559 0.111920 0.063264
H22   H     H_    0.540242 0.391979 0.992607 0.074162
H23   H     H_    0.299806 0.823088 0.592475 0.051982
H24   H     H_    0.819758 0.494279 0.657882 0.068999
H25   H     H_    0.576859 0.431669 0.874540 0.094517
H26   H     H_    0.879628 0.396685 0.200258 0.088125
H27   H     H_    0.305784 0.610390 0.798695 0.150111
H28   H     H_    0.631117 0.634273 0.013868 0.104232
H29   H     H_    0.589970 0.600252 0.132853 0.117607
H30   H     H_    0.254269 0.688218 0.287827 -0.298744
H31   H     H_    0.359391 0.518390 0.345133 0.039375
H32   H     H_    0.487179 0.138428 0.441678 0.089209
H33   H     H_    0.298627 0.889816 0.422988 0.086152
H34   H     H_    0.098381 0.809983 0.624870 0.131776
H35   H     H_    0.731088 0.846306 0.538993 0.084225
H36   H     H_    0.355448 0.657797 0.468782 0.056025
H37   H     H_    0.823118 0.334839 0.535794 0.119281
H38   H     H_    0.033139 0.748832 0.178011 0.110296
H39   H     H_    0.236964 0.791620 0.209914 0.029977
H40   H     H_    0.355914 0.693670 0.615281 -0.013111
H41   H     H_    0.155628 0.682355 0.569154 0.044131
H42   H     H_    0.096827 0.208825 0.218009 0.035622
H43   H     H_    0.017821 0.108229 0.191083 0.072328
H44   H     H_    0.203556 0.129670 0.245817 0.035138
H45   H     H_    0.049241 0.174285 0.405080 0.024503
H46   H     H_    0.758150 0.658116 0.765690 0.076901
H47   H     H_    0.748511 0.752441 0.822501 0.083494
H48   H     H_    0.931311 0.705534 0.820051 0.047301
H49   H     H_    0.635232 0.291958 0.873620 0.059170
H50   H     H_    0.831880 0.314545 0.833772 0.062781
H51   H     H_    0.789322 0.226454 0.872482 0.042154
H52   H     H_    0.201087 0.215030 0.352243 -0.058219
H53   H     H_    0.820447 0.794856 0.637987 -0.007634
H54   H     H_    0.803546 0.830274 0.273442 0.151694
H55   H     H_    0.566882 0.839678 0.667139 0.044970
O1    O     O_2   0.878040 0.448040 0.325130 -0.454017
O2    O     O_2   0.235705 0.233416 0.554495 -0.441218
O3    O     O_3   0.135354 0.253417 0.684840 -0.530685
O4    O     O_3   0.126800 0.453980 0.414370 -0.430604
O5    O     O_3   0.569440 0.593820 0.536390 -0.460533
O6    O     O_2   0.359400 0.311980 0.465480 -0.449106
O7    O     O_3   0.515458 0.283994 0.345214 -0.575593
O8    O     O_2   0.410466 0.463164 0.755428 -0.472467
O9    O     O_3   0.519147 0.328005 0.752905 -0.618424
O10   O     O_3   0.651020 0.589120 0.368830 -0.490083
O11   O     O_2   0.753416 0.532998 0.242316 -0.427369
O12   O     O_3   0.676166 0.690374 0.650632 -0.642881
O13   O     O_3   0.034405 0.323531 0.312095 -0.707758
O14   O     O_3   0.693500 0.679137 0.254648 -0.565725
O15   O     O_2   0.830300 0.688050 0.534560 -0.472951
O16   O     O_3   0.068750 0.630380 0.404830 -0.447892
O17   O     O_2   0.974535 0.771271 0.452456 -0.497475
O18   O     O_3   0.988304 0.150698 0.297119 -0.628708
O19   O     O_3   0.883545 0.757116 0.730864 -0.657682
O20   O     O_3   0.666151 0.225255 0.775172 -0.645915
O21   O     O_3   0.062678 0.754347 0.319524 -0.634390
O22   O     O_2   0.311660 0.551990 0.674910 -0.463225
O23   O     O_3   0.062910 0.546080 0.585630 -0.485578
O24   O     O_3   0.538690 0.410940 0.631180 -0.482740
O25   O     O_3   0.165157 0.676703 0.679243 -0.607815
O26   O     O_3   0.620260 0.406250 0.463620 -0.472858
O27   O     O_3   0.120960 0.369680 0.595180 -0.415915
P1    P     P_3+3 0.048060 0.426210 0.336320 1.064511
P2    P     P_3+3 0.655920 0.678120 0.556130 0.978169
P3    P     P_3+3 0.103457 0.732288 0.406006 0.987934
P4    P     P_3+3 0.141640 0.573850 0.663690 1.021079
P5    P     P_3+3 0.092985 0.267097 0.595166 1.153525
P6    P     P_3+3 0.628726 0.586024 0.275955 1.007137
P7    P     P_3+3 0.536733 0.308917 0.438991 1.060135
P8    P     P_3+3 0.555625 0.421215 0.725741 1.026728

loop_
_geom_bond_atom_site_label_1
_geom_bond_atom_site_label_2
_ccdc_geom_bond_type
Ba2   O23   S    
C46   C53   A    
C59   H47   S    
C22   H27   S    
C54   H45   S    
C13   P8    S    
C58   H42   S    
Ba1   O1    S    
C60   H50   S    
C59   O19   S    
Ba1   O5    S    
C1    H54   S    
C5    C6    A    
O9    P8    S    
C42   H33   S    
C42   C43   A    
C24   C25   A    
C54   H52   S    
C33   C35   A    
C22   C24   A    
C55   H53   S    
C2    C63   A    
C55   C57   S    
C19   C31   A    
O13   P1    S    
C57   H55   S    
C13   C14   A    
C20   C36   A    
C55   O12   S    
Ba1   Ba2   S    
C54   O18   S    
Ba1   P1    S    
C48   F7    S    
C33   P6    S    
C7    C11   A    
Ba1   O15   S    
O1    P1    D    
C15   C17   A    
C9    C13   A    
C41   C51   S    
C52   O13   S    
C34   H10   S    
C6    C7    A    
C38   P2    S    
Ba2   O5    S    
C39   H35   S    
O22   P4    D    
C37   C43   A    
Ba2   O22   S    
C12   O14   S    
Ba2   O27   S    
C23   H7    S    
C55   O19   S    
C53   H37   S    
C59   H48   S    
C39   C41   A    
C36   P1    S    
C61   O20   S    
C60   H51   S    
O16   P3    S    
C44   C46   A    
C37   H36   S    
C4    C16   S    
C52   C54   S    
C14   H24   S    
C16   H13   S    
Ba2   O4    S    
C45   O3    S    
C40   H23   S    
C32   H29   S    
C45   H14   S    
Ba2   O6    S    
C18   C63   A    
C26   C30   A    
C40   H12   S    
C16   H39   S    
C34   H8    S    
C37   C38   A    
C3    C5    A    
C2    C21   A    
C14   C15   A    
C46   P7    S    
C18   C26   A    
C47   C53   A    
C44   H32   S    
C44   C49   A    
C23   H6    S    
O26   P7    S    
O3    P5    S    
C30   C32   A    
Ba1   P2    S    
C41   C42   A    
C12   H1    S    
C35   C36   A    
Ba1   O16   S    
C4    O21   S    
O14   P6    S    
C28   O25   S    
C29   C30   A    
C34   H9    S    
Ba2   P4    S    
O24   P8    S    
C48   C49   A    
C43   P3    S    
Ba1   O23   S    
C29   H28   S    
C10   C11   A    
Ba1   O26   S    
C23   O7    S    
C40   H34   S    
C57   H2    S    
C1    C12   S    
C56   H18   S    
O25   P4    S    
C52   F1    S    
C38   C39   A    
Ba2   O26   S    
C60   O20   S    
C1    H11   S    
O8    P8    D    
C58   H44   S    
C58   O18   S    
C62   H20   S    
C1    H5    S    
C57   H3    S    
O2    P5    D    
Ba1   O10   S    
C50   C51   T    
C35   H31   S    
Ba2   O24   S    
C4    F5    S    
C5    H22   S    
C61   F3    S    
O23   P4    S    
O10   P6    S    
C59   H46   S    
C8    H25   S    
C47   P5    S    
C16   H38   S    
C2    C3    A    
Ba1   O4    S    
O6    P7    D    
C3    H21   S    
C9    C10   A    
C52   F2    S    
C62   F4    S    
O7    P7    S    
C61   O9    S    
O4    P1    S    
C17   C22   A    
C49   C50   S    
C27   C29   A    
C15   P4    S    
C45   C56   S    
O12   P2    S    
C10   C17   A    
C31   C33   A    
C31   C32   A    
C28   C40   S    
O21   P3    S    
C4    H30   S    
O5    P2    S    
C56   H17   S    
C7    C63   A    
C8    C9    A    
C23   C34   S    
C61   C62   S    
O11   P6    D    
O27   P5    S    
C21   H26   S    
C18   C19   A    
C24   C27   A    
C6    C8    A    
C47   C48   A    
C28   H40   S    
C25   C26   A    
C20   C21   A    
C11   C25   A    
C58   H43   S    
C62   H19   S    
O15   P2    D    
O17   P3    D    
C19   C20   A    
C56   H16   S    
C60   H49   S    
C12   H4    S    
C27   F6    S    
C28   H41   S    
C45   H15   S    
