data_mof_unit_50445.cif
_audit_creation_date              2012-10-26T20:23:21-0400
_audit_creation_method            fapswitch 2.2
_symmetry_space_group_name_H-M    P1
_symmetry_Int_Tables_number       1
_space_group_crystal_system       triclinic
_cell_length_a                    10.667147
_cell_length_b                    12.758752
_cell_length_c                    13.882574
_cell_angle_alpha                 98.022025
_cell_angle_beta                  90.053155
_cell_angle_gamma                 92.454176
_cell_volume                      1869.16076348

loop_
_atom_site_label
_atom_site_type_symbol
_atom_type_description
_atom_site_fract_x
_atom_site_fract_y
_atom_site_fract_z
_atom_type_partial_charge
C1    C     C_R   0.498562 0.483521 0.315836 0.551955
C2    C     C_3   0.957427 0.577586 0.570995 -0.178724
C3    C     C_3   0.956650 0.520558 0.414516 0.277693
C4    C     C_3   0.041543 0.484624 0.585138 0.210575
C5    C     C_3   0.876289 0.498157 0.500935 0.008505
C6    C     C_3   0.123241 0.506496 0.497676 -0.046397
C7    C     C_3   0.959289 0.406548 0.516272 0.235876
C8    C     C_3   0.039335 0.599573 0.483677 0.266192
C9    C     C_1   0.500714 0.526119 0.787586 -0.011396
C10   C     C_1   0.498037 0.474007 0.212437 -0.009494
C11   C     C_2   0.499643 0.543732 0.978604 -0.129369
C12   C     C_R   0.501053 0.516506 0.684169 0.552654
C13   C     C_2   0.497512 0.456576 0.021438 -0.127784
C14   C     C_1   0.497718 0.465463 0.125304 -0.058312
C15   C     C_1   0.500245 0.534780 0.874728 -0.057457
C16   C     C_3   0.969100 0.509433 0.244990 0.016859
C17   C     C_3   0.092160 0.574721 0.236795 -0.252574
C18   C     C_3   0.157378 0.540611 0.140407 -0.491986
C19   C     C_3   0.000555 0.455659 0.744000 0.022012
C20   C     C_3   0.013153 0.550917 0.824104 -0.273311
C21   C     C_3   0.913061 0.544875 0.901900 -0.486577
C22   C     C_3   0.002163 0.236785 0.545379 0.026694
C23   C     C_2   0.476907 0.027593 0.465551 0.093400
C24   C     C_3   0.993535 0.147959 0.459310 -0.259458
C25   C     C_3   0.090158 0.065382 0.468762 -0.491458
C26   C     C_3   0.150747 0.768210 0.510380 0.021725
C27   C     C_3   0.135169 0.778161 0.621484 -0.284529
C28   C     C_3   0.226257 0.862819 0.673851 -0.476241
C29   C     C_2   0.523308 0.972276 0.534068 0.097731
C30   C     C_1   0.521520 0.854623 0.521735 0.162267
C31   C     C_1   0.478641 0.145329 0.477969 0.177871
C32   C     C_R   0.259161 0.501687 0.499100 0.567717
C33   C     C_R   0.740609 0.499016 0.500326 0.587443
C34   C     C_3   0.039690 0.426837 0.427785 -0.207141
Cu1   Cu    Cu3+1 0.491940 0.395330 0.493960 1.021409
Cu2   Cu    Cu3+1 0.508060 0.604670 0.506040 0.994052
H1    H     H_    0.076579 0.365546 0.371649 0.096259
H2    H     H_    0.245801 0.589059 0.136783 0.161408
H3    H     H_    0.096196 0.552327 0.078391 0.146409
H4    H     H_    0.015598 0.382462 0.776649 0.149276
H5    H     H_    0.902735 0.447925 0.714292 0.145731
H6    H     H_    0.107582 0.553360 0.858523 0.176499
H7    H     H_    0.003747 0.625231 0.791994 0.155410
H8    H     H_    0.817808 0.544516 0.869360 0.158076
H9    H     H_    0.924862 0.614851 0.958941 0.148463
H10   H     H_    0.922065 0.472035 0.936402 0.144490
H11   H     H_    0.985416 0.202130 0.613590 0.145837
H12   H     H_    0.918822 0.635477 0.629296 0.101295
H13   H     H_    0.099398 0.273294 0.550901 0.165940
H14   H     H_    0.898022 0.109108 0.456046 0.188688
H15   H     H_    0.009975 0.181540 0.390543 0.160187
H16   H     H_    0.186322 0.102717 0.472442 0.148422
H17   H     H_    0.083338 0.002787 0.404611 0.154030
H18   H     H_    0.072386 0.028511 0.535607 0.145312
H19   H     H_    0.140537 0.848228 0.489760 0.147777
H20   H     H_    0.246595 0.748560 0.487057 0.182994
H21   H     H_    0.037808 0.800102 0.640897 0.160409
H22   H     H_    0.154512 0.702025 0.647508 0.181981
H23   H     H_    0.495993 0.378312 0.978827 0.137461
H24   H     H_    0.324475 0.840016 0.659774 0.163843
H25   H     H_    0.209744 0.870586 0.753436 0.145967
H26   H     H_    0.212540 0.940727 0.649237 0.143623
H27   H     H_    0.524799 0.004368 0.680452 0.219950
H28   H     H_    0.667649 0.007377 0.628557 0.230039
H29   H     H_    0.477011 0.995620 0.319124 0.232462
H30   H     H_    0.333687 0.991655 0.369889 0.215586
H31   H     H_    0.501176 0.622002 0.021210 0.136026
H32   H     H_    0.909229 0.517433 0.181108 0.154523
H33   H     H_    0.985734 0.423469 0.240250 0.111766
H34   H     H_    0.071821 0.660047 0.242281 0.203090
H35   H     H_    0.157338 0.564253 0.296762 0.172328
H36   H     H_    0.180545 0.455880 0.134196 0.151156
N1    N     N_1   0.479830 0.238040 0.484880 -0.194482
N2    N     N_1   0.520170 0.761960 0.515120 -0.207494
N3    N     N_3   0.574968 0.029319 0.622481 -0.637826
N4    N     N_3   0.426420 0.970398 0.376762 -0.651127
O1    O     O_R   0.492210 0.399110 0.356330 -0.502947
O2    O     O_3   0.094710 0.464229 0.673452 -0.572734
O3    O     O_3   0.907070 0.308756 0.536792 -0.553503
O4    O     O_3   0.060164 0.701172 0.454710 -0.552288
O5    O     O_R   0.507790 0.600890 0.643670 -0.505598
O6    O     O_R   0.505820 0.575890 0.366540 -0.480283
O7    O     O_R   0.494180 0.424110 0.633460 -0.480191
O8    O     O_R   0.310050 0.411620 0.494870 -0.496908
O9    O     O_R   0.689950 0.588380 0.505130 -0.481572
O10   O     O_R   0.323660 0.588400 0.505080 -0.522955
O11   O     O_R   0.676340 0.411600 0.494920 -0.461099
O12   O     O_3   0.900854 0.547252 0.329075 -0.532130

loop_
_geom_bond_atom_site_label_1
_geom_bond_atom_site_label_2
_ccdc_geom_bond_type
C6    C32   S    
C34   H1    S    
C1    O1    A    
C19   C20   S    
C23   N4    S    
C26   H19   S    
C26   C27   S    
H29   N4    S    
C23   C29   D    
C25   H17   S    
C22   O3    S    
C30   N2    T    
C31   N1    T    
C33   O9    A    
C11   C15   S    
Cu1   Cu2   S    
Cu2   O6    S    
C16   C17   S    
C5    C33   S    
C16   H32   S    
C28   H25   S    
C24   H15   S    
C22   H11   S    
H30   N4    S    
C17   H34   S    
C13   C14   S    
C18   H36   S    
Cu1   O11   S    
C4    C7    S    
C11   H31   S    
C21   H9    S    
C28   H24   S    
C24   H14   S    
C32   O8    A    
C1    C10   S    
C25   H18   S    
C4    C6    S    
C3    C8    S    
C27   H21   S    
C5    C7    S    
Cu1   O7    S    
C6    C8    S    
C3    C34   S    
C2    H12   S    
C1    O6    A    
Cu1   O1    S    
C26   O4    S    
C6    C34   S    
C12   O7    A    
C23   C31   S    
C19   O2    S    
C2    C4    S    
C18   H3    S    
C4    O2    S    
C29   C30   S    
C21   H8    S    
Cu2   O5    S    
C32   O10   A    
C17   C18   S    
C24   C25   S    
Cu2   N2    S    
C22   H13   S    
C29   N3    S    
C17   H35   S    
C8    O4    S    
C10   C14   T    
C7    C34   S    
C22   C24   S    
C2    C5    S    
C20   H7    S    
C7    O3    S    
C21   H10   S    
Cu1   N1    S    
C3    O12   S    
C9    C15   T    
C2    C8    S    
C16   H33   S    
C3    C5    S    
C27   H22   S    
C26   H20   S    
C20   H6    S    
Cu1   O8    S    
C13   H23   S    
Cu2   O9    S    
Cu2   O10   S    
C33   O11   A    
C25   H16   S    
C11   C13   D    
H27   N3    S    
H28   N3    S    
C12   O5    A    
C18   H2    S    
C9    C12   S    
C19   H4    S    
C20   C21   S    
C27   C28   S    
C16   O12   S    
C19   H5    S    
C28   H26   S    
