data_mof_unit_60351.cif
_audit_creation_date              2012-12-10T17:54:05-0500
_audit_creation_method            fapswitch 2.2
_symmetry_space_group_name_H-M    P1
_symmetry_Int_Tables_number       1
_space_group_crystal_system       triclinic
_cell_length_a                    19.039346
_cell_length_b                    18.752004
_cell_length_c                    18.684469
_cell_angle_alpha                 108.992807
_cell_angle_beta                  109.106302
_cell_angle_gamma                 109.857314
_cell_volume                      5163.72742769

loop_
_atom_site_label
_atom_site_type_symbol
_atom_type_description
_atom_site_fract_x
_atom_site_fract_y
_atom_site_fract_z
_atom_type_partial_charge
C1    C     C_R   0.880926 0.381255 0.999772 0.853712
C2    C     C_R   0.811196 0.315450 0.997346 -0.133618
C3    C     C_R   0.743133 0.242167 0.917996 -0.294529
C4    C     C_R   0.676200 0.177767 0.916560 0.491298
C5    C     C_R   0.681930 0.185208 0.996249 -0.137616
C6    C     C_R   0.744901 0.262570 0.073010 -0.085874
C7    C     C_3   0.804004 0.278156 0.159054 -0.437986
C8    C     C_3   0.874143 0.349048 0.159899 0.443159
C9    C     C_R   0.197877 0.527500 0.267436 0.121118
C10   C     C_R   0.187439 0.503960 0.184550 -0.075726
C11   C     C_R   0.245839 0.481161 0.166803 -0.167031
C12   C     C_R   0.881757 0.499006 0.881153 0.689323
C13   C     C_R   0.310637 0.481613 0.231381 -0.218972
C14   C     C_R   0.315794 0.502164 0.313146 -0.059951
C15   C     C_R   0.257704 0.524486 0.327924 0.118683
C16   C     C_3   0.229637 0.549622 0.393043 -0.467612
C17   C     C_3   0.161434 0.553375 0.324263 -0.391236
C18   C     C_R   0.182332 0.757668 0.002492 0.069976
C19   C     C_R   0.188563 0.686347 0.004563 -0.224192
C20   C     C_R   0.264861 0.684414 0.016642 0.479050
C21   C     C_R   0.330451 0.751360 0.019381 -0.294239
C22   C     C_R   0.317382 0.815776 0.004376 -0.157889
C23   C     C_R   0.119084 0.618813 0.000476 0.852028
C24   C     C_R   0.244810 0.820279 0.000642 0.102918
C25   C     C_3   0.180961 0.828874 0.937070 -0.434361
C26   C     C_3   0.111905 0.759915 0.939242 0.066874
C27   C     C_R   0.497019 0.380973 0.378297 0.819657
C28   C     C_R   0.613668 0.504483 0.620081 0.782498
C29   C     C_R   0.497461 0.618413 0.616318 0.858853
C30   C     C_R   0.379639 0.500769 0.379196 0.801311
C31   C     C_R   0.500888 0.881883 0.881765 0.829570
C32   C     C_R   0.618011 0.117851 0.998336 0.852013
C33   C     C_R   0.499294 0.118341 0.118377 0.848257
C34   C     C_R   0.118796 0.501109 0.118277 0.845133
C35   C     C_R   0.381821 0.880851 0.000383 0.845487
C36   C     C_R   0.573717 0.317971 0.319625 0.112602
C37   C     C_R   0.496925 0.312837 0.312988 -0.154807
C38   C     C_R   0.419459 0.235851 0.247635 -0.291878
C39   C     C_R   0.418626 0.171122 0.181813 0.477215
C40   C     C_R   0.497125 0.181759 0.185973 -0.181720
C41   C     C_R   0.573867 0.252843 0.258112 0.061946
C42   C     C_3   0.650029 0.316282 0.261869 -0.463104
C43   C     C_3   0.649311 0.388001 0.329088 -0.403340
C44   C     C_R   0.502460 0.757764 0.682507 0.044201
C45   C     C_2   0.759456 0.565332 0.736472 -0.175675
C46   C     C_R   0.499644 0.684054 0.685576 -0.172857
C47   C     C_R   0.497722 0.676095 0.758071 0.258485
C48   C     C_R   0.499124 0.742052 0.823226 -0.232205
C49   C     C_R   0.499771 0.814562 0.815667 -0.106401
C50   C     C_R   0.500568 0.818998 0.743387 0.042453
C51   C     C_3   0.503186 0.872935 0.699772 -0.486000
C52   C     C_3   0.504725 0.802365 0.629717 0.326911
C53   C     C_2   0.674256 0.516417 0.701283 0.211725
C54   C     C_2   0.820098 0.567837 0.811675 -0.186075
C55   C     C_2   0.813995 0.493745 0.810033 0.398382
C56   C     C_R   0.807966 0.326918 0.073548 0.101048
Cu1   Cu    Cu3+1 0.999590 0.561790 0.061400 1.056558
Cu2   Cu    Cu3+1 0.000410 0.438210 0.938600 0.981887
Cu3   Cu    Cu3+1 0.558560 0.561730 0.496790 0.966231
Cu4   Cu    Cu3+1 0.434970 0.438120 0.496790 1.047809
Cu5   Cu    Cu3+1 0.438600 0.999980 0.938570 0.976665
Cu6   Cu    Cu3+1 0.561400 0.999920 0.061330 0.986273
H1    H     H_    0.785803 0.601136 0.707552 0.147479
H2    H     H_    0.241727 0.463460 0.103710 0.171519
H3    H     H_    0.355035 0.464192 0.216945 0.147144
H4    H     H_    0.202219 0.496141 0.406486 0.225806
H5    H     H_    0.278792 0.614045 0.451321 0.247161
H6    H     H_    0.095099 0.502536 0.299069 0.267456
H7    H     H_    0.171552 0.620147 0.342712 0.207718
H8    H     H_    0.389603 0.750899 0.029434 0.172691
H9    H     H_    0.187605 0.894402 0.965668 0.238885
H10   H     H_    0.178705 0.806268 0.873046 0.177071
H11   H     H_    0.068843 0.697727 0.876533 0.114214
H12   H     H_    0.359660 0.227583 0.245824 0.174788
H13   H     H_    0.707034 0.309259 0.289256 0.211072
H14   H     H_    0.635022 0.317770 0.199788 0.197130
H15   H     H_    0.706208 0.422571 0.394805 0.205389
H16   H     H_    0.633120 0.430812 0.305787 0.208320
H17   H     H_    0.873982 0.630610 0.865169 0.164621
H18   H     H_    0.498578 0.736053 0.878822 0.177121
H19   H     H_    0.443553 0.876774 0.676454 0.223516
H20   H     H_    0.564026 0.936265 0.738657 0.206491
H21   H     H_    0.565442 0.823259 0.626584 0.089471
H22   H     H_    0.743365 0.233881 0.857962 0.152639
H23   H     H_    0.786411 0.303117 0.209085 0.198396
H24   H     H_    0.813212 0.221657 0.154266 0.226152
O1    O     O_R   0.909480 0.462010 0.051860 -0.553659
O2    O     O_R   0.445180 0.357580 0.407200 -0.579677
O3    O     O_R   0.638540 0.552110 0.586390 -0.610979
O4    O     O_R   0.534170 0.447730 0.586390 -0.529693
O5    O     O_R   0.548350 0.642270 0.586380 -0.598154
O6    O     O_R   0.443970 0.537890 0.586380 -0.545677
O7    O     O_R   0.459360 0.552110 0.407190 -0.586432
O8    O     O_R   0.354990 0.447740 0.407190 -0.582402
O9    O     O_R   0.448700 0.909820 0.858480 -0.579332
O10   O     O_R   0.552410 0.909770 0.962140 -0.585791
O11   O     O_R   0.538310 0.090150 0.948110 -0.572197
O12   O     O_R   0.910180 0.357650 0.948150 -0.585580
O13   O     O_R   0.642020 0.090090 0.051780 -0.589984
O14   O     O_R   0.447590 0.090130 0.037760 -0.573821
O15   O     O_R   0.551300 0.090080 0.141420 -0.584961
O16   O     O_R   0.357980 0.909810 0.948120 -0.584755
O17   O     O_R   0.461690 0.909750 0.051790 -0.587082
O18   O     O_R   0.910060 0.552180 0.962250 -0.572961
O19   O     O_R   0.910760 0.447820 0.858550 -0.587938
O20   O     O_R   0.089820 0.642350 0.051850 -0.557295
O21   O     O_R   0.090520 0.537990 0.948140 -0.581390
O22   O     O_R   0.089240 0.552180 0.141450 -0.578191
O23   O     O_R   0.089940 0.447820 0.037750 -0.579319
O24   O     O_R   0.549550 0.461960 0.407200 -0.590968
Br1   Br    Br    0.964629 0.324232 0.156160 -0.530130
O25   O     O_3   0.276561 0.620339 0.030996 -0.579630
C57   C     C_3   0.279749 0.566221 0.960585 -0.269297
H25   H     H_    0.340825 0.600229 0.961521 0.163878
H26   H     H_    0.277231 0.508745 0.966977 0.186563
H27   H     H_    0.223783 0.541691 0.896971 0.163193
Br2   Br    Br    0.625014 0.469152 0.762252 -0.421180
Br3   Br    Br    0.053447 0.804531 0.993010 -0.482120
O26   O     O_3   0.342673 0.095379 0.116428 -0.567101
C58   C     C_3   0.289893 0.115493 0.063122 -0.255304
H28   H     H_    0.236177 0.053914 0.003838 0.187896
H29   H     H_    0.325136 0.156916 0.041571 0.151189
H30   H     H_    0.261388 0.147160 0.096439 0.161552
Br4   Br    Br    0.496685 0.579798 0.773905 -0.440648
O27   O     O_3   0.427887 0.752942 0.549310 -0.572678
C59   C     C_3   0.436406 0.789988 0.495952 -0.308640
H31   H     H_    0.485437 0.784445 0.478232 0.168777
H32   H     H_    0.452451 0.859172 0.527637 0.165794
H33   H     H_    0.374162 0.753403 0.434820 0.192981
O28   O     O_3   0.754435 0.414767 0.732962 -0.557117
C60   C     C_3   0.723042 0.345182 0.749306 -0.236531
H34   H     H_    0.658996 0.293506 0.692701 0.191754
H35   H     H_    0.765306 0.316258 0.755435 0.168121
H36   H     H_    0.714634 0.364570 0.807666 0.148851
O29   O     O_3   0.612029 0.102157 0.839522 -0.592209
C61   C     C_3   0.562752 0.122488 0.783219 -0.304266
H37   H     H_    0.541670 0.165119 0.816354 0.172328
H38   H     H_    0.504083 0.061043 0.728611 0.186669
H39   H     H_    0.598230 0.152824 0.754739 0.151528
Br5   Br    Br    0.916503 0.465561 0.249520 -0.504654

loop_
_geom_bond_atom_site_label_1
_geom_bond_atom_site_label_2
_ccdc_geom_bond_type
C1    O1    A    
C17   H7    S    
C59   H31   S    
Cu6   O10   S    
Cu2   O23   S    
C41   C42   S    
C54   C55   D    
C47   Br4   S    
C19   C20   A    
Cu2   O12   S    
C35   O16   A    
C8    C56   S    
Cu4   O2    S    
O29   C61   S    
C13   H3    S    
C43   H16   S    
C22   C35   S    
C42   H13   S    
C18   C24   A    
C52   O27   S    
C36   C37   A    
C31   C49   S    
C12   O18   A    
C30   O7    A    
C35   O17   A    
C5    C6    A    
C53   Br2   S    
C7    H24   S    
C31   O10   A    
C26   H11   S    
C32   O11   A    
Cu2   O21   S    
Cu3   O3    S    
C20   O25   S    
C27   O24   A    
C44   C46   A    
C16   C17   S    
C18   C26   S    
C28   O3    A    
C25   H9    S    
C2    C3    A    
C9    C10   A    
C51   H19   S    
C58   H30   S    
C57   H27   S    
C60   H36   S    
Cu1   O20   S    
C45   C53   D    
Cu3   Cu4   S    
C21   C22   A    
C36   C41   A    
Cu5   Cu6   S    
C14   C30   S    
C61   H39   S    
O25   C57   S    
C58   H29   S    
Cu4   O6    S    
C38   C39   A    
C33   C40   S    
C51   C52   S    
C7    C8    S    
C24   C25   S    
C61   H38   S    
C11   H2    S    
C10   C11   A    
C8    Br1   S    
C39   C40   A    
C16   H5    S    
C18   C19   A    
C59   H33   S    
C25   C26   S    
C7    H23   S    
C23   O20   A    
C45   H1    S    
C5    C32   S    
Cu1   O1    S    
C52   H21   S    
C19   C23   S    
C37   C38   A    
C47   C48   A    
C28   C53   S    
C55   O28   S    
C23   O21   A    
C50   C51   S    
C10   C34   S    
C25   H10   S    
Cu3   O5    S    
C51   H20   S    
C4    O29   S    
C9    C17   S    
C48   C49   A    
C45   C54   S    
O27   C59   S    
C33   O15   A    
Cu5   O14   S    
C16   H4    S    
C42   C43   S    
C3    C4    A    
C29   O5    A    
C58   H28   S    
C57   H25   S    
C38   H12   S    
C44   C50   A    
Cu1   O18   S    
C46   C47   A    
C40   C41   A    
C17   H6    S    
C59   H32   S    
Cu5   O11   S    
C26   Br3   S    
C6    C56   A    
C61   H37   S    
C60   H35   S    
C60   H34   S    
C1    O12   A    
Cu6   O17   S    
O26   C58   S    
Cu5   O9    S    
C6    C7    S    
Cu4   O4    S    
C43   H15   S    
C33   O14   A    
C29   C46   S    
C42   H14   S    
C32   O13   A    
C21   H8    S    
C8    Br5   S    
Cu2   O19   S    
C34   O22   A    
Cu6   O15   S    
Cu5   O16   S    
C9    C15   A    
C30   O8    A    
C2    C56   A    
C48   H18   S    
C11   C13   A    
C44   C52   S    
Cu1   Cu2   S    
C12   O19   A    
C27   C37   S    
C39   O26   S    
C1    C2    S    
O28   C60   S    
C22   C24   A    
C27   O2    A    
C12   C55   S    
C31   O9    A    
C54   H17   S    
Cu6   O13   S    
C4    C5    A    
Cu1   O22   S    
C20   C21   A    
C49   C50   A    
C3    H22   S    
C34   O23   A    
C14   C15   A    
C36   C43   S    
C28   O4    A    
Cu3   O24   S    
Cu3   O7    S    
C13   C14   A    
C29   O6    A    
C15   C16   S    
C57   H26   S    
Cu4   O8    S    
