data_mof_unit_56090.cif
_audit_creation_date              2013-03-05T16:49:11-0500
_audit_creation_method            fapswitch 2.2
_symmetry_space_group_name_H-M    P1
_symmetry_Int_Tables_number       1
_space_group_crystal_system       triclinic
_cell_length_a                    17.662146
_cell_length_b                    8.921007
_cell_length_c                    8.207139
_cell_angle_alpha                 89.999358
_cell_angle_beta                  89.914782
_cell_angle_gamma                 90.001393
_cell_volume                      1293.14926994

loop_
_atom_site_label
_atom_site_type_symbol
_atom_site_description
_atom_site_fract_x
_atom_site_fract_y
_atom_site_fract_z
_atom_type_partial_charge
O1    O     O_R   0.500000 0.285350 0.636850 -0.615583
O2    O     O_R   0.500000 0.714650 0.363150 -0.611516
O3    O     O_R   0.500000 0.714650 0.636850 -0.611515
O4    O     O_R   0.500000 0.285350 0.363150 -0.615591
C1    C     C_R   0.500000 0.218431 0.500000 0.927020
C2    C     C_R   0.500000 0.781569 0.499999 0.936207
O5    O     O_R   0.389120 0.500000 0.636930 -0.616934
O6    O     O_R   0.610880 0.500000 0.363070 -0.616960
O7    O     O_R   0.610880 0.500000 0.636930 -0.615432
O8    O     O_R   0.389120 0.500000 0.363070 -0.615421
C3    C     C_1   0.500000 0.065318 0.500001 -0.193326
C4    C     C_1   0.500000 0.934693 0.499999 -0.195397
C5    C     C_R   0.352830 0.495407 0.500292 0.897934
C6    C     C_R   0.647169 0.495416 0.499709 0.897941
Zn1   Zn    Zn3+2 0.500000 0.500000 0.682780 0.971944
Zn2   Zn    Zn3+2 0.500000 0.500000 0.317220 0.971935
C7    C     C_R   0.848210 0.433166 0.647170 0.182002
C8    C     C_R   0.151820 0.432655 0.352869 0.182168
C9    C     C_R   0.151560 0.430865 0.648599 0.183021
C10   C     C_R   0.848417 0.430493 0.351457 0.182910
C11   C     C_R   0.772834 0.484138 0.645938 0.133766
C12   C     C_R   0.227179 0.483748 0.354027 0.133866
C13   C     C_R   0.230989 0.434436 0.648311 0.131166
C14   C     C_R   0.768986 0.434120 0.351777 0.130984
C15   C     C_R   0.730536 0.473734 0.498647 -0.175216
C16   C     C_R   0.269461 0.473707 0.501363 -0.175233
C17   C     C_R   0.886408 0.417002 0.499416 0.035175
C18   C     C_R   0.113599 0.416875 0.500658 0.034911
C19   C     C_1   0.966439 0.403892 0.499843 -0.004562
C20   C     C_1   0.033567 0.403850 0.500248 -0.004662
N1    N     N_1   0.500000 0.500000 0.073640 -0.042565
N2    N     N_1   0.500000 0.500000 0.926360 -0.042568
C21   C     C_3   0.888297 0.398375 0.804483 -0.942044
H1    H     H_    0.847824 0.345042 0.889559 0.253668
H2    H     H_    0.934428 0.315214 0.788074 0.250578
H3    H     H_    0.912806 0.502904 0.855038 0.250828
C22   C     C_3   0.111726 0.397568 0.195620 -0.942240
H4    H     H_    0.152199 0.344471 0.110374 0.253717
H5    H     H_    0.065731 0.314140 0.212233 0.250599
H6    H     H_    0.087034 0.501933 0.145094 0.250764
C23   C     C_3   0.107293 0.448569 0.804503 -0.940163
H7    H     H_    0.140844 0.514678 0.892378 0.252831
H8    H     H_    0.055085 0.515480 0.785641 0.250074
H9    H     H_    0.091830 0.336687 0.853322 0.254088
C24   C     C_3   0.892619 0.447476 0.195396 -0.940151
H10   H     H_    0.945259 0.513117 0.213906 0.250172
H11   H     H_    0.907327 0.335310 0.146262 0.254001
H12   H     H_    0.859284 0.514559 0.107965 0.252846
C25   C     C_3   0.739619 0.551929 0.799287 -0.848999
H13   H     H_    0.783530 0.586576 0.887597 0.234190
H14   H     H_    0.708376 0.656424 0.769628 0.244205
H15   H     H_    0.701600 0.469584 0.858777 0.257607
C26   C     C_3   0.260375 0.551356 0.200581 -0.849214
H16   H     H_    0.291630 0.655884 0.230055 0.244307
H17   H     H_    0.298379 0.468921 0.141188 0.257652
H18   H     H_    0.216442 0.585949 0.112319 0.234205
C27   C     C_3   0.272695 0.388869 0.801660 -0.844527
H19   H     H_    0.235556 0.332627 0.891491 0.232998
H20   H     H_    0.316800 0.304317 0.772346 0.248243
H21   H     H_    0.298116 0.489165 0.859545 0.256211
C28   C     C_3   0.727247 0.388479 0.198473 -0.844170
H22   H     H_    0.764346 0.332179 0.108611 0.232955
H23   H     H_    0.683123 0.303993 0.227889 0.248183
H24   H     H_    0.701848 0.488755 0.140511 0.256117

loop_
_geom_bond_atom_site_label_1
_geom_bond_atom_site_label_2
_geom_bond_distance
_ccdc_geom_bond_type
O4    Zn2   1.951640 S    
C28   H24   1.108347 S    
C9    C13   1.403244 A    
O7    C6    1.295624 A    
C19   C20   1.185631 T    
O1    Zn1   1.951648 S    
C10   C17   1.393464 A    
C13   C16   1.427047 A    
C17   C19   1.418349 S    
O2    Zn2   1.951647 S    
C23   H7    1.104701 S    
N1    N2    1.208747 T    
C3    C4    1.165307 T    
C25   H15   1.108109 S    
O3    C2    1.271945 A    
C18   C20   1.418323 S    
C21   H1    1.106068 S    
O7    Zn1   1.993654 S    
O3    Zn1   1.951639 S    
Zn1   N2    1.999095 S    
C22   H5    1.109992 S    
O8    Zn2   1.993655 S    
C26   H16   1.110489 S    
Zn2   N1    1.999095 S    
C9    C18   1.393467 A    
C23   H8    1.109509 S    
C9    C23   1.506801 S    
C27   H19   1.106384 S    
C14   C28   1.514939 S    
C7    C21   1.505736 S    
O1    C1    1.271951 A    
C11   C25   1.513835 S    
C21   H2    1.109988 S    
C22   H4    1.106072 S    
C1    C3    1.365915 S    
C12   C26   1.513689 S    
C26   H17   1.108171 S    
C6    C15   1.485121 S    
C2    C4    1.366025 S    
C28   H22   1.106390 S    
C10   C14   1.403300 A    
C23   H9    1.109497 S    
C5    C16   1.485163 S    
C26   H18   1.106235 S    
C27   H20   1.110459 S    
C22   H6    1.108843 S    
C7    C17   1.394282 A    
C10   C24   1.506635 S    
O5    C5    1.293129 A    
C21   H3    1.108887 S    
C8    C18   1.394368 A    
C14   C15   1.427098 A    
O6    Zn2   1.994753 S    
C25   H13   1.106343 S    
C12   C16   1.424989 A    
C24   H11   1.109538 S    
C13   C27   1.514786 S    
C11   C15   1.425020 A    
C27   H21   1.108359 S    
O6    C6    1.293127 A    
O5    Zn1   1.994755 S    
C24   H12   1.104959 S    
C8    C12   1.406923 A    
C8    C22   1.505900 S    
C28   H23   1.110452 S    
C7    C11   1.406892 A    
O2    C2    1.271950 A    
O4    C1    1.271946 A    
C25   H14   1.110481 S    
O8    C5    1.295642 A    
C24   H10   1.109408 S    
