data_mof_unit_41302.cif
_audit_creation_date              2013-03-05T16:11:49-0500
_audit_creation_method            fapswitch 2.2
_symmetry_space_group_name_H-M    P1
_symmetry_Int_Tables_number       1
_space_group_crystal_system       triclinic
_cell_length_a                    10.717127
_cell_length_b                    9.482152
_cell_length_c                    23.507744
_cell_angle_alpha                 89.907715
_cell_angle_beta                  87.360851
_cell_angle_gamma                 89.913586
_cell_volume                      2386.35114338

loop_
_atom_site_label
_atom_site_type_symbol
_atom_site_description
_atom_site_fract_x
_atom_site_fract_y
_atom_site_fract_z
_atom_type_partial_charge
O1    O     O_R   0.317570 0.620260 0.500030 -0.592746
O2    O     O_R   0.317570 0.379740 0.500030 -0.593274
C1    C     C_R   0.259830 0.499965 0.501897 0.786838
O3    O     O_R   0.499840 0.620290 0.417900 -0.594731
O4    O     O_R   0.499840 0.379710 0.417900 -0.592646
C2    C     C_R   0.500489 0.500086 0.391049 0.798699
Cu1   Cu    Cu3+1 0.499860 0.642410 0.500030 0.889142
Cu2   Cu    Cu3+1 0.499860 0.357590 0.500030 0.891447
O5    O     O_R   0.682190 0.620260 0.500010 -0.595326
O6    O     O_R   0.682190 0.379740 0.500010 -0.593800
O7    O     O_R   0.499920 0.620230 0.582140 -0.592133
O8    O     O_R   0.499920 0.379770 0.582140 -0.588010
C3    C     C_R   0.739101 0.499825 0.503337 0.763325
C4    C     C_R   0.500173 0.499890 0.609011 0.796992
C5    C     C_R   0.610083 0.506020 0.878419 0.526344
N1    N     N_R   0.499984 0.494608 0.851994 -0.458448
C6    C     C_R   0.388065 0.479528 0.881799 0.513712
C7    C     C_R   0.382716 0.475093 0.942284 -0.046851
C8    C     C_R   0.497317 0.489407 0.969964 -0.042305
C9    C     C_R   0.611183 0.504859 0.937787 0.003311
C10   C     C_R   0.269412 0.458318 0.976483 0.082329
C11   C     C_R   0.274518 0.457749 0.036065 -0.192780
C12   C     C_R   0.387262 0.473431 0.062982 -0.043368
C13   C     C_R   0.499018 0.488996 0.030070 -0.020900
C14   C     C_R   0.612897 0.504514 0.057356 -0.000096
C15   C     C_R   0.724718 0.519234 0.024583 -0.177977
C16   C     C_R   0.723844 0.519488 0.965463 -0.191921
C17   C     C_R   0.390725 0.474574 0.122625 0.519955
N2    N     N_R   0.501654 0.492269 0.148196 -0.470527
C18   C     C_R   0.611843 0.505851 0.117044 0.525129
O9    O     O_2   0.718206 0.519074 0.847064 -0.553259
O10   O     O_2   0.283689 0.470070 0.852309 -0.561210
H1    H     H_    0.188846 0.444255 0.061823 0.187715
O11   O     O_2   0.284155 0.459437 0.154922 -0.542025
O12   O     O_2   0.719720 0.521129 0.143804 -0.551176
H2    H     H_    0.813286 0.531138 0.044467 0.182427
H3    H     H_    0.811917 0.532019 0.941502 0.182903
C19   C     C_R   0.521234 0.372800 0.239182 -0.134891
H4    H     H_    0.536457 0.274917 0.216461 0.137125
C20   C     C_R   0.520569 0.373479 0.298330 -0.234024
H5    H     H_    0.535154 0.274906 0.320382 0.153443
C21   C     C_R   0.501901 0.499968 0.328434 -0.062351
C22   C     C_R   0.484414 0.625988 0.298266 -0.246503
H6    H     H_    0.469791 0.724377 0.321007 0.146115
C23   C     C_R   0.483597 0.626031 0.238620 0.132613
C24   C     C_R   0.502092 0.497584 0.209097 0.352467
C25   C     C_R   0.495603 0.627597 0.761618 0.221255
C26   C     C_R   0.495727 0.627219 0.701998 -0.216555
H7    H     H_    0.490600 0.726527 0.679381 0.145189
C27   C     C_R   0.501449 0.499607 0.671630 -0.081286
C28   C     C_R   0.508074 0.371748 0.701557 -0.229598
H8    H     H_    0.512934 0.271864 0.679314 0.150858
C29   C     C_R   0.508220 0.371320 0.760761 -0.156777
H9    H     H_    0.512879 0.272002 0.783384 0.137926
C30   C     C_R   0.501793 0.498274 0.790970 0.377099
C31   C     C_3   0.069164 0.613204 0.546521 -0.379056
C32   C     C_3   0.071173 0.353173 0.524268 -0.373112
H10   H     H_    0.111132 0.718186 0.536564 0.147082
H11   H     H_    0.103730 0.270148 0.493544 0.146338
H12   H     H_    0.095761 0.584867 0.590321 0.171613
H13   H     H_    0.110759 0.325425 0.565813 0.167131
C33   C     C_3   0.925592 0.625190 0.543018 0.040369
C34   C     C_3   0.926966 0.353283 0.527999 0.042036
H14   H     H_    0.906504 0.724068 0.519148 0.149934
H15   H     H_    0.896518 0.271082 0.497860 0.145960
H16   H     H_    0.105720 0.637490 0.429993 0.173323
H17   H     H_    0.116483 0.453297 0.412773 0.172302
H18   H     H_    0.894157 0.619094 0.425816 0.173037
H19   H     H_    0.903874 0.432001 0.417161 0.172441
C35   C     C_3   0.075274 0.530263 0.444064 -0.398135
C36   C     C_3   0.121617 0.499479 0.504159 0.087181
C37   C     C_3   0.876850 0.499341 0.506636 0.151463
C38   C     C_3   0.931696 0.520955 0.444727 -0.509231
C39   C     C_3   0.577157 0.082940 0.546587 -0.194399
C40   C     C_3   0.576780 0.916414 0.546747 -0.191664
H20   H     H_    0.541087 0.120209 0.589013 0.140256
H21   H     H_    0.539733 0.879746 0.589147 0.140623
H22   H     H_    0.674537 0.121879 0.542035 0.156081
H23   H     H_    0.674022 0.876267 0.542783 0.151996
H24   H     H_    0.331038 0.122517 0.552572 0.160057
H25   H     H_    0.330829 0.877374 0.552411 0.159416
C41   C     C_3   0.372642 0.083511 0.511284 -0.266866
C42   C     C_3   0.372607 0.916758 0.511187 -0.269103
C43   C     C_3   0.549835 0.084392 0.445001 0.186172
C44   C     C_3   0.550111 0.915694 0.445055 0.187454
N3    N     N_3   0.500250 0.143650 0.501250 -0.122071
N4    N     N_3   0.500250 0.856350 0.501250 -0.122337
H26   H     H_    0.484394 0.116807 0.411893 0.103432
H27   H     H_    0.485046 0.883447 0.411850 0.100161
H28   H     H_    0.310573 0.121256 0.477808 0.143389
H29   H     H_    0.310642 0.879543 0.477643 0.143196
C45   C     C_3   0.140740 0.438564 0.953002 -0.344486
C46   C     C_3   0.122030 0.286090 0.933226 -0.317431
C47   C     C_3   0.994555 0.267219 0.907904 -0.790847
H30   H     H_    0.918891 0.289204 0.940567 0.248001
H31   H     H_    0.984835 0.339334 0.871075 0.282641
H32   H     H_    0.984705 0.156878 0.893041 0.240134
H33   H     H_    0.195798 0.255182 0.900942 0.251077
H34   H     H_    0.128617 0.213671 0.970224 0.209379
H35   H     H_    0.066793 0.461524 0.986526 0.165331
H36   H     H_    0.123029 0.516837 0.919248 0.241117
C48   C     C_3   0.861000 0.647227 0.602406 -0.887749
H37   H     H_    0.884740 0.753784 0.618202 0.225276
H38   H     H_    0.757975 0.641761 0.601059 0.243158
H39   H     H_    0.892266 0.570748 0.634233 0.254909
C49   C     C_3   0.876129 0.305679 0.587527 -0.878357
H40   H     H_    0.777200 0.336694 0.595866 0.247708
H41   H     H_    0.881727 0.188917 0.590521 0.212727
H42   H     H_    0.932251 0.348238 0.621960 0.244418
C50   C     C_3   0.678177 0.147321 0.423493 -0.795255
H43   H     H_    0.702152 0.111521 0.379560 0.180708
H44   H     H_    0.680564 0.261083 0.416980 0.264746
H45   H     H_    0.754651 0.118497 0.451407 0.207832
C51   C     C_3   0.678720 0.852266 0.423891 -0.787681
H46   H     H_    0.704786 0.889999 0.380417 0.180845
H47   H     H_    0.754623 0.877510 0.452645 0.207662
H48   H     H_    0.679820 0.738900 0.416372 0.264511
C52   C     C_3   0.462283 0.763224 0.207677 -0.404490
C53   C     C_3   0.579364 0.855865 0.206956 -0.347623
C54   C     C_3   0.563385 0.986117 0.169808 -0.837112
H49   H     H_    0.553605 0.954710 0.124717 0.260436
H50   H     H_    0.478983 0.046143 0.184628 0.252927
H51   H     H_    0.646632 0.055066 0.172219 0.247740
H52   H     H_    0.597793 0.889868 0.251034 0.209077
H53   H     H_    0.661490 0.794949 0.189853 0.258468
H54   H     H_    0.436123 0.744026 0.163218 0.213081
H55   H     H_    0.382461 0.820234 0.229079 0.194932
C55   C     C_3   0.487954 0.764904 0.793604 -0.859204
H56   H     H_    0.482556 0.856549 0.764319 0.216728
H57   H     H_    0.403382 0.765701 0.822713 0.243211
H58   H     H_    0.572037 0.777800 0.818955 0.248121

loop_
_geom_bond_atom_site_label_1
_geom_bond_atom_site_label_2
_geom_bond_distance
_ccdc_geom_bond_type
C23   C52   1.511598 S    
C42   N4    1.490858 S    
C34   H15   1.113466 S    
C46   C47   1.526021 S    
C7    C10   1.434021 A    
C8    C9    1.413510 A    
C55   H56   1.110858 S    
C51   H46   1.106039 S    
Cu1   Cu2   2.700706 S    
C4    C27   1.472718 S    
C53   H52   1.112091 S    
Cu1   O7    1.941335 S    
C15   C16   1.390244 A    
C39   H20   1.110972 S    
C18   O12   1.349488 S    
C17   N2    1.367310 A    
C43   N3    1.511067 S    
O4    C2    1.303318 A    
O7    C4    1.303426 A    
C32   H11   1.113985 S    
C49   H40   1.108654 S    
C5    N1    1.363074 A    
C48   H39   1.103878 S    
C6    C7    1.420941 A    
C7    C8    1.422907 A    
O5    C3    1.297787 A    
C50   H43   1.106476 S    
C33   H14   1.115380 S    
C52   C53   1.532233 S    
C43   C44   1.599616 S    
Cu1   N4    2.028874 S    
N1    C6    1.368521 A    
C12   C13   1.403457 A    
H19   C38   1.113816 S    
C35   C36   1.546092 S    
C46   H34   1.112004 S    
C54   H51   1.110470 S    
C47   H31   1.110943 S    
C20   C21   1.402975 A    
C17   O11   1.349722 S    
C10   C11   1.404207 A    
C47   H30   1.110515 S    
O3    Cu1   1.942399 S    
H25   C42   1.112839 S    
C54   H50   1.110669 S    
C32   C34   1.543940 S    
C50   H44   1.089450 S    
C29   C30   1.398636 A    
C5    C9    1.396221 A    
C39   C40   1.579034 S    
C44   N4    1.510214 S    
C28   H8    1.082624 S    
C25   C55   1.504792 S    
C19   H4    1.080030 S    
C13   C14   1.412643 A    
H24   C41   1.112845 S    
C44   H27   1.113819 S    
C47   H32   1.110326 S    
C14   C15   1.401538 A    
C29   H9    1.083020 S    
C5    O9    1.350129 S    
C32   C36   1.554652 S    
C31   H12   1.113339 S    
O1    C1    1.298231 A    
C52   H55   1.112211 S    
C1    C36   1.479767 S    
C22   H6    1.083590 S    
N2    C18   1.366714 A    
C22   C23   1.402582 A    
C25   C26   1.401470 A    
Cu2   O8    1.942009 S    
C31   C36   1.555835 S    
C35   C38   1.540768 S    
C27   C28   1.404076 A    
C33   C37   1.573113 S    
C12   C17   1.404342 A    
C39   N3    1.491331 S    
C34   C49   1.545111 S    
C48   H38   1.107337 S    
C40   H21   1.111223 S    
C50   H45   1.106917 S    
C45   H36   1.108179 S    
C53   H53   1.112017 S    
C40   N4    1.491691 S    
C20   H5    1.082702 S    
C3    C37   1.481869 S    
O8    C4    1.303396 A    
C2    C21   1.471311 S    
C31   C33   1.548659 S    
O3    C2    1.303643 A    
C21   C22   1.405272 A    
C55   H58   1.110028 S    
C54   H49   1.111113 S    
C45   H35   1.113113 S    
C25   C30   1.409061 A    
C15   H2    1.083302 S    
C14   C18   1.402742 A    
Cu1   O5    1.964973 S    
C11   H1    1.083953 S    
C26   H7    1.083201 S    
O1    Cu1   1.965196 S    
O2    Cu2   1.964566 S    
C43   H26   1.113966 S    
C37   C38   1.557599 S    
O6    C3    1.296712 A    
C55   H57   1.110264 S    
O4    Cu2   1.941727 S    
C51   H47   1.107995 S    
C53   C54   1.525445 S    
C32   H13   1.113558 S    
C9    C16   1.404806 A    
C42   H29   1.112271 S    
C41   H28   1.111967 S    
N2    C24   1.432853 S    
H17   C35   1.113366 S    
O2    C1    1.296132 A    
H18   C38   1.113311 S    
N1    C30   1.434134 S    
C41   N3    1.491085 S    
C19   C20   1.390142 A    
H16   C35   1.113385 S    
C49   H41   1.110975 S    
C16   H3    1.083269 S    
C26   C27   1.405743 A    
C45   C46   1.535658 S    
C31   H10   1.113070 S    
C8    C13   1.413893 A    
Cu2   N3    2.028769 S    
C48   H37   1.110930 S    
C43   C50   1.562389 S    
C19   C24   1.397216 A    
C51   H48   1.089631 S    
C44   C51   1.563438 S    
C23   C24   1.411970 A    
C34   C37   1.574514 S    
Cu2   O6    1.965603 S    
C41   C42   1.581179 S    
C39   H22   1.108017 S    
C6    O10   1.346047 S    
C11   C12   1.397756 A    
C52   H54   1.109866 S    
C28   C29   1.391818 A    
C40   H23   1.108900 S    
C46   H33   1.109791 S    
C10   C45   1.520728 S    
C33   C48   1.543826 S    
C49   H42   1.107441 S    
