data_mof_unit_22592.cif
_audit_creation_date              2012-12-11T15:57:52-0500
_audit_creation_method            fapswitch 2.2
_symmetry_space_group_name_H-M    P1
_symmetry_Int_Tables_number       1
_space_group_crystal_system       triclinic
_cell_length_a                    10.727776
_cell_length_b                    10.761488
_cell_length_c                    17.052605
_cell_angle_alpha                 99.52806
_cell_angle_beta                  99.840502
_cell_angle_gamma                 61.480324
_cell_volume                      1696.29968403

loop_
_atom_site_label
_atom_site_type_symbol
_atom_type_description
_atom_site_fract_x
_atom_site_fract_y
_atom_site_fract_z
_atom_type_partial_charge
C1    C     C_R   0.355111 0.774913 0.401341 0.581343
C2    C     C_2   0.333883 0.352178 0.833319 -0.160894
C3    C     C_2   0.454516 0.276273 0.799656 -0.113955
C4    C     C_R   0.369506 0.346641 0.357168 0.558331
C5    C     C_2   0.464783 0.293443 0.719408 0.336140
C6    C     C_1   0.819540 0.341496 0.708445 0.035124
C7    C     C_1   0.846422 0.313000 0.776064 0.033972
C8    C     C_1   0.358145 0.765143 0.713625 -0.025232
C9    C     C_1   0.325118 0.812224 0.780309 -0.028587
C10   C     C_R   0.896868 0.306035 0.087614 0.561889
C11   C     C_R   0.318957 0.299175 0.119841 0.570212
C12   C     C_2   0.838240 0.322230 0.161326 -0.071424
C13   C     C_R   0.293984 0.891950 0.084080 0.580156
C14   C     C_R   0.886601 0.296643 0.858340 0.548604
C15   C     C_R   0.308011 0.295392 0.895817 0.559984
C16   C     C_R   0.776619 0.376852 0.405198 0.623773
C17   C     C_R   0.280032 0.881506 0.857031 0.546531
C18   C     C_R   0.381114 0.715016 0.631594 0.550338
C19   C     C_R   0.372721 0.349242 0.584857 0.566810
C20   C     C_R   0.773867 0.380780 0.629519 0.541779
C21   C     C_1   0.342788 0.336392 0.273854 0.010306
C22   C     C_1   0.331707 0.325977 0.203053 0.019685
C23   C     C_2   0.876404 0.207604 0.200449 0.218529
C24   C     C_2   0.859358 0.323467 0.337448 0.209250
C25   C     C_2   0.836719 0.230021 0.280772 0.304737
C26   C     C_2   0.330862 0.849965 0.332307 -0.003156
C27   C     C_2   0.343927 0.828280 0.159008 0.348153
C28   C     C_2   0.415113 0.878412 0.216928 -0.145327
C29   C     C_2   0.439528 0.844273 0.299587 0.227589
C30   C     C_2   0.350744 0.336434 0.663503 -0.062643
Cr1   Cr    Cr6+3 0.608020 0.610770 0.522990 1.100361
Cr2   Cr    Cr6+3 0.289390 0.599570 0.488050 1.078361
Cr3   Cr    Cr6+3 0.602610 0.289690 0.489020 1.134564
Cr4   Cr    Cr6+3 0.053780 0.052210 0.965970 1.097645
Cr5   Cr    Cr6+3 0.060060 0.372530 0.992430 1.066304
Cr6   Cr    Cr6+3 0.372600 0.061970 0.991430 1.050092
F1    F     F_    0.598776 0.250261 0.701158 -0.624472
F2    F     F_    0.763266 0.161996 0.292904 -0.613314
F3    F     F_    0.299261 0.735667 0.173095 -0.637302
H1    H     H_    0.246437 0.445362 0.807833 0.105060
H2    H     H_    0.243084 0.370682 0.676880 0.039029
H3    H     H_    0.778632 0.429215 0.189408 0.105466
H4    H     H_    0.453431 0.949575 0.204689 0.112333
H5    H     H_    0.224510 0.891413 0.300108 0.112871
H6    H     H_    0.545444 0.189169 0.828160 0.183189
H7    H     H_    0.971105 0.002913 0.205305 0.361554
H8    H     H_    0.017605 0.319036 0.293167 0.300765
H9    H     H_    0.637099 0.805192 0.306845 0.343297
O1    O     O_R   0.749250 0.499990 0.439200 -0.455431
O2    O     O_R   0.411120 0.181190 0.091480 -0.500158
O3    O     O_R   0.364220 0.944920 0.062310 -0.546066
O4    O     O_R   0.477870 0.725740 0.440280 -0.429882
O5    O     O_R   0.158740 0.906940 0.874970 -0.502541
O6    O     O_R   0.930920 0.176940 0.885610 -0.489412
O7    O     O_R   0.910730 0.394510 0.895320 -0.518510
O8    O     O_R   0.185840 0.361180 0.920280 -0.490506
O9    O     O_R   0.399210 0.173040 0.915160 -0.507975
O10   O     O_R   0.353170 0.937370 0.898860 -0.493799
O11   O     O_3   0.162150 0.162240 0.983280 -0.284583
O12   O     O_R   0.299400 0.468710 0.556310 -0.520834
O13   O     O_R   0.260770 0.742210 0.412610 -0.503793
O14   O     O_R   0.297990 0.466320 0.394220 -0.483977
O15   O     O_R   0.487720 0.253870 0.385870 -0.465264
O16   O     O_R   0.721940 0.304340 0.422320 -0.462601
O17   O     O_R   0.750770 0.502570 0.614050 -0.527822
O18   O     O_R   0.479280 0.728140 0.602370 -0.488993
O19   O     O_R   0.262290 0.744790 0.587460 -0.499955
O20   O     O_3   0.950384 0.070167 0.165776 -0.638209
O21   O     O_3   0.944883 0.383779 0.329567 -0.716918
O22   O     O_3   0.572569 0.805070 0.342099 -0.640644
O23   O     O_R   0.489240 0.256450 0.560730 -0.434596
O24   O     O_R   0.723350 0.306730 0.584410 -0.454886
O25   O     O_3   0.500010 0.500010 0.500020 -0.314408
O26   O     O_R   0.170650 0.915100 0.051290 -0.435665
O27   O     O_R   0.941960 0.184500 0.049060 -0.432418
O28   O     O_R   0.922640 0.402670 0.071640 -0.512736
O29   O     O_R   0.196880 0.368740 0.083740 -0.485240

loop_
_geom_bond_atom_site_label_1
_geom_bond_atom_site_label_2
_ccdc_geom_bond_type
Cr1   O18   S    
C5    F1    S    
C19   O23   A    
Cr1   O4    S    
Cr6   O11   S    
C26   H5    S    
C12   C23   D    
C28   C29   S    
Cr2   O13   S    
C5    C30   D    
Cr6   O10   S    
Cr1   O25   S    
C4    O14   A    
Cr5   O11   S    
H8    O21   S    
C12   H3    S    
C11   O29   A    
Cr3   O24   S    
C13   O3    A    
C10   O28   A    
C7    C14   S    
C27   F3    S    
C8    C9    T    
C30   H2    S    
C26   C29   D    
C17   O10   A    
C14   O7    A    
C16   C24   S    
C21   C22   T    
C15   O9    A    
Cr1   O1    S    
C24   O21   S    
Cr5   O28   S    
Cr5   O7    S    
C20   O17   A    
C24   C25   D    
Cr6   O9    S    
Cr2   O25   S    
C18   O19   A    
Cr5   O29   S    
C8    C18   S    
C23   O20   S    
H7    O20   S    
C25   F2    S    
C10   O27   A    
C4    O15   A    
Cr3   O15   S    
C16   O1    A    
C2    C15   S    
Cr6   O3    S    
C10   C12   S    
Cr4   O26   S    
Cr2   O19   S    
Cr3   O25   S    
C14   O6    A    
Cr4   O6    S    
C1    C26   S    
Cr2   O12   S    
C17   O5    A    
Cr6   O2    S    
C29   O22   S    
C9    C17   S    
Cr1   O17   S    
C11   C22   S    
Cr5   O8    S    
C20   O24   A    
H9    O22   S    
C3    C5    S    
C1    O13   A    
C6    C7    T    
C19   O12   A    
C18   O18   A    
C6    C20   S    
Cr4   O27   S    
C28   H4    S    
C15   O8    A    
C2    C3    D    
Cr2   O14   S    
C11   O2    A    
C4    C21   S    
Cr4   O11   S    
Cr3   O16   S    
C3    H6    S    
C23   C25   S    
C1    O4    A    
Cr3   O23   S    
C2    H1    S    
C13   O26   A    
Cr4   O5    S    
C27   C28   D    
C13   C27   S    
C16   O16   A    
C19   C30   S    
