data_mof_unit_41929.cif
_audit_creation_date              2012-12-10T17:32:58-0500
_audit_creation_method            fapswitch 2.2
_symmetry_space_group_name_H-M    P1
_symmetry_Int_Tables_number       1
_space_group_crystal_system       triclinic
_cell_length_a                    12.41414
_cell_length_b                    13.350134
_cell_length_c                    14.289089
_cell_angle_alpha                 93.920096
_cell_angle_beta                  107.829216
_cell_angle_gamma                 117.47125
_cell_volume                      1937.63173646

loop_
_atom_site_label
_atom_site_type_symbol
_atom_type_description
_atom_site_fract_x
_atom_site_fract_y
_atom_site_fract_z
_atom_type_partial_charge
C1    C     C_R   0.652297 0.714112 0.510943 0.766618
C2    C     C_R   0.875803 0.539226 0.924935 0.089382
C3    C     C_R   0.827306 0.556692 0.998665 0.166888
C4    C     C_R   0.992531 0.532938 0.954829 0.063479
C5    C     C_R   0.050614 0.530882 0.056711 0.069715
C6    C     C_R   0.000328 0.550369 0.128369 -0.188483
C7    C     C_R   0.891642 0.564180 0.099724 -0.219447
C8    C     C_R   0.054247 0.530587 0.886745 -0.217056
C9    C     C_R   0.164243 0.518682 0.915689 -0.221485
C10   C     C_R   0.216013 0.507349 0.012811 0.162253
C11   C     C_R   0.158858 0.511901 0.083888 0.078826
C12   C     C_R   0.619244 0.518100 0.686799 0.785564
C13   C     C_R   0.325277 0.492231 0.039944 -0.188571
C14   C     C_R   0.379090 0.482009 0.137305 -0.193811
C15   C     C_R   0.211120 0.495690 0.179599 -0.212168
C16   C     C_R   0.130259 0.967656 0.357562 -0.182289
C17   C     C_R   0.250945 0.162290 0.465398 -0.044321
C18   C     C_R   0.749552 0.919363 0.596280 -0.187338
C19   C     C_R   0.851409 0.034056 0.627356 -0.131766
C20   C     C_R   0.950633 0.068315 0.589912 -0.158741
C21   C     C_R   0.946225 0.988997 0.515355 0.068134
C22   C     C_R   0.835974 0.874297 0.477682 0.085485
C23   C     C_R   0.345805 0.285576 0.485547 0.823844
C24   C     C_R   0.046695 0.019804 0.476210 0.069128
C25   C     C_R   0.032322 0.938060 0.397308 0.167471
C26   C     C_R   0.918358 0.829315 0.356127 -0.232998
C27   C     C_R   0.820350 0.798828 0.394029 -0.190898
C28   C     C_R   0.160098 0.130410 0.511400 -0.240427
C29   C     C_R   0.238823 0.079854 0.390898 -0.175315
C30   C     C_R   0.743354 0.837913 0.524423 -0.095652
C31   C     C_R   0.259108 0.696007 0.655268 -0.297307
C32   C     C_R   0.653617 0.351449 0.355129 0.008323
C33   C     C_R   0.731759 0.335215 0.310258 -0.079615
C34   C     C_R   0.382366 0.484115 0.313480 0.826956
C35   C     C_R   0.868416 0.399435 0.361449 -0.229208
C36   C     C_R   0.927945 0.474071 0.459316 -0.010675
C37   C     C_R   0.844539 0.497852 0.494667 0.295470
C38   C     C_R   0.068094 0.533533 0.518865 -0.069228
C39   C     C_R   0.122770 0.630106 0.600864 0.165826
C40   C     C_R   0.040640 0.658950 0.629274 -0.281008
C41   C     C_R   0.904647 0.592271 0.579402 -0.190434
C42   C     C_R   0.155790 0.498327 0.503993 0.107659
C43   C     C_R   0.341621 0.664716 0.630610 0.041016
C44   C     C_R   0.689575 0.532484 0.794632 -0.049239
C45   C     C_R   0.322435 0.484480 0.207764 -0.056400
C46   C     C_R   0.713958 0.565586 0.970330 -0.190496
C47   C     C_R   0.645954 0.554410 0.868918 -0.191014
C48   C     C_R   0.803011 0.524461 0.823009 -0.254110
Cu1   Cu    Cu3+1 0.416420 0.526630 0.522910 0.964600
Cu2   Cu    Cu3+1 0.583580 0.473370 0.477090 0.930039
H1    H     H_    0.370098 0.489824 0.986197 0.132615
H2    H     H_    0.903967 0.768004 0.293232 0.137612
H3    H     H_    0.120001 0.905553 0.297656 0.141432
H4    H     H_    0.178723 0.195986 0.572027 0.156173
H5    H     H_    0.856241 0.096030 0.683836 0.149898
H6    H     H_    0.730995 0.715996 0.355274 0.166076
H7    H     H_    0.446797 0.717170 0.671603 0.128937
H8    H     H_    0.165990 0.490361 0.233774 0.181438
H9    H     H_    0.081784 0.732370 0.692670 0.157633
H10   H     H_    0.301859 0.771770 0.716762 0.146306
H11   H     H_    0.547928 0.304784 0.316201 0.166215
H12   H     H_    0.927185 0.395356 0.321109 0.195386
H13   H     H_    0.850298 0.620375 0.607686 0.202193
H14   H     H_    0.465615 0.473724 0.157715 0.157507
H15   H     H_    0.677312 0.580206 0.026576 0.129945
H16   H     H_    0.558455 0.561159 0.848600 0.151649
H17   H     H_    0.830555 0.502872 0.763599 0.158034
H18   H     H_    0.044862 0.559006 0.208293 0.140804
H19   H     H_    0.022591 0.541494 0.811025 0.153264
N1    N     N_R   0.290690 0.566960 0.557640 -0.216986
N2    N     N_R   0.709100 0.433710 0.442970 -0.217074
O1    O     O_R   0.545970 0.684450 0.528810 -0.583469
O2    O     O_R   0.687130 0.639470 0.490120 -0.600417
O3    O     O_R   0.519670 0.535100 0.660030 -0.589004
O4    O     O_R   0.660830 0.490120 0.621340 -0.599245
O5    O     O_R   0.312870 0.360530 0.509880 -0.563433
O6    O     O_R   0.454030 0.315550 0.471190 -0.585900
O7    O     O_R   0.339170 0.509880 0.378660 -0.547195
O8    O     O_R   0.480330 0.464900 0.339970 -0.602570
H20   H     H_    0.856481 0.578970 0.157027 0.135742
H21   H     H_    0.309225 0.103802 0.354766 0.158854
H22   H     H_    0.678658 0.893274 0.632041 0.150324
H23   H     H_    0.028042 0.157942 0.620442 0.160620
C49   C     C_2   0.098363 0.377466 0.446757 0.863918
O9    O     O_2   0.112147 0.357480 0.367866 -0.593167
O10   O     O_R   0.017297 0.285599 0.478994 -0.786330
H24   H     H_    0.974767 0.207257 0.429953 0.340045
C50   C     C_2   0.671661 0.255103 0.208421 0.841380
O11   O     O_2   0.552280 0.199976 0.163485 -0.612950
O12   O     O_R   0.751491 0.242471 0.163289 -0.750472
H25   H     H_    0.699094 0.185921 0.093801 0.338755
H26   H     H_    0.208547 0.517561 0.861237 0.148281

loop_
_geom_bond_atom_site_label_1
_geom_bond_atom_site_label_2
_ccdc_geom_bond_type
C12   O3    A    
C17   C29   A    
C35   C36   A    
C23   O5    A    
C4    C8    A    
Cu2   O8    S    
C8    H19   S    
C17   C23   S    
C31   C43   A    
C36   C37   A    
C33   C50   S    
C49   O10   S    
C32   H11   S    
C38   C42   A    
C3    C7    A    
C38   C39   A    
C42   N1    A    
Cu1   O7    S    
C18   C19   A    
C16   H3    S    
C18   H22   S    
C13   H1    S    
C11   C15   A    
C19   C20   A    
C8    C9    A    
Cu1   O1    S    
C18   C30   A    
C14   C45   A    
C9    C10   A    
C47   H16   S    
C44   C47   A    
C6    H18   S    
C40   H9    S    
C21   C22   A    
C9    H26   S    
C32   N2    A    
C1    O1    A    
C42   C49   S    
C24   C25   A    
C46   H15   S    
Cu2   O2    S    
C39   C40   A    
C28   H4    S    
C27   H6    S    
C2    C48   A    
C16   C29   A    
C23   O6    A    
C31   H10   S    
C2    C4    A    
Cu2   N2    S    
C29   H21   S    
C26   H2    S    
C34   O8    A    
C14   H14   S    
C20   C21   A    
C26   C27   A    
Cu1   O5    S    
C34   C45   S    
C49   O9    D    
C40   C41   A    
C50   O12   S    
C43   N1    A    
C22   C27   A    
C37   N2    A    
C15   H8    S    
C12   O4    A    
C41   H13   S    
Cu2   O6    S    
C19   H5    S    
C16   C25   A    
C46   C47   A    
C22   C30   A    
O10   H24   S    
C17   C28   A    
C24   C28   A    
C4    C5    A    
C10   C13   A    
C20   H23   S    
C5    C11   A    
C6    C7    A    
C3    C46   A    
Cu1   N1    S    
C1    O2    A    
C32   C33   A    
C36   C38   A    
C2    C3    A    
C25   C26   A    
C12   C44   S    
Cu2   O4    S    
C34   O7    A    
O12   H25   S    
C5    C6    A    
C1    C30   S    
C33   C35   A    
C31   C39   A    
C35   H12   S    
C48   H17   S    
C37   C41   A    
C10   C11   A    
C43   H7    S    
C50   O11   D    
Cu1   Cu2   S    
C21   C24   A    
C15   C45   A    
Cu1   O3    S    
C13   C14   A    
C44   C48   A    
C7    H20   S    
