data_mof_unit_62214.cif
_audit_creation_date              2012-12-10T20:03:49-0500
_audit_creation_method            fapswitch 2.2
_symmetry_space_group_name_H-M    P1
_symmetry_Int_Tables_number       1
_space_group_crystal_system       triclinic
_cell_length_a                    22.500604
_cell_length_b                    25.876039
_cell_length_c                    22.50128
_cell_angle_alpha                 90.010515
_cell_angle_beta                  90.037165
_cell_angle_gamma                 90.002904
_cell_volume                      13100.8386554

loop_
_atom_site_label
_atom_site_type_symbol
_atom_type_description
_atom_site_fract_x
_atom_site_fract_y
_atom_site_fract_z
_atom_type_partial_charge
C1    C     C_R   0.498993 0.890197 0.748994 0.974664
C2    C     C_R   0.001019 0.890206 0.748992 0.975255
C3    C     C_1   0.723354 0.250008 0.750008 -0.108852
C4    C     C_1   0.223354 0.749981 0.250005 -0.108740
C5    C     C_1   0.223355 0.750019 0.749995 -0.118385
C6    C     C_1   0.223355 0.249982 0.749994 -0.118280
C7    C     C_1   0.223358 0.250000 0.250020 -0.123211
C8    C     C_1   0.776649 0.750006 0.749992 -0.108661
C9    C     C_1   0.776648 0.749993 0.249990 -0.108574
C10   C     C_1   0.776649 0.250011 0.249997 -0.107413
C11   C     C_1   0.776649 0.249993 0.749991 -0.108390
C12   C     C_1   0.276648 0.749995 0.249995 -0.113878
C13   C     C_R   0.001012 0.109794 0.748988 0.975215
C14   C     C_1   0.276648 0.749999 0.749983 -0.118191
C15   C     C_1   0.276649 0.249999 0.749984 -0.118317
C16   C     C_1   0.276652 0.249976 0.250011 -0.121818
C17   C     C_R   0.414276 0.554479 0.832858 0.162723
C18   C     C_R   0.417166 0.554460 0.164220 0.162773
C19   C     C_R   0.417290 0.445518 0.164096 0.160103
C20   C     C_R   0.414290 0.445540 0.832873 0.162843
C21   C     C_R   0.415672 0.054479 0.334279 0.162570
C22   C     C_R   0.416060 0.054455 0.665234 0.162530
C23   C     C_R   0.416052 0.945513 0.665240 0.162522
C24   C     C_R   0.001019 0.109802 0.251012 0.977770
C25   C     C_R   0.415681 0.945538 0.334287 0.162486
C26   C     C_R   0.103328 0.544089 0.298429 0.254687
C27   C     C_R   0.089776 0.554473 0.828471 0.162797
C28   C     C_R   0.089776 0.445556 0.828469 0.162596
C29   C     C_R   0.053638 0.456103 0.350829 0.261204
C30   C     C_R   0.084313 0.054463 0.665697 0.162432
C31   C     C_R   0.084469 0.054488 0.334261 0.162922
C32   C     C_R   0.084485 0.945545 0.334244 0.162883
C33   C     C_R   0.084331 0.945521 0.665713 0.162513
C34   C     C_R   0.375938 0.526623 0.869197 -0.167645
C35   C     C_R   0.000979 0.390199 0.751002 0.973546
C36   C     C_R   0.380958 0.526594 0.125714 -0.158128
C37   C     C_R   0.381032 0.473374 0.125642 -0.164407
C38   C     C_R   0.375945 0.473403 0.869204 -0.167740
C39   C     C_R   0.378319 0.026622 0.371628 -0.166622
C40   C     C_R   0.378987 0.026587 0.627557 -0.166599
C41   C     C_R   0.378984 0.973367 0.627560 -0.166587
C42   C     C_R   0.378323 0.973402 0.371632 -0.166694
C43   C     C_R   0.131049 0.520761 0.347116 -0.191863
C44   C     C_R   0.130916 0.526634 0.861674 -0.162940
C45   C     C_R   0.130917 0.473408 0.861672 -0.163800
C46   C     C_R   0.996998 0.390286 0.253178 0.899049
C47   C     C_R   0.103865 0.479345 0.375793 -0.194720
C48   C     C_R   0.121666 0.026598 0.628347 -0.166532
C49   C     C_R   0.121925 0.026634 0.371555 -0.167062
C50   C     C_R   0.121934 0.973414 0.371545 -0.167030
C51   C     C_R   0.121675 0.973379 0.628354 -0.166472
C52   C     C_R   0.044707 0.972146 0.705319 -0.034417
C53   C     C_R   0.044784 0.972158 0.294664 -0.034468
C54   C     C_R   0.044781 0.027860 0.294667 -0.034543
C55   C     C_R   0.044699 0.027846 0.705311 -0.034301
C56   C     C_R   0.030825 0.475025 0.296225 -0.065199
C57   C     C_R   0.003058 0.609720 0.246976 0.904989
C58   C     C_R   0.047479 0.472161 0.791683 -0.033636
C59   C     C_R   0.047481 0.527854 0.791682 -0.033779
C60   C     C_R   0.047660 0.525045 0.278497 -0.063982
C61   C     C_R   0.455305 0.972154 0.294682 -0.034285
C62   C     C_R   0.455494 0.972141 0.705078 -0.034346
C63   C     C_R   0.455498 0.027843 0.705075 -0.034336
C64   C     C_R   0.455299 0.027855 0.294676 -0.034390
C65   C     C_R   0.454591 0.472155 0.793956 -0.034076
C66   C     C_R   0.456124 0.472144 0.204524 -0.033735
C67   C     C_R   0.456089 0.527845 0.204559 -0.035483
C68   C     C_R   0.000983 0.609801 0.751001 0.972708
C69   C     C_R   0.454584 0.527855 0.793948 -0.034142
C70   C     C_R   0.494924 0.553980 0.755151 -0.306588
C71   C     C_R   0.494859 0.553983 0.244969 -0.304137
C72   C     C_R   0.494867 0.446018 0.244959 -0.304474
C73   C     C_R   0.498998 0.890206 0.251012 0.975312
C74   C     C_R   0.494939 0.446021 0.755166 -0.306647
C75   C     C_R   0.494882 0.053980 0.255107 -0.307373
C76   C     C_R   0.494878 0.053982 0.744896 -0.307035
C77   C     C_R   0.494869 0.946016 0.744904 -0.307051
C78   C     C_R   0.494897 0.946021 0.255121 -0.307379
C79   C     C_R   0.007227 0.553262 0.242721 -0.315314
C80   C     C_R   0.004950 0.553983 0.755263 -0.304447
C81   C     C_R   0.004943 0.446018 0.755269 -0.304964
C82   C     C_R   0.992952 0.446764 0.257673 -0.314460
C83   C     C_R   0.005113 0.053980 0.744879 -0.307279
C84   C     C_R   0.498992 0.109794 0.251007 0.975204
C85   C     C_R   0.005124 0.053984 0.255122 -0.308722
C86   C     C_R   0.005118 0.946018 0.255127 -0.308576
C87   C     C_R   0.005130 0.946020 0.744893 -0.307358
C88   C     C_R   0.533508 0.526595 0.718311 0.547368
C89   C     C_R   0.531663 0.526608 0.283635 0.546239
C90   C     C_R   0.531657 0.473408 0.283640 0.546192
C91   C     C_R   0.533515 0.473398 0.718318 0.547450
C92   C     C_R   0.532620 0.026595 0.217402 0.547564
C93   C     C_R   0.532365 0.026606 0.782899 0.547470
C94   C     C_R   0.532361 0.973407 0.782903 0.547491
C95   C     C_R   0.498997 0.109802 0.748992 0.974647
C96   C     C_R   0.532628 0.973398 0.217409 0.547582
C97   C     C_R   0.963329 0.526537 0.210538 0.554698
C98   C     C_R   0.963954 0.526594 0.721067 0.544637
C99   C     C_R   0.963952 0.473393 0.721069 0.546801
C100  C     C_R   0.958505 0.473491 0.215588 0.556340
C101  C     C_R   0.967390 0.026602 0.782599 0.547487
C102  C     C_R   0.967308 0.026593 0.217446 0.547995
C103  C     C_R   0.967304 0.973394 0.217450 0.547978
C104  C     C_R   0.967399 0.973405 0.782606 0.547496
C105  C     C_1   0.499957 0.750003 0.526644 -0.115294
C106  C     C_R   0.499010 0.390199 0.249016 0.974069
C107  C     C_1   0.499977 0.750022 0.473356 -0.115124
C108  C     C_1   0.499973 0.249982 0.473356 -0.115125
C109  C     C_1   0.499962 0.249993 0.526644 -0.115107
C110  C     C_1   0.499960 0.250001 0.026644 -0.112636
C111  C     C_1   0.499976 0.250022 0.973356 -0.112752
C112  C     C_1   0.499971 0.749981 0.973355 -0.112655
C113  C     C_1   0.499962 0.749993 0.026644 -0.112602
C114  C     C_1   0.000026 0.749937 0.026641 -0.110078
C115  C     C_1   0.000039 0.749961 0.973352 -0.112357
C116  C     C_1   0.000030 0.250038 0.973351 -0.113286
C117  C     C_R   0.499002 0.390206 0.751016 0.974668
C118  C     C_1   0.000024 0.250053 0.026640 -0.111436
C119  C     C_1   0.000009 0.249966 0.526639 -0.112921
C120  C     C_1   0.000034 0.249978 0.473352 -0.109225
C121  C     C_1   0.000046 0.750051 0.473355 -0.120935
C122  C     C_1   0.000035 0.750061 0.526644 -0.119550
C123  C     C_R   0.500020 0.750024 0.910087 0.874043
C124  C     C_R   0.500020 0.750039 0.089913 0.873988
C125  C     C_R   0.500020 0.249955 0.089912 0.874668
C126  C     C_R   0.500023 0.249979 0.910088 0.874056
C127  C     C_R   0.500025 0.250028 0.410087 0.873807
C128  C     C_R   0.498996 0.609794 0.751010 0.974557
C129  C     C_R   0.500018 0.250037 0.589913 0.873865
C130  C     C_R   0.500014 0.749960 0.589912 0.873766
C131  C     C_R   0.500028 0.749975 0.410088 0.873337
C132  C     C_R   0.999995 0.750001 0.410087 0.865631
C133  C     C_R   0.999985 0.750008 0.589912 0.872047
C134  C     C_R   0.999970 0.250002 0.589910 0.873156
C135  C     C_R   0.999999 0.250001 0.410087 0.880267
C136  C     C_R   0.999997 0.250004 0.910084 0.872526
C137  C     C_R   0.000013 0.250033 0.089913 0.847278
C138  C     C_R   0.000016 0.749959 0.089913 0.850670
C139  C     C_R   0.499012 0.609802 0.249016 0.972850
C140  C     C_R   0.000002 0.749998 0.910085 0.872724
C141  C     C_R   0.339922 0.749999 0.749988 0.887569
C142  C     C_R   0.339924 0.749999 0.249991 0.886881
C143  C     C_R   0.339924 0.249989 0.250000 0.886828
C144  C     C_R   0.339924 0.250000 0.749989 0.887392
C145  C     C_R   0.839927 0.749995 0.249993 0.850287
C146  C     C_R   0.839930 0.750005 0.749995 0.860268
C147  C     C_R   0.839928 0.249994 0.749993 0.861013
C148  C     C_R   0.839930 0.250009 0.249999 0.852882
C149  C     C_R   0.660072 0.749995 0.750005 0.860709
C150  C     C_R   0.001016 0.890198 0.251014 0.977592
C151  C     C_R   0.660075 0.750006 0.250006 0.859437
C152  C     C_R   0.660073 0.249995 0.250006 0.859489
C153  C     C_R   0.660075 0.250006 0.750006 0.860966
C154  C     C_R   0.160076 0.749975 0.249983 0.880562
C155  C     C_R   0.160082 0.750023 0.749987 0.888583
C156  C     C_R   0.160079 0.249977 0.749985 0.888124
C157  C     C_R   0.160079 0.250033 0.249977 0.863334
C158  C     C_1   0.723353 0.749993 0.750007 -0.109108
C159  C     C_1   0.723354 0.750009 0.250007 -0.110206
C160  C     C_1   0.723354 0.249996 0.250010 -0.109260
F1    F     F_    0.571719 0.551922 0.681678 -0.603684
F2    F     F_    0.923532 0.551919 0.686839 -0.607155
F3    F     F_    0.923531 0.448054 0.686838 -0.605044
F4    F     F_    0.918886 0.448724 0.179988 -0.576688
F5    F     F_    0.929953 0.051938 0.820022 -0.602148
F6    F     F_    0.929793 0.051917 0.180053 -0.601536
F7    F     F_    0.929784 0.948055 0.180062 -0.601562
F8    F     F_    0.929966 0.948077 0.820034 -0.602152
F9    F     F_    0.568260 0.551948 0.321926 -0.607015
F10   F     F_    0.568243 0.448082 0.321940 -0.606600
F11   F     F_    0.571730 0.448062 0.681690 -0.603499
F12   F     F_    0.570060 0.051923 0.179981 -0.602068
F13   F     F_    0.569586 0.051945 0.820585 -0.602244
F14   F     F_    0.569580 0.948083 0.820590 -0.602224
F15   F     F_    0.570072 0.948062 0.179993 -0.602031
F16   F     F_    0.925501 0.551311 0.173061 -0.576983
H1    H     H_    0.345367 0.546483 0.898530 0.167447
H2    H     H_    0.163232 0.546503 0.889107 0.168847
H3    H     H_    0.163233 0.453551 0.889103 0.168260
H4    H     H_    0.122304 0.464860 0.416991 0.180154
H5    H     H_    0.151620 0.046451 0.598386 0.167332
H6    H     H_    0.151945 0.046496 0.401490 0.167213
H7    H     H_    0.151963 0.953564 0.401471 0.167225
H8    H     H_    0.151636 0.953519 0.598400 0.167333
H9    H     H_    0.351643 0.546447 0.095093 0.170670
H10   H     H_    0.351783 0.453512 0.094956 0.169171
H11   H     H_    0.345379 0.453551 0.898542 0.167116
H12   H     H_    0.348353 0.046481 0.401579 0.167220
H13   H     H_    0.349195 0.046437 0.597397 0.167263
H14   H     H_    0.349189 0.953506 0.597401 0.167271
H15   H     H_    0.348361 0.953550 0.401585 0.167220
H16   H     H_    0.173131 0.535312 0.363372 0.181037
I1    I     I_    0.402446 0.635741 0.846101 -0.362644
I2    I     I_    0.099693 0.635615 0.844071 -0.361383
I3    I     I_    0.099696 0.364419 0.844061 -0.364657
I4    I     I_    0.004134 0.406491 0.407750 -0.288376
I5    I     I_    0.096836 0.135731 0.653176 -0.361961
I6    I     I_    0.096920 0.135761 0.346873 -0.355803
I7    I     I_    0.096980 0.864277 0.346810 -0.356658
I8    I     I_    0.096887 0.864251 0.653223 -0.360659
I9    I     I_    0.403627 0.635714 0.152650 -0.353507
I10   I     I_    0.404022 0.364253 0.152266 -0.367630
I11   I     I_    0.402486 0.364281 0.846141 -0.363400
I12   I     I_    0.403130 0.135750 0.346783 -0.360924
I13   I     I_    0.403290 0.135723 0.652941 -0.361979
I14   I     I_    0.403268 0.864241 0.652959 -0.361903
I15   I     I_    0.403151 0.864269 0.346801 -0.362157
I16   I     I_    0.156950 0.594669 0.246585 -0.337465
O1    O     O_3   0.500000 0.750000 0.750000 -0.510806
O2    O     O_R   0.534620 0.865830 0.284610 -0.617156
O3    O     O_R   0.965390 0.134170 0.284610 -0.615940
O4    O     O_R   0.965390 0.365830 0.784610 -0.611554
O5    O     O_R   0.965390 0.365830 0.215390 -0.571361
O6    O     O_R   0.965390 0.634170 0.215390 -0.571399
O7    O     O_R   0.965390 0.634170 0.784610 -0.611163
O8    O     O_R   0.534620 0.134170 0.284610 -0.617215
O9    O     O_R   0.534620 0.134170 0.715390 -0.617536
O10   O     O_R   0.534620 0.365830 0.215390 -0.616124
O11   O     O_R   0.534620 0.365830 0.784610 -0.615244
O12   O     O_R   0.534620 0.634170 0.784610 -0.615279
O13   O     O_R   0.534620 0.634170 0.215390 -0.617292
O14   O     O_R   0.034620 0.865830 0.215390 -0.615984
O15   O     O_R   0.034620 0.865830 0.784610 -0.617810
O16   O     O_R   0.034620 0.134170 0.784610 -0.617754
O17   O     O_3   0.500000 0.750000 0.250000 -0.511167
O18   O     O_R   0.034620 0.134170 0.215390 -0.615208
O19   O     O_R   0.034620 0.365830 0.715390 -0.622582
O20   O     O_R   0.034620 0.365830 0.284610 -0.642928
O21   O     O_R   0.034620 0.634170 0.284610 -0.638433
O22   O     O_R   0.034620 0.634170 0.715390 -0.624078
O23   O     O_R   0.465390 0.780380 0.882040 -0.621822
O24   O     O_R   0.465390 0.780380 0.117960 -0.622096
O25   O     O_R   0.465390 0.219620 0.117960 -0.622353
O26   O     O_R   0.465390 0.219620 0.882040 -0.621931
O27   O     O_R   0.465390 0.280380 0.382040 -0.622014
O28   O     O_3   0.500000 0.250000 0.250000 -0.510617
O29   O     O_R   0.465390 0.280380 0.617960 -0.622370
O30   O     O_R   0.465390 0.719620 0.617960 -0.622325
O31   O     O_R   0.465390 0.719620 0.382040 -0.621929
O32   O     O_R   0.965390 0.780380 0.382040 -0.626328
O33   O     O_R   0.965390 0.780380 0.617960 -0.626836
O34   O     O_R   0.965390 0.219620 0.617960 -0.627957
O35   O     O_R   0.965390 0.219620 0.382040 -0.629061
O36   O     O_R   0.965390 0.280380 0.882040 -0.624730
O37   O     O_R   0.965390 0.280380 0.117960 -0.622612
O38   O     O_R   0.965390 0.719620 0.117960 -0.621884
O39   O     O_3   0.500000 0.250000 0.750000 -0.510808
O40   O     O_R   0.965390 0.719620 0.882040 -0.624486
O41   O     O_R   0.367970 0.780380 0.784610 -0.620949
O42   O     O_R   0.367970 0.780380 0.215390 -0.622510
O43   O     O_R   0.367970 0.219620 0.215390 -0.621019
O44   O     O_R   0.367970 0.219620 0.784610 -0.621043
O45   O     O_R   0.367970 0.280380 0.284610 -0.622360
O46   O     O_R   0.367970 0.280380 0.715390 -0.621472
O47   O     O_R   0.367970 0.719620 0.715390 -0.621535
O48   O     O_R   0.367970 0.719620 0.284610 -0.619276
O49   O     O_R   0.867970 0.780380 0.284610 -0.629865
O50   O     O_3   0.000000 0.750000 0.250000 -0.517002
O51   O     O_R   0.867970 0.780380 0.715390 -0.629221
O52   O     O_R   0.867970 0.219620 0.715390 -0.628913
O53   O     O_R   0.867970 0.219620 0.284610 -0.629175
O54   O     O_R   0.867970 0.280380 0.784610 -0.624993
O55   O     O_R   0.867970 0.280380 0.215390 -0.619174
O56   O     O_R   0.867970 0.719620 0.215390 -0.620022
O57   O     O_R   0.867970 0.719620 0.784610 -0.624941
O58   O     O_R   0.632030 0.780380 0.715400 -0.628665
O59   O     O_R   0.632030 0.780380 0.284600 -0.628852
O60   O     O_R   0.632030 0.219620 0.284600 -0.628773
O61   O     O_3   0.000000 0.750000 0.750000 -0.510693
O62   O     O_R   0.632030 0.219620 0.715400 -0.628550
O63   O     O_R   0.632030 0.280380 0.215400 -0.625432
O64   O     O_R   0.632030 0.280380 0.784600 -0.626109
O65   O     O_R   0.632030 0.719620 0.784600 -0.626053
O66   O     O_R   0.632030 0.719620 0.215400 -0.625605
O67   O     O_R   0.132030 0.780380 0.215400 -0.629476
O68   O     O_R   0.132030 0.780380 0.784600 -0.621100
O69   O     O_R   0.132030 0.219620 0.784600 -0.621278
O70   O     O_R   0.132030 0.219620 0.215400 -0.626075
O71   O     O_R   0.132030 0.280380 0.715400 -0.620926
O72   O     O_3   0.000000 0.250000 0.750000 -0.511046
O73   O     O_R   0.132030 0.280380 0.284600 -0.627578
O74   O     O_R   0.132030 0.719620 0.284600 -0.612335
O75   O     O_R   0.132030 0.719620 0.715400 -0.620957
O76   O     O_R   0.534620 0.719650 0.882050 -0.626395
O77   O     O_R   0.534620 0.719650 0.117950 -0.625791
O78   O     O_R   0.534620 0.280350 0.117950 -0.625154
O79   O     O_R   0.534620 0.280350 0.882050 -0.626336
O80   O     O_R   0.534620 0.219650 0.382050 -0.627707
O81   O     O_R   0.534620 0.219650 0.617950 -0.627330
O82   O     O_R   0.534620 0.780350 0.617950 -0.627445
O83   O     O_3   0.000000 0.250000 0.250000 -0.516458
O84   O     O_R   0.534620 0.780350 0.382050 -0.627944
O85   O     O_R   0.034620 0.719650 0.382050 -0.625902
O86   O     O_R   0.034620 0.719650 0.617950 -0.624719
O87   O     O_R   0.034620 0.280350 0.617950 -0.621797
O88   O     O_R   0.034620 0.280350 0.382050 -0.613554
O89   O     O_R   0.034620 0.219650 0.882050 -0.622969
O90   O     O_R   0.034620 0.219650 0.117950 -0.629616
O91   O     O_R   0.034620 0.780350 0.117950 -0.628778
O92   O     O_R   0.034620 0.780350 0.882050 -0.622939
O93   O     O_R   0.465390 0.865830 0.784610 -0.617583
O94   O     O_R   0.534620 0.865830 0.715390 -0.617507
O95   O     O_R   0.465390 0.865830 0.215390 -0.617813
O96   O     O_R   0.465390 0.134170 0.215390 -0.617818
O97   O     O_R   0.465390 0.134170 0.784610 -0.617581
O98   O     O_R   0.465390 0.365830 0.284610 -0.618893
O99   O     O_R   0.465390 0.365830 0.715390 -0.619805
O100  O     O_R   0.465390 0.634170 0.715390 -0.619853
O101  O     O_R   0.465390 0.634170 0.284610 -0.617771
O102  O     O_R   0.965390 0.865830 0.284610 -0.615428
O103  O     O_R   0.965390 0.865830 0.715390 -0.617171
O104  O     O_R   0.965390 0.134170 0.715390 -0.617346
Zn1   Zn    Zn3+2 0.549450 0.706630 0.799470 1.045225
Zn2   Zn    Zn3+2 0.049450 0.706630 0.700530 1.038022
Zn3   Zn    Zn3+2 0.049450 0.293370 0.700530 1.041233
Zn4   Zn    Zn3+2 0.049450 0.293370 0.299470 1.013296
Zn5   Zn    Zn3+2 0.049450 0.206630 0.799470 1.044406
Zn6   Zn    Zn3+2 0.049450 0.206630 0.200530 1.032621
Zn7   Zn    Zn3+2 0.049450 0.793370 0.200530 1.036049
Zn8   Zn    Zn3+2 0.049450 0.793370 0.799470 1.044918
Zn9   Zn    Zn3+2 0.450550 0.793390 0.799460 1.045262
Zn10  Zn    Zn3+2 0.450550 0.793390 0.200540 1.044750
Zn11  Zn    Zn3+2 0.450550 0.206610 0.200540 1.044702
Zn12  Zn    Zn3+2 0.549450 0.706630 0.200530 1.044444
Zn13  Zn    Zn3+2 0.450550 0.206610 0.799460 1.045052
Zn14  Zn    Zn3+2 0.450550 0.293390 0.299460 1.042173
Zn15  Zn    Zn3+2 0.450550 0.293390 0.700540 1.042809
Zn16  Zn    Zn3+2 0.450550 0.706610 0.700540 1.042781
Zn17  Zn    Zn3+2 0.450550 0.706610 0.299460 1.044951
Zn18  Zn    Zn3+2 0.950550 0.793390 0.299460 1.034444
Zn19  Zn    Zn3+2 0.950550 0.793390 0.700540 1.040705
Zn20  Zn    Zn3+2 0.950550 0.206610 0.700540 1.041331
Zn21  Zn    Zn3+2 0.950550 0.206610 0.299460 1.037433
Zn22  Zn    Zn3+2 0.950550 0.293390 0.799460 1.048818
Zn23  Zn    Zn3+2 0.549450 0.293370 0.200530 1.045375
Zn24  Zn    Zn3+2 0.950550 0.293390 0.200540 1.056941
Zn25  Zn    Zn3+2 0.950550 0.706610 0.200540 1.058139
Zn26  Zn    Zn3+2 0.950550 0.706610 0.799460 1.048708
Zn27  Zn    Zn3+2 0.549450 0.293370 0.799470 1.045366
Zn28  Zn    Zn3+2 0.549450 0.206630 0.299470 1.041288
Zn29  Zn    Zn3+2 0.549450 0.206630 0.700530 1.041523
Zn30  Zn    Zn3+2 0.549450 0.793370 0.700530 1.041267
Zn31  Zn    Zn3+2 0.549450 0.793370 0.299470 1.040784
Zn32  Zn    Zn3+2 0.049450 0.706630 0.299470 1.017202

loop_
_geom_bond_atom_site_label_1
_geom_bond_atom_site_label_2
_ccdc_geom_bond_type
O46   Zn15  S    
C60   C79   A    
O104  Zn20  S    
C141  O41   A    
C62   C77   A    
O32   Zn18  S    
C114  C115  T    
C146  O51   A    
C140  O92   A    
O28   Zn11  S    
C143  O43   A    
O15   Zn8   S    
C35   O19   A    
C63   C76   A    
O21   Zn32  S    
C28   I3    S    
C1    C77   S    
C108  C109  T    
C135  O35   A    
C147  O52   A    
C110  C111  T    
C19   C37   A    
C66   C72   A    
C78   C96   A    
O27   Zn14  S    
C4    C12   T    
C24   C85   S    
O39   Zn27  S    
O57   Zn26  S    
C124  O77   A    
O42   Zn10  S    
C98   F2    S    
C145  O49   A    
O2    Zn31  S    
O39   Zn13  S    
O62   Zn29  S    
C156  O71   A    
O12   Zn1   S    
O61   Zn2   S    
C81   C99   A    
C5    C155  S    
O83   Zn21  S    
O64   Zn27  S    
O36   Zn22  S    
O68   Zn8   S    
C138  O38   A    
O70   Zn6   S    
C145  O56   A    
C124  O24   A    
O26   Zn13  S    
O39   Zn15  S    
O72   Zn22  S    
C72   C106  S    
O7    Zn26  S    
C154  O74   A    
C17   C34   A    
C13   O16   A    
C55   C83   A    
C10   C160  T    
C32   C53   A    
O14   Zn7   S    
C129  O29   A    
C79   C97   A    
C20   I11   S    
C155  O68   A    
O75   Zn2   S    
C59   C80   A    
C7    C157  S    
C28   C58   A    
C127  O27   A    
C23   C41   A    
C91   F11   S    
C120  C135  S    
C89   F9    S    
C113  C124  S    
C92   F12   S    
C93   F13   S    
O28   Zn28  S    
C116  C118  T    
C117  O11   A    
C18   I9    S    
O33   Zn19  S    
C155  O75   A    
C69   C70   A    
C151  O66   A    
O52   Zn20  S    
C3    C11   T    
O1    Zn9   S    
O11   Zn27  S    
C98   C99   A    
O8    Zn28  S    
C34   H1    S    
C43   C47   A    
C95   O97   A    
C31   I6    S    
O65   Zn1   S    
O94   Zn30  S    
C17   C69   A    
C128  O100  A    
C96   F15   S    
O89   Zn5   S    
O1    Zn16  S    
O79   Zn27  S    
C53   C54   A    
C152  O60   A    
C33   C52   A    
C105  C107  T    
C29   C47   A    
C30   C48   A    
C36   C37   A    
O20   Zn4   S    
C32   I7    S    
C86   C150  S    
C75   C84   S    
C77   C94   A    
C92   C96   A    
C142  O48   A    
O60   Zn28  S    
C19   C66   A    
O82   Zn30  S    
C68   O7    A    
C21   C64   A    
C95   O9    A    
C22   C63   A    
O102  Zn18  S    
C27   C44   A    
C106  O98   A    
C23   C62   A    
C71   C89   A    
O50   Zn32  S    
C149  C158  S    
C128  O12   A    
O50   Zn18  S    
C139  O13   A    
C66   C67   A    
C22   C40   A    
O3    Zn21  S    
O97   Zn13  S    
O31   Zn17  S    
C24   O3    A    
C68   O22   A    
O84   Zn31  S    
C119  C134  S    
C44   H2    S    
O23   Zn9   S    
C144  O46   A    
O61   Zn26  S    
C65   C74   A    
C151  C159  S    
C146  O57   A    
C35   O4    A    
C47   H4    S    
O77   Zn12  S    
C72   C90   A    
C88   C91   A    
C46   O5    A    
C2    C87   S    
C27   I2    S    
C133  O86   A    
C102  F6    S    
C99   F3    S    
C39   H12   S    
O74   Zn32  S    
C43   H16   S    
C2    O103  A    
C109  C129  S    
O34   Zn20  S    
C1    O94   A    
O29   Zn15  S    
C121  C132  S    
O53   Zn21  S    
C97   C100  A    
C136  O89   A    
C83   C101  A    
C140  O40   A    
O101  Zn17  S    
O17   Zn17  S    
C56   C82   A    
C105  C130  S    
C132  O32   A    
O43   Zn11  S    
C64   C75   A    
O83   Zn6   S    
C114  C138  S    
C31   C54   A    
C102  C103  A    
C126  O26   A    
O4    Zn22  S    
C49   C50   A    
C143  O45   A    
C10   C148  S    
O24   Zn10  S    
C26   C60   A    
C6    C156  S    
C85   C102  A    
C4    C154  S    
C68   C80   S    
O72   Zn5   S    
O88   Zn4   S    
C153  O62   A    
O37   Zn24  S    
C8    C158  T    
O91   Zn7   S    
O92   Zn8   S    
O71   Zn3   S    
O39   Zn29  S    
C123  O76   A    
C48   H5    S    
O54   Zn22  S    
C152  O63   A    
O83   Zn24  S    
C132  O85   A    
C36   H9    S    
C134  O34   A    
C42   H15   S    
O63   Zn23  S    
C40   H13   S    
O61   Zn19  S    
O67   Zn7   S    
C73   O95   A    
O73   Zn4   S    
C52   C55   A    
O103  Zn19  S    
C150  O14   A    
O99   Zn15  S    
C149  O58   A    
C31   C49   A    
O41   Zn9   S    
C39   C42   A    
O48   Zn17  S    
O28   Zn14  S    
C8    C146  S    
O30   Zn16  S    
O56   Zn25  S    
C20   C65   A    
C16   C143  S    
C112  C123  S    
C51   H8    S    
C58   C81   A    
O72   Zn20  S    
C33   I8    S    
C58   C59   A    
O76   Zn1   S    
C56   C60   A    
O5    Zn24  S    
O83   Zn4   S    
C149  O65   A    
O17   Zn10  S    
C61   C64   A    
C62   C63   A    
O100  Zn16  S    
C76   C93   A    
C57   O21   A    
C37   H10   S    
C139  O101  A    
O47   Zn16  S    
C111  C126  S    
C100  F4    S    
C25   C61   A    
C103  F7    S    
C101  F5    S    
C5    C14   T    
O22   Zn2   S    
O78   Zn23  S    
C131  O84   A    
C151  O59   A    
C7    C16   T    
C106  O10   A    
O45   Zn14  S    
C101  C104  A    
C153  O64   A    
C44   C45   A    
O9    Zn29  S    
C125  O78   A    
C80   C98   A    
C127  O80   A    
C25   C42   A    
C119  C120  T    
C116  C136  S    
C29   C56   A    
C33   C51   A    
C30   C55   A    
C13   C83   S    
O98   Zn14  S    
C90   F10   S    
C11   C147  S    
O28   Zn23  S    
C65   C69   A    
C9    C145  S    
C12   C142  S    
C67   C71   A    
O40   Zn26  S    
C87   C104  A    
C123  O23   A    
C115  C140  S    
C137  O37   A    
O17   Zn31  S    
C46   O20   A    
O50   Zn25  S    
C89   C90   A    
C25   I15   S    
C18   C36   A    
C88   F1    S    
C74   C91   A    
C152  C160  S    
C93   C94   A    
C142  O42   A    
C57   C79   S    
O85   Zn32  S    
C17   I1    S    
C50   H7    S    
C70   C88   A    
C35   C81   S    
C41   H14   S    
O38   Zn25  S    
O49   Zn18  S    
O17   Zn12  S    
O35   Zn21  S    
C76   C95   S    
C9    C159  T    
O66   Zn12  S    
C38   H11   S    
C3    C153  S    
O81   Zn29  S    
C134  O87   A    
C133  O33   A    
C157  O70   A    
O86   Zn2   S    
C48   C51   A    
C108  C127  S    
C117  O99   A    
O59   Zn31  S    
C73   C78   S    
C53   C86   A    
C148  O53   A    
C118  C137  S    
O51   Zn19  S    
O90   Zn6   S    
O95   Zn10  S    
O69   Zn5   S    
C6    C15   T    
C14   C141  S    
C129  O81   A    
O96   Zn11  S    
C97   F16   S    
C46   C82   S    
C126  O79   A    
C21   I12   S    
C1    O93   A    
C137  O90   A    
C24   O18   A    
C86   C103  A    
O1    Zn1   S    
C112  C113  T    
C26   C43   A    
O80   Zn28  S    
C28   C45   A    
C136  O36   A    
O10   Zn23  S    
C141  O47   A    
C73   O2    A    
C107  C131  S    
C131  O31   A    
C71   C139  S    
C18   C67   A    
C19   I10   S    
C15   C144  S    
C22   I13   S    
O16   Zn5   S    
C135  O88   A    
C122  C133  S    
C104  F8    S    
C20   C38   A    
O1    Zn30  S    
C21   C39   A    
O6    Zn25  S    
C61   C78   A    
O18   Zn6   S    
O87   Zn3   S    
C130  O82   A    
O19   Zn3   S    
C121  C122  T    
C147  O54   A    
C32   C50   A    
C75   C92   A    
C94   F14   S    
C40   C41   A    
C23   I14   S    
O93   Zn9   S    
O58   Zn30  S    
O50   Zn7   S    
C157  O73   A    
C70   C128  S    
O25   Zn11  S    
C74   C117  S    
C130  O30   A    
C34   C38   A    
C82   C100  A    
C52   C87   A    
C26   I16   S    
C54   C85   A    
C29   I4    S    
C138  O91   A    
C13   O104  A    
C156  O69   A    
C27   C59   A    
O61   Zn8   S    
O72   Zn3   S    
C2    O15   A    
C148  O55   A    
C144  O44   A    
C154  O67   A    
C125  O25   A    
C45   H3    S    
C110  C125  S    
C49   H6    S    
O13   Zn12  S    
C84   O96   A    
C30   I5    S    
C57   O6    A    
C150  O102  A    
O44   Zn13  S    
C84   O8    A    
O55   Zn24  S    
