data_mof_unit_22425.cif
_audit_creation_date              2012-10-26T18:59:26-0400
_audit_creation_method            fapswitch 2.2
_symmetry_space_group_name_H-M    P1
_symmetry_Int_Tables_number       1
_space_group_crystal_system       triclinic
_cell_length_a                    10.943285
_cell_length_b                    19.466943
_cell_length_c                    18.292763
_cell_angle_alpha                 90.006808
_cell_angle_beta                  91.227769
_cell_angle_gamma                 92.332394
_cell_volume                      3892.82517724

loop_
_atom_site_label
_atom_site_type_symbol
_atom_type_description
_atom_site_fract_x
_atom_site_fract_y
_atom_site_fract_z
_atom_type_partial_charge
C1    C     C_R   0.502425 0.367528 0.499816 0.583173
C2    C     C_R   0.483857 0.182448 0.564949 0.251825
C3    C     C_R   0.474145 0.852270 0.490194 -0.000784
C4    C     C_R   0.496926 0.146843 0.498791 -0.001428
C5    C     C_R   0.490083 0.821048 0.558022 -0.174269
C6    C     C_R   0.515974 0.183231 0.433970 -0.170823
C7    C     C_R   0.497495 0.748751 0.564942 0.246832
C8    C     C_R   0.525560 0.255226 0.433461 0.251058
C9    C     C_R   0.485157 0.708451 0.500010 -0.014114
C10   C     C_R   0.505277 0.291565 0.498862 -0.004743
C11   C     C_R   0.384841 0.962680 0.523743 -0.136278
C12   C     C_R   0.496186 0.632562 0.500175 0.556475
C13   C     C_R   0.578476 0.035692 0.458161 -0.131078
C14   C     C_R   0.391651 0.034191 0.527352 -0.076996
C15   C     C_R   0.570780 0.964208 0.453802 -0.077295
C16   C     C_R   0.262209 0.501780 0.498938 0.552358
C17   C     C_R   0.737657 0.497023 0.500476 0.595569
C18   C     C_R   0.489619 0.071148 0.495627 0.067098
C19   C     C_R   0.474612 0.927504 0.487202 0.062960
C20   C     C_R   0.435130 0.448448 0.718255 0.419775
C21   C     C_R   0.532847 0.558992 0.278494 0.417285
C22   C     C_R   0.441491 0.442746 0.794926 -0.108631
C23   C     C_R   0.871812 0.494493 0.500313 0.003534
C24   C     C_R   0.520457 0.558948 0.201278 -0.112168
C25   C     C_R   0.497445 0.495339 0.838262 -0.012498
C26   C     C_R   0.497839 0.498082 0.162004 -0.014425
C27   C     C_R   0.558442 0.549360 0.799794 -0.190981
C28   C     C_R   0.472854 0.438028 0.202553 -0.184448
C29   C     C_R   0.562439 0.549340 0.723161 -0.011139
C30   C     C_R   0.469243 0.440752 0.279179 0.005978
C31   C     C_R   0.577682 0.537246 0.962092 -0.155099
C32   C     C_R   0.416496 0.453782 0.040108 -0.147121
C33   C     C_R   0.576551 0.542776 0.038679 0.263454
C34   C     C_R   0.128077 0.504579 0.496419 -0.031421
C35   C     C_R   0.408617 0.453938 0.962963 0.259115
C36   C     C_R   0.498227 0.498127 0.079416 -0.001783
C37   C     C_R   0.494106 0.494468 0.921727 -0.001524
C38   C     C_R   0.201606 0.522616 0.246564 -0.154049
C39   C     C_R   0.816654 0.378265 0.711271 -0.142894
C40   C     C_R   0.164211 0.533889 0.318661 0.303899
C41   C     C_R   0.843018 0.406758 0.642791 0.292507
C42   C     C_R   0.116666 0.477778 0.359394 0.058185
C43   C     C_R   0.893810 0.474706 0.637871 0.038049
C44   C     C_R   0.106908 0.411962 0.327915 -0.074138
C45   C     C_R   0.941379 0.500734 0.566261 -0.051456
C46   C     C_R   0.918220 0.511826 0.703037 -0.075198
C47   C     C_R   0.138430 0.401346 0.255147 0.257828
C48   C     C_R   0.901704 0.481036 0.771409 0.252891
C49   C     C_R   0.186405 0.457670 0.214731 -0.163840
C50   C     C_R   0.849914 0.413979 0.775101 -0.155799
C51   C     C_R   0.931485 0.488420 0.432755 0.210795
C52   C     C_R   0.066860 0.516962 0.561985 0.178482
C53   C     C_3   0.519976 0.760056 0.693335 -0.018379
C54   C     C_3   0.537931 0.719802 0.763359 -0.392453
C55   C     C_3   0.652499 0.266107 0.334169 -0.016921
C56   C     C_R   0.059571 0.489917 0.431262 -0.031924
C57   C     C_3   0.707676 0.322459 0.286220 -0.369235
C58   C     C_3   0.245589 0.395954 0.692366 0.001381
C59   C     C_3   0.203303 0.322638 0.710179 -0.434047
C60   C     C_3   0.611618 0.676463 0.279302 -0.042727
C61   C     C_3   0.735481 0.675838 0.242551 -0.426620
C62   C     C_3   0.642510 0.656883 0.051551 -0.032614
C63   C     C_3   0.760167 0.689493 0.022001 -0.397374
C64   C     C_3   0.204765 0.434743 0.937422 -0.013213
C65   C     C_3   0.111021 0.380825 0.908983 -0.361435
C66   C     C_3   0.144645 0.652071 0.305603 -0.029204
C67   C     C_R   0.460943 0.740832 0.432680 -0.175976
C68   C     C_3   0.094103 0.709315 0.351163 -0.393643
C69   C     C_3   0.918301 0.326312 0.568122 -0.020410
C70   C     C_3   0.896015 0.287840 0.496495 -0.371475
C71   C     C_3   0.088802 0.333572 0.152906 -0.011205
C72   C     C_3   0.032473 0.262951 0.134008 -0.370240
C73   C     C_3   0.869039 0.529276 0.882985 -0.017418
C74   C     C_3   0.933014 0.549661 0.954907 -0.398187
C75   C     C_3   0.855940 0.523321 0.320514 -0.007423
C76   C     C_3   0.840383 0.495074 0.243040 -0.383554
C77   C     C_3   0.156590 0.609226 0.620831 0.006386
C78   C     C_R   0.488969 0.254839 0.564322 -0.167199
C79   C     C_3   0.229272 0.632105 0.688882 -0.351040
C80   C     C_3   0.334701 0.833478 0.328327 -0.014702
C81   C     C_3   0.319569 0.881816 0.263804 -0.374276
C82   C     C_3   0.379207 0.165142 0.672207 -0.020303
C83   C     C_3   0.349121 0.108719 0.727212 -0.375540
C84   C     C_R   0.458840 0.812456 0.426981 0.239601
Cu1   Cu    Cu3+1 0.499960 0.500000 0.573360 1.031153
Cu2   Cu    Cu3+1 0.500040 0.500000 0.426640 1.039607
H1    H     H_    0.310254 0.934618 0.549880 0.093006
H2    H     H_    0.776969 0.326545 0.714878 0.129082
H3    H     H_    0.444796 0.710386 0.383843 0.161882
H4    H     H_    0.481538 0.282606 0.615119 0.166938
H5    H     H_    0.500164 0.855178 0.604532 0.095246
H6    H     H_    0.522529 0.155193 0.383184 0.111214
H7    H     H_    0.214739 0.451685 0.159037 0.096054
H8    H     H_    0.839381 0.388355 0.827198 0.109091
H9    H     H_    0.431176 0.785715 0.697055 0.120787
H10   H     H_    0.597860 0.798524 0.690693 0.131901
H11   H     H_    0.628867 0.696599 0.763541 0.137209
H12   H     H_    0.654704 0.063341 0.433223 0.093767
H13   H     H_    0.534638 0.754879 0.811093 0.090986
H14   H     H_    0.464068 0.679482 0.768337 0.153464
H15   H     H_    0.625626 0.221431 0.298678 0.128125
H16   H     H_    0.724820 0.250868 0.374104 0.119298
H17   H     H_    0.724655 0.369823 0.319093 0.226969
H18   H     H_    0.795636 0.306190 0.264012 0.107819
H19   H     H_    0.644200 0.333294 0.239945 0.137310
H20   H     H_    0.194985 0.411222 0.642251 0.194233
H21   H     H_    0.218355 0.430784 0.737175 0.144408
H22   H     H_    0.103805 0.320665 0.721197 0.100444
H23   H     H_    0.320325 0.060637 0.554581 0.120160
H24   H     H_    0.219675 0.288621 0.663007 0.135280
H25   H     H_    0.253817 0.304087 0.759120 0.151029
H26   H     H_    0.620564 0.718673 0.319942 0.175954
H27   H     H_    0.535841 0.691514 0.242075 0.098428
H28   H     H_    0.738459 0.633222 0.202920 0.184770
H29   H     H_    0.752458 0.725063 0.213122 0.109086
H30   H     H_    0.809474 0.670305 0.284335 0.129648
H31   H     H_    0.602848 0.592527 0.827486 0.081223
H32   H     H_    0.453559 0.389229 0.175543 0.116543
H33   H     H_    0.646739 0.567958 0.935331 0.106352
H34   H     H_    0.641502 0.937400 0.426316 0.128126
H35   H     H_    0.354808 0.419306 0.069205 0.108625
H36   H     H_    0.618108 0.686988 0.100169 0.127585
H37   H     H_    0.566857 0.663606 0.010564 0.112609
H38   H     H_    0.779143 0.667782 0.967569 0.128311
H39   H     H_    0.750495 0.745763 0.015764 0.097178
H40   H     H_    0.837996 0.680473 0.060307 0.155183
H41   H     H_    0.195100 0.482862 0.905273 0.172488
H42   H     H_    0.184009 0.444799 0.995699 0.101964
H43   H     H_    0.124095 0.331116 0.937314 0.144590
H44   H     H_    0.017123 0.397287 0.919291 0.122306
H45   H     H_    0.403418 0.396130 0.818139 0.174205
H46   H     H_    0.121153 0.373613 0.849358 0.158272
H47   H     H_    0.073162 0.636595 0.263729 0.104081
H48   H     H_    0.227723 0.671947 0.277428 0.124942
H49   H     H_    0.161559 0.725701 0.394595 0.150912
H50   H     H_    0.074303 0.753991 0.315721 0.087966
H51   H     H_    0.008178 0.690769 0.377264 0.146472
H52   H     H_    0.928313 0.287938 0.612798 0.125792
H53   H     H_    0.005179 0.357855 0.563690 0.118267
H54   H     H_    0.884983 0.324980 0.450935 0.176352
H55   H     H_    0.974845 0.255560 0.485261 0.090884
H56   H     H_    0.528033 0.605744 0.171063 0.123849
H57   H     H_    0.811856 0.254218 0.500001 0.156605
H58   H     H_    0.068846 0.369213 0.359142 0.131249
H59   H     H_    0.956926 0.563698 0.701382 0.149370
H60   H     H_    0.170055 0.342710 0.118211 0.131666
H61   H     H_    0.019023 0.372274 0.140085 0.115198
H62   H     H_    0.950175 0.252242 0.167313 0.148275
H63   H     H_    0.005239 0.261149 0.075174 0.088643
H64   H     H_    0.099809 0.222852 0.145082 0.161565
H65   H     H_    0.803350 0.485647 0.894507 0.134165
H66   H     H_    0.818500 0.573832 0.862014 0.125267
H67   H     H_    0.613382 0.589705 0.695119 0.158136
H68   H     H_    0.991596 0.596971 0.947504 0.143049
H69   H     H_    0.864339 0.558941 0.997022 0.153617
H70   H     H_    0.990353 0.507729 0.974933 0.136079
H71   H     H_    0.935086 0.560446 0.322552 0.124811
H72   H     H_    0.775622 0.553056 0.333196 0.211934
H73   H     H_    0.747689 0.470676 0.235154 0.160269
H74   H     H_    0.853079 0.536967 0.202549 0.114209
H75   H     H_    0.909033 0.456166 0.232722 0.160467
H76   H     H_    0.070100 0.637504 0.618386 0.105007
H77   H     H_    0.211855 0.623438 0.572260 0.149353
H78   H     H_    0.442499 0.394726 0.308479 0.193030
H79   H     H_    0.316896 0.605382 0.691770 0.193955
H80   H     H_    0.249201 0.688442 0.686874 0.100017
H81   H     H_    0.176248 0.619639 0.738588 0.149903
H82   H     H_    0.262129 0.844082 0.368270 0.127192
H83   H     H_    0.322847 0.779960 0.307729 0.120172
H84   H     H_    0.389229 0.871967 0.222194 0.149762
H85   H     H_    0.227000 0.873394 0.238516 0.085947
H86   H     H_    0.330669 0.936048 0.282517 0.162559
H87   H     H_    0.295414 0.172891 0.637867 0.110441
H88   H     H_    0.404481 0.212861 0.703285 0.143803
H89   H     H_    0.242224 0.564016 0.214629 0.097339
H90   H     H_    0.429925 0.100272 0.763385 0.161747
H91   H     H_    0.271835 0.123867 0.761274 0.092114
H92   H     H_    0.322721 0.060043 0.698226 0.146149
N1    N     N_R   0.499990 0.500020 0.683620 -0.217204
N2    N     N_R   0.500010 0.499980 0.316380 -0.217963
O1    O     O_R   0.499950 0.400180 0.561980 -0.456933
O2    O     O_3   0.548386 0.290707 0.368923 -0.547902
O3    O     O_3   0.372297 0.398147 0.677326 -0.545871
O4    O     O_3   0.585189 0.614691 0.318050 -0.549587
O5    O     O_3   0.660889 0.587693 0.073336 -0.587877
O6    O     O_3   0.322984 0.409708 0.929327 -0.588744
O7    O     O_3   0.176184 0.597770 0.352745 -0.554921
O8    O     O_3   0.818193 0.367939 0.580605 -0.553178
O9    O     O_3   0.124754 0.334753 0.227633 -0.556506
O10   O     O_3   0.957600 0.511996 0.832148 -0.574680
O11   O     O_3   0.865320 0.467968 0.370237 -0.564896
O12   O     O_R   0.500050 0.599820 0.438020 -0.453708
O13   O     O_3   0.131734 0.537468 0.624541 -0.565429
O14   O     O_3   0.452807 0.844417 0.359473 -0.564852
O15   O     O_3   0.478423 0.145418 0.629822 -0.551104
O16   O     O_R   0.500010 0.400190 0.438070 -0.479210
O17   O     O_R   0.499990 0.599810 0.561930 -0.477304
O18   O     O_R   0.319610 0.500000 0.561950 -0.455064
O19   O     O_R   0.680390 0.500000 0.438050 -0.463450
O20   O     O_R   0.319670 0.500010 0.438050 -0.499718
O21   O     O_R   0.680330 0.499990 0.561950 -0.510128
O22   O     O_3   0.519056 0.715631 0.631908 -0.547604

loop_
_geom_bond_atom_site_label_1
_geom_bond_atom_site_label_2
_ccdc_geom_bond_type
C60   O4    S    
C14   H23   S    
C66   C68   S    
C76   H73   S    
C34   C56   A    
C23   C45   A    
C22   H45   S    
C53   H9    S    
C73   C74   S    
C14   C18   A    
C71   H61   S    
C30   H78   S    
C33   C36   A    
C63   H38   S    
C76   H75   S    
C21   O4    S    
C16   O18   A    
C39   C41   A    
C38   C49   A    
C53   C54   S    
C78   H4    S    
C70   H54   S    
C55   H16   S    
C11   C19   A    
C70   H57   S    
C17   C23   S    
C13   C15   A    
C13   C18   A    
C60   H26   S    
C32   C36   A    
C29   H67   S    
C35   C37   A    
C24   C26   A    
C2    O15   S    
C7    O22   S    
C11   C14   A    
C46   H59   S    
C27   C29   A    
C8    O2    S    
C67   H3    S    
C59   H24   S    
C15   H34   S    
C74   H68   S    
C58   H21   S    
C81   H86   S    
C13   H12   S    
C77   O13   S    
C34   C52   A    
C25   C37   S    
C66   H48   S    
C21   N2    A    
C11   H1    S    
C82   H88   S    
C84   O14   S    
C64   H42   S    
C22   C25   A    
C61   H29   S    
C59   H25   S    
C12   O17   A    
C31   C33   A    
C54   H11   S    
C3    C19   S    
C53   O22   S    
C48   O10   S    
C73   O10   S    
C16   O20   A    
C44   C47   A    
Cu1   O21   S    
Cu2   O19   S    
C69   H52   S    
C4    C18   S    
C75   H71   S    
C40   C42   A    
C67   C84   A    
C83   H90   S    
C73   H65   S    
C53   H10   S    
C41   C43   A    
C54   H14   S    
C68   H51   S    
C42   C44   A    
C39   H2    S    
C12   O12   A    
C75   O11   S    
C47   C49   A    
C62   H37   S    
C43   C46   A    
C65   H44   S    
C20   N1    A    
C80   H83   S    
C27   H31   S    
C10   C78   A    
C57   H17   S    
C46   C48   A    
C61   H28   S    
C57   H19   S    
C83   H91   S    
C77   H77   S    
C32   C35   A    
C68   H50   S    
C1    O16   A    
Cu2   O16   S    
C4    C6    A    
C24   H56   S    
C40   O7    S    
C1    O1    A    
C50   H8    S    
C6    C8    A    
C45   C52   A    
C58   C59   S    
Cu1   Cu2   S    
C79   H79   S    
C31   C37   A    
C41   O8    S    
C60   C61   S    
C58   H20   S    
C33   O5    S    
C47   O9    S    
C15   C19   A    
C75   C76   S    
C9    C67   A    
C62   C63   S    
C2    C78   A    
C66   H47   S    
C23   C51   A    
C82   H87   S    
Cu1   N1    S    
C64   H41   S    
C60   H27   S    
C71   H60   S    
C61   H30   S    
Cu2   N2    S    
C77   C79   S    
C74   H70   S    
C69   H53   S    
C5    H5    S    
C81   H84   S    
C71   O9    S    
C42   C56   S    
C43   C45   S    
C69   O8    S    
C31   H33   S    
C82   O15   S    
C63   H39   S    
C62   O5    S    
C75   H72   S    
C26   C36   S    
C20   C22   A    
C82   C83   S    
C72   H64   S    
C55   C57   S    
C73   H66   S    
C54   H13   S    
C62   H36   S    
C65   H46   S    
C51   O11   S    
C5    C7    A    
C1    C10   S    
Cu1   O17   S    
C77   H76   S    
C7    C9    A    
C57   H18   S    
C76   H74   S    
C70   H55   S    
Cu1   O1    S    
C83   H92   S    
Cu2   O12   S    
C32   H35   S    
C68   H49   S    
C52   O13   S    
C51   C56   A    
C80   C81   S    
C3    C5    A    
C65   H43   S    
C17   O21   A    
C25   C27   A    
C80   O14   S    
C55   H15   S    
C26   C28   A    
C59   H22   S    
C16   C34   S    
C49   H7    S    
C64   C65   S    
C28   C30   A    
C71   C72   S    
C72   H62   S    
C38   C40   A    
C38   H89   S    
C35   O6    S    
C6    H6    S    
C2    C4    A    
C48   C50   A    
C55   O2    S    
C74   H69   S    
C17   O19   A    
C20   O3    S    
C81   H85   S    
C79   H80   S    
C69   C70   S    
C9    C12   S    
C63   H40   S    
Cu1   O18   S    
C39   C50   A    
C8    C10   A    
C72   H63   S    
C29   N1    A    
C21   C24   A    
C3    C84   A    
C30   N2    A    
C58   O3    S    
C28   H32   S    
C44   H58   S    
C79   H81   S    
C66   O7    S    
C80   H82   S    
C64   O6    S    
Cu2   O20   S    
