data_mof_unit_58443.cif
_audit_creation_date              2012-12-10T19:47:59-0500
_audit_creation_method            fapswitch 2.2
_symmetry_space_group_name_H-M    P1
_symmetry_Int_Tables_number       1
_space_group_crystal_system       triclinic
_cell_length_a                    14.997365
_cell_length_b                    14.227756
_cell_length_c                    10.939116
_cell_angle_alpha                 90.043436
_cell_angle_beta                  91.694604
_cell_angle_gamma                 90.035209
_cell_volume                      2333.15399365

loop_
_atom_site_label
_atom_site_type_symbol
_atom_type_description
_atom_site_fract_x
_atom_site_fract_y
_atom_site_fract_z
_atom_type_partial_charge
C1    C     C_R   0.327700 0.499828 0.501994 0.863959
C2    C     C_R   0.573906 0.795849 0.542472 0.596581
C3    C     C_R   0.565481 0.205340 0.563641 0.559388
C4    C     C_R   0.425675 0.795193 0.457763 0.596525
C5    C     C_R   0.500076 0.053998 0.499104 0.085666
C6    C     C_R   0.500037 0.947070 0.498845 0.055531
C7    C     C_R   0.500107 0.500316 0.259900 0.876237
C8    C     C_R   0.499122 0.500466 0.740170 0.873211
C9    C     C_R   0.453224 0.672206 0.113763 -0.325838
C10   C     C_R   0.453003 0.332535 0.889159 -0.306198
C11   C     C_R   0.531103 0.676000 0.887844 -0.340598
C12   C     C_R   0.671987 0.499829 0.500030 0.858232
C13   C     C_R   0.548552 0.333405 0.110134 -0.309334
C14   C     C_R   0.466741 0.758404 0.056238 0.473212
C15   C     C_R   0.472578 0.246920 0.948182 0.507154
C16   C     C_R   0.508665 0.760425 0.944125 0.464896
C17   C     C_R   0.530374 0.247487 0.050767 0.512001
C18   C     C_R   0.506274 0.588557 0.938808 0.010221
C19   C     C_R   0.513026 0.417765 0.061138 0.007719
C20   C     C_R   0.484926 0.587468 0.062105 0.003490
C21   C     C_R   0.486915 0.417544 0.938467 0.008107
C22   C     C_R   0.497198 0.502380 0.872934 -0.122998
C23   C     C_R   0.047737 0.496099 0.519146 0.128249
C24   C     C_R   0.499841 0.501947 0.127234 -0.122021
C25   C     C_R   0.091832 0.581005 0.498526 -0.191100
C26   C     C_R   0.905147 0.425549 0.450416 -0.180591
C27   C     C_R   0.905630 0.564645 0.580125 -0.194496
C28   C     C_R   0.095619 0.412795 0.537479 -0.190770
C29   C     C_R   0.183651 0.582451 0.494726 -0.196926
C30   C     C_R   0.812991 0.427385 0.444073 -0.217387
C31   C     C_R   0.813709 0.566879 0.572576 -0.174985
C32   C     C_R   0.187547 0.414143 0.532567 -0.198731
C33   C     C_R   0.231727 0.498848 0.509354 -0.025098
C34   C     C_R   0.951459 0.494561 0.517999 0.119522
C35   C     C_R   0.767581 0.498711 0.504287 -0.012886
C36   C     C_3   0.552590 0.136077 0.197956 -0.245371
C37   C     C_3   0.456955 0.868043 0.808058 -0.271902
C38   C     C_3   0.446893 0.134775 0.802104 -0.225654
C39   C     C_3   0.508154 0.880697 0.177078 -0.257919
C40   C     C_3   0.289961 0.220142 0.353579 -0.337576
C41   C     C_3   0.697075 0.794156 0.679524 -0.399073
C42   C     C_3   0.713942 0.230306 0.612676 -0.291470
C43   C     C_3   0.290344 0.793326 0.341517 -0.401925
C44   C     C_R   0.434899 0.105918 0.432950 -0.450665
C45   C     C_R   0.576739 0.895345 0.531214 -0.406622
C46   C     C_R   0.565363 0.105825 0.565332 -0.436885
C47   C     C_R   0.423150 0.895073 0.467184 -0.427347
C48   C     C_R   0.434776 0.205840 0.434871 0.569288
H1    H     H_    0.416031 0.673450 0.196530 0.235405
H2    H     H_    0.777270 0.374299 0.391039 0.143479
H3    H     H_    0.778652 0.620313 0.621845 0.182973
H4    H     H_    0.223812 0.349187 0.547436 0.159570
H5    H     H_    0.387322 0.069491 0.374314 0.163642
H6    H     H_    0.638777 0.931802 0.549288 0.164303
H7    H     H_    0.613633 0.070133 0.623709 0.167320
H8    H     H_    0.361569 0.932108 0.449150 0.164126
H9    H     H_    0.479833 0.121379 0.199222 0.190937
H10   H     H_    0.573402 0.187334 0.269867 0.143868
H11   H     H_    0.588584 0.069826 0.219259 0.172659
H12   H     H_    0.408391 0.332989 0.809740 0.177077
H13   H     H_    0.441306 0.810314 0.741999 0.147546
H14   H     H_    0.476999 0.929791 0.754051 0.185598
H15   H     H_    0.396478 0.887258 0.858946 0.196713
H16   H     H_    0.518290 0.114259 0.800014 0.196146
H17   H     H_    0.429646 0.187814 0.730940 0.137722
H18   H     H_    0.405791 0.072020 0.780040 0.172450
H19   H     H_    0.536897 0.830818 0.246043 0.145617
H20   H     H_    0.482127 0.941964 0.227229 0.183323
H21   H     H_    0.561109 0.906467 0.116432 0.207612
H22   H     H_    0.242424 0.276513 0.326077 0.199133
H23   H     H_    0.569033 0.681448 0.806191 0.229991
H24   H     H_    0.267855 0.191461 0.442477 0.141515
H25   H     H_    0.286350 0.165682 0.280807 0.171403
H26   H     H_    0.655968 0.839469 0.738503 0.218455
H27   H     H_    0.749455 0.836196 0.635113 0.173800
H28   H     H_    0.730993 0.742964 0.741386 0.182743
H29   H     H_    0.759080 0.287471 0.645152 0.199847
H30   H     H_    0.725447 0.220199 0.513304 0.140099
H31   H     H_    0.732665 0.166142 0.665099 0.153269
H32   H     H_    0.321186 0.841116 0.274612 0.225678
H33   H     H_    0.245686 0.832341 0.402916 0.162243
H34   H     H_    0.592459 0.334322 0.190265 0.175340
H35   H     H_    0.248318 0.742888 0.288129 0.196596
H36   H     H_    0.055203 0.645759 0.483229 0.133057
H37   H     H_    0.940215 0.371760 0.400791 0.132087
H38   H     H_    0.940947 0.617374 0.634235 0.132729
H39   H     H_    0.061921 0.347087 0.555510 0.128090
H40   H     H_    0.216536 0.648643 0.479319 0.201136
N1    N     N_R   0.500000 0.252470 0.500000 -0.175914
N2    N     N_R   0.500000 0.747530 0.500000 -0.180242
O1    O     O_R   0.369060 0.579480 0.500010 -0.570849
O2    O     O_3   0.528121 0.844941 0.889397 -0.617603
O3    O     O_3   0.426128 0.165387 0.919773 -0.603817
O4    O     O_3   0.436906 0.840256 0.108701 -0.616419
O5    O     O_3   0.376389 0.259341 0.362414 -0.563264
O6    O     O_3   0.645755 0.744438 0.590118 -0.582472
O7    O     O_3   0.625316 0.256941 0.635618 -0.568443
O8    O     O_3   0.354565 0.741977 0.410772 -0.586860
O9    O     O_R   0.630940 0.420520 0.499990 -0.596602
O10   O     O_R   0.630940 0.579480 0.499990 -0.565212
O11   O     O_R   0.369060 0.420520 0.500010 -0.593679
O12   O     O_R   0.499990 0.579480 0.316780 -0.624148
O13   O     O_R   0.500010 0.420520 0.683220 -0.597774
O14   O     O_R   0.500010 0.579480 0.683220 -0.629392
O15   O     O_R   0.499990 0.420520 0.316780 -0.596341
O16   O     O_3   0.576294 0.166138 0.081266 -0.602731
Zn1   Zn    Zn3+2 0.500000 0.606140 0.500000 1.016438
Zn2   Zn    Zn3+2 0.500000 0.393860 0.500000 1.013198

loop_
_geom_bond_atom_site_label_1
_geom_bond_atom_site_label_2
_ccdc_geom_bond_type
C11   C18   A    
C6    C45   A    
C4    O8    S    
C43   H35   S    
C39   H20   S    
C43   O8    S    
C36   H11   S    
C37   H14   S    
C1    C33   S    
O9    Zn2   S    
C40   H22   S    
C30   C35   A    
C48   O5    S    
N2    Zn1   S    
C36   H10   S    
C10   C15   A    
C5    C6    S    
C11   H23   S    
C41   O6    S    
C7    C24   S    
C29   C33   A    
C40   H25   S    
C38   O3    S    
C18   C20   A    
C2    N2    A    
C20   C24   A    
C32   H4    S    
C12   O9    A    
C41   H26   S    
C44   H5    S    
C26   C34   A    
C38   H18   S    
C29   H40   S    
C7    O12   A    
C46   H7    S    
C25   H36   S    
C8    C22   S    
C7    O15   A    
O13   Zn2   S    
C4    N2    A    
O11   Zn2   S    
C30   H2    S    
C42   H31   S    
C1    O1    A    
C21   C22   A    
C37   H15   S    
C38   H16   S    
C27   C34   A    
C25   C29   A    
O15   Zn2   S    
C6    C47   A    
C13   C19   A    
C36   O16   S    
O1    Zn1   S    
C28   C32   A    
C9    H1    S    
C36   H9    S    
C42   O7    S    
C43   H32   S    
C27   C31   A    
C13   H34   S    
C27   H38   S    
C10   H12   S    
C9    C14   A    
C39   O4    S    
C41   H27   S    
C11   C16   A    
C3    O7    S    
C9    C20   A    
C38   H17   S    
C23   C34   S    
C28   H39   S    
C39   H21   S    
O12   Zn1   S    
C23   C28   A    
C12   C35   S    
C8    O14   A    
C5    C44   A    
C45   H6    S    
C16   O2    S    
C48   N1    A    
C43   H33   S    
C14   C16   A    
C40   O5    S    
C1    O11   A    
C42   H30   S    
C15   C17   A    
O10   Zn1   S    
C40   H24   S    
C37   O2    S    
C19   C21   A    
C18   C22   A    
C39   H19   S    
C31   H3    S    
C10   C21   A    
C15   O3    S    
C37   H13   S    
C26   C30   A    
C5    C46   A    
C3    C46   A    
C13   C17   A    
C3    N1    A    
C32   C33   A    
C2    O6    S    
C19   C24   A    
C17   O16   S    
C41   H28   S    
C26   H37   S    
N1    Zn2   S    
C31   C35   A    
C23   C25   A    
C8    O13   A    
C12   O10   A    
C2    C45   A    
C42   H29   S    
C14   O4    S    
O14   Zn1   S    
C44   C48   A    
C47   H8    S    
C4    C47   A    
