data_mof_unit_14209.cif
_audit_creation_date              2012-12-11T16:57:20-0500
_audit_creation_method            fapswitch 2.2
_symmetry_space_group_name_H-M    P1
_symmetry_Int_Tables_number       1
_space_group_crystal_system       triclinic
_cell_length_a                    14.531085
_cell_length_b                    16.153298
_cell_length_c                    6.91414
_cell_angle_alpha                 90.319545
_cell_angle_beta                  98.557261
_cell_angle_gamma                 89.782709
_cell_volume                      1604.82205234

loop_
_atom_site_label
_atom_site_type_symbol
_atom_type_description
_atom_site_fract_x
_atom_site_fract_y
_atom_site_fract_z
_atom_type_partial_charge
O1    O     O_R   0.584990 0.413650 0.534420 -0.555006
O2    O     O_R   0.584990 0.586350 0.534420 -0.525076
O3    O     O_R   0.596190 0.585230 0.208380 -0.505798
O4    O     O_R   0.596190 0.414770 0.208380 -0.553277
O5    O     O_R   0.415010 0.586420 0.976930 -0.513683
O6    O     O_R   0.415010 0.413580 0.976930 -0.511152
C1    C     C_R   0.620077 0.613476 0.384934 0.787692
C2    C     C_R   0.617364 0.384554 0.382725 0.783602
O7    O     O_3   0.440560 0.500000 0.319140 -0.375247
V1    V     V_3+5 0.511030 0.500000 0.068070 1.566011
O8    O     O_R   0.403810 0.414840 0.643540 -0.544802
O9    O     O_R   0.403810 0.585160 0.643540 -0.563478
C3    C     C_R   0.380118 0.387053 0.806119 0.748655
C4    C     C_R   0.379750 0.612936 0.806842 0.805252
V2    V     V_3+5 0.488970 0.500000 0.560620 1.488450
O10   O     O_3   0.559440 0.500000 0.859420 -0.374212
H1    H     H_    0.149362 0.776033 0.818420 0.092975
H2    H     H_    0.182210 0.199367 0.807863 0.132015
C5    C     C_2   0.311399 0.681988 0.806300 -0.395756
C6    C     C_2   0.310170 0.319869 0.799846 -0.407851
C7    C     C_2   0.259333 0.690936 0.953183 0.525100
C8    C     C_2   0.275246 0.294480 0.961808 0.533850
C9    C     C_2   0.194177 0.817069 0.107827 0.402025
C10   C     C_2   0.191932 0.183103 0.113906 0.484422
C11   C     C_2   0.196491 0.764966 0.953271 -0.306648
C12   C     C_2   0.212561 0.221511 0.951962 -0.311576
H3    H     H_    0.309077 0.728943 0.693728 0.139834
H4    H     H_    0.288155 0.289212 0.660462 0.185095
C13   C     C_R   0.706595 0.724313 0.592906 -0.051510
C14   C     C_R   0.746710 0.307115 0.583023 -0.190765
C15   C     C_R   0.695846 0.676629 0.421270 -0.319911
C16   C     C_R   0.682794 0.313043 0.411433 -0.171910
C17   C     C_R   0.762540 0.688856 0.292265 0.455071
C18   C     C_R   0.676076 0.243602 0.281956 0.383812
C19   C     C_R   0.829022 0.754164 0.327065 0.475902
C20   C     C_R   0.740779 0.176044 0.317917 0.353006
C21   C     C_R   0.828278 0.809667 0.488026 -0.323703
C22   C     C_R   0.812733 0.178056 0.482191 -0.167956
C23   C     C_R   0.770472 0.788684 0.625003 -0.054067
C24   C     C_R   0.809150 0.242065 0.617405 -0.195064
C25   C     C_3   0.705736 0.841495 0.721086 0.528386
C26   C     C_3   0.883248 0.295978 0.724298 0.542473
C27   C     C_3   0.635618 0.771250 0.685255 0.519482
C28   C     C_3   0.814584 0.367817 0.685765 0.537622
H5    H     H_    0.684086 0.899262 0.639845 -0.028219
H6    H     H_    0.901601 0.279680 0.881299 -0.044585
H7    H     H_    0.571757 0.786561 0.581844 -0.020839
H8    H     H_    0.792323 0.394603 0.819772 -0.046475
O11   O     O_R   0.921430 0.915960 0.371040 -0.507749
O12   O     O_R   0.921430 0.084040 0.371040 -0.536184
O13   O     O_R   0.910450 0.087500 0.697310 -0.566771
O14   O     O_R   0.910450 0.912500 0.697310 -0.530977
O15   O     O_R   0.091710 0.087460 0.928430 -0.564315
O16   O     O_R   0.091710 0.912540 0.928430 -0.562253
C29   C     C_R   0.885900 0.112759 0.518878 0.790482
C30   C     C_R   0.889943 0.884003 0.520075 0.770602
O17   O     O_3   0.065970 1.000000 0.586140 -0.373677
V3    V     V_3+5 0.995640 1.000000 0.837400 1.486890
O18   O     O_R   0.103020 0.915700 0.261710 -0.522042
O19   O     O_R   0.103020 0.084300 0.261710 -0.510695
C31   C     C_R   0.125102 0.885456 0.099291 0.680711
C32   C     C_R   0.124866 0.114197 0.100460 0.641007
V4    V     V_3+5 0.017940 1.000000 0.344880 1.565754
O20   O     O_3   0.947330 1.000000 0.046180 -0.371489
F1    F     F_    0.618269 0.734073 0.856029 -0.600976
F2    F     F_    0.841524 0.425996 0.559092 -0.668770
O21   O     O_3   0.244122 0.619721 0.057127 -0.573516
C33   C     C_3   0.247680 0.635705 0.258059 -0.113427
H9    H     H_    0.184334 0.669020 0.287985 0.139117
H10   H     H_    0.312887 0.668368 0.319149 0.191188
H11   H     H_    0.248560 0.575634 0.334950 0.113848
O22   O     O_3   0.300627 0.333798 0.140533 -0.502330
C34   C     C_3   0.230827 0.391878 0.167207 -0.039356
H12   H     H_    0.161891 0.361828 0.165407 0.133821
H13   H     H_    0.225899 0.441393 0.054810 0.113604
H14   H     H_    0.249656 0.421521 0.312674 0.139915
F3    F     F_    0.256545 0.809396 0.273842 -0.709618
F4    F     F_    0.231627 0.207923 0.295612 -0.654736
O23   O     O_3   0.757458 0.643967 0.119907 -0.493231
C35   C     C_3   0.801118 0.566424 0.158726 -0.074588
H15   H     H_    0.775755 0.533266 0.281053 0.133780
H16   H     H_    0.877793 0.573165 0.188985 0.124964
H17   H     H_    0.784844 0.526981 0.026336 0.149721
O24   O     O_3   0.600014 0.236107 0.136070 -0.534759
C36   C     C_3   0.620347 0.269932 0.958884 -0.135947
H18   H     H_    0.695183 0.284813 0.958295 0.053716
H19   H     H_    0.578232 0.326387 0.922174 0.159775
H20   H     H_    0.597832 0.225587 0.838295 0.146143
O25   O     O_3   0.890173 0.765363 0.194199 -0.497144
C37   C     C_3   0.978050 0.732975 0.273782 -0.195513
H21   H     H_    0.973635 0.671674 0.344429 0.098157
H22   H     H_    0.016023 0.776589 0.381608 0.117789
H23   H     H_    0.019814 0.724426 0.153364 0.144723
O26   O     O_3   0.725119 0.103307 0.211446 -0.543163
C38   C     C_3   0.763825 0.108419 0.036460 -0.068956
H24   H     H_    0.781649 0.044903 0.993558 0.190087
H25   H     H_    0.827991 0.146935 0.048707 0.080903
H26   H     H_    0.711619 0.130944 0.915795 0.118650
F5    F     F_    0.738731 0.853923 0.917401 -0.600711
F6    F     F_    0.959028 0.303243 0.625407 -0.644621

loop_
_geom_bond_atom_site_label_1
_geom_bond_atom_site_label_2
_ccdc_geom_bond_type
C14   C16   A    
O11   V4    S    
O1    C2    A    
C34   H13   S    
C34   H12   S    
C28   F2    S    
C38   H24   S    
H2    C12   S    
O4    C2    A    
O17   V3    S    
C38   H26   S    
C23   C25   S    
C36   H18   S    
C18   O24   S    
O19   V4    S    
C5    C7    D    
C10   C12   D    
O3    C1    A    
V2    O10   S    
O19   C32   A    
C26   H6    S    
C21   C30   S    
O8    V2    S    
C22   C29   S    
O2    C1    A    
C33   H9    S    
C25   F5    S    
O1    V2    S    
C5    H3    S    
O7    V1    S    
C18   C20   A    
C24   C26   S    
C7    O21   S    
O12   V4    S    
C25   C27   S    
C14   C28   S    
C26   C28   S    
C35   H17   S    
C8    O22   S    
O17   V4    S    
C36   H19   S    
V3    O20   S    
O18   C31   A    
C1    C15   S    
O21   C33   S    
C2    C16   S    
O24   C36   S    
C35   H16   S    
O22   C34   S    
C6    H4    S    
V4    O20   S    
C16   C18   A    
C26   F6    S    
O15   C32   A    
C37   H22   S    
O9    V2    S    
C27   F1    S    
C13   C23   A    
C15   C17   A    
C14   C24   A    
O13   V3    S    
C9    F3    S    
O2    V2    S    
O5    C4    A    
O14   V3    S    
C19   O25   S    
C10   F4    S    
C6    C8    D    
C34   H14   S    
O4    V1    S    
C37   H23   S    
O16   V3    S    
C36   H20   S    
C7    C11   S    
C10   C32   S    
C3    C6    S    
C19   C21   A    
C4    C5    S    
C17   O23   S    
O9    C4    A    
C35   H15   S    
O6    V1    S    
O15   V3    S    
C38   H25   S    
O16   C31   A    
O11   C30   A    
O18   V4    S    
O12   C29   A    
H1    C11   S    
C20   C22   A    
O7    V2    S    
O5    V1    S    
C21   C23   A    
O3    V1    S    
V1    O10   S    
O6    C3    A    
C22   C24   A    
O8    C3    A    
C37   H21   S    
O14   C30   A    
C33   H11   S    
C17   C19   A    
O13   C29   A    
C9    C11   D    
O26   C38   S    
O23   C35   S    
C20   O26   S    
C9    C31   S    
C13   C15   A    
C8    C12   S    
C33   H10   S    
C25   H5    S    
O25   C37   S    
C27   H7    S    
C13   C27   S    
C28   H8    S    
