data_mof_unit_65443.cif
_audit_creation_date              2013-03-05T16:32:03-0500
_audit_creation_method            fapswitch 2.2
_symmetry_space_group_name_H-M    P1
_symmetry_Int_Tables_number       1
_space_group_crystal_system       triclinic
_cell_length_a                    14.990525
_cell_length_b                    14.160276
_cell_length_c                    14.161498
_cell_angle_alpha                 89.992801
_cell_angle_beta                  90.031445
_cell_angle_gamma                 89.996222
_cell_volume                      3006.06029223

loop_
_atom_site_label
_atom_site_type_symbol
_atom_site_description
_atom_site_fract_x
_atom_site_fract_y
_atom_site_fract_z
_atom_type_partial_charge
O1    O     O_R   0.369060 0.579480 0.500010 -0.600531
O2    O     O_R   0.630940 0.420520 0.499990 -0.582147
O3    O     O_R   0.630940 0.579480 0.499990 -0.600183
O4    O     O_R   0.369060 0.420520 0.500010 -0.582413
C1    C     C_R   0.327864 0.500014 0.499952 1.035387
C2    C     C_R   0.672157 0.500007 0.500017 1.034370
O5    O     O_R   0.500000 0.579500 0.373720 -0.591644
O6    O     O_R   0.500000 0.420500 0.626280 -0.607310
O7    O     O_R   0.500000 0.579500 0.626280 -0.591756
O8    O     O_R   0.500000 0.420500 0.373720 -0.607220
C3    C     C_R   0.499973 0.500002 0.329012 0.919178
C4    C     C_R   0.500024 0.499991 0.670987 0.919008
Zn1   Zn    Zn3+2 0.500000 0.606140 0.500000 1.021452
Zn2   Zn    Zn3+2 0.500000 0.393860 0.500000 1.017992
C5    C     C_R   0.454522 0.105243 0.429883 -0.234415
C6    C     C_R   0.573676 0.894853 0.533851 -0.234081
C7    C     C_R   0.545475 0.105216 0.570114 -0.234325
C8    C     C_R   0.426327 0.894871 0.466139 -0.234208
H1    H     H_    0.419604 0.069664 0.373254 0.160968
H2    H     H_    0.632844 0.930440 0.559335 0.164146
H3    H     H_    0.580391 0.069615 0.626744 0.160980
H4    H     H_    0.367159 0.930472 0.440652 0.164057
C9    C     C_R   0.455201 0.204527 0.431343 0.069210
C10   C     C_R   0.572188 0.795566 0.533471 0.075713
C11   C     C_R   0.544794 0.204501 0.568659 0.069796
C12   C     C_R   0.427814 0.795584 0.466524 0.075164
H5    H     H_    0.420019 0.243361 0.377100 0.173730
H6    H     H_    0.629209 0.756926 0.559866 0.154723
H7    H     H_    0.579966 0.243312 0.622910 0.173878
H8    H     H_    0.370794 0.756957 0.440127 0.154572
N1    N     N_R   0.500000 0.252470 0.500000 -0.106994
N2    N     N_R   0.500000 0.747530 0.500000 -0.100650
C13   C     C_1   0.499960 0.499996 0.227609 -0.115049
C14   C     C_1   0.500027 0.499969 0.772391 -0.115312
C15   C     C_1   0.499961 0.499979 0.142416 0.049106
C16   C     C_1   0.500017 0.499954 0.857584 0.049004
C17   C     C_1   0.499977 0.499960 0.042597 0.065756
C18   C     C_1   0.499996 0.499951 0.957403 0.065740
C19   C     C_R   0.500000 0.053397 0.499996 0.122591
C20   C     C_R   0.500001 0.946696 0.499995 0.119180
C21   C     C_R   0.093482 0.557066 0.564767 0.400393
C22   C     C_R   0.906726 0.442320 0.564120 0.404710
C23   C     C_R   0.906454 0.557817 0.435250 0.400477
C24   C     C_R   0.093519 0.443353 0.434363 0.405164
C25   C     C_R   0.186129 0.556266 0.565780 0.279907
C26   C     C_R   0.814078 0.443114 0.565239 0.284872
C27   C     C_R   0.813801 0.557037 0.434459 0.279971
C28   C     C_R   0.186173 0.444080 0.433579 0.284098
C29   C     C_R   0.232041 0.500085 0.499794 -0.370568
C30   C     C_R   0.768018 0.500049 0.499906 -0.370992
C31   C     C_R   0.048104 0.500184 0.499549 -0.131135
C32   C     C_R   0.951983 0.500064 0.499600 -0.131170
Cl1   Cl    Cl    0.033975 0.628950 0.645336 -0.416544
Cl2   Cl    Cl    0.966397 0.369371 0.643703 -0.411181
Cl3   Cl    Cl    0.965787 0.630815 0.355515 -0.416456
Cl4   Cl    Cl    0.034059 0.371573 0.353605 -0.410890
Cl5   Cl    Cl    0.243744 0.622647 0.652572 -0.474224
Cl6   Cl    Cl    0.756704 0.375861 0.651506 -0.504666
Cl7   Cl    Cl    0.756058 0.624503 0.348546 -0.474129
Cl8   Cl    Cl    0.243854 0.377903 0.346744 -0.505099

loop_
_geom_bond_atom_site_label_1
_geom_bond_atom_site_label_2
_geom_bond_distance
_ccdc_geom_bond_type
O3    Zn1   1.998807 S    
C11   N1    1.362622 A    
O5    C3    1.291615 A    
C10   N2    1.363078 A    
C12   N2    1.363078 A    
C17   C18   1.206472 T    
C3    C13   1.436025 S    
C9    H5    1.081666 S    
C26   C30   1.407757 A    
Zn1   N2    2.002121 S    
C8    C12   1.406121 A    
C25   C29   1.407335 A    
Zn2   N1    2.002121 S    
O6    C4    1.291529 A    
O3    C2    1.283785 A    
C7    C11   1.406082 A    
C16   C18   1.413590 S    
O2    Zn2   1.998856 S    
C6    C10   1.406119 A    
C21   C25   1.388942 A    
C22   Cl2   1.770824 S    
C5    H1    1.081955 S    
C5    C19   1.410185 A    
C21   Cl1   1.770584 S    
O2    C2    1.284031 A    
O7    Zn1   1.827621 S    
C23   C27   1.389005 A    
C6    C20   1.409883 A    
O1    C1    1.283612 A    
C24   C31   1.401447 A    
C5    C9    1.406088 A    
C6    H2    1.081960 S    
C13   C15   1.206456 T    
C28   Cl8   1.771813 S    
C27   C30   1.407773 A    
C14   C16   1.206459 T    
O8    Zn2   1.827623 S    
O4    Zn2   1.998810 S    
C25   Cl5   1.771844 S    
O7    C4    1.291603 A    
C7    H3    1.081960 S    
C23   C32   1.401473 A    
C1    C29   1.436435 S    
O1    Zn1   1.998859 S    
O8    C3    1.291516 A    
C27   Cl7   1.772169 S    
C31   C32   1.440919 S    
C7    C19   1.410179 A    
C10   H6    1.081335 S    
O5    Zn1   1.827715 S    
C8    C20   1.409879 A    
C11   H7    1.081649 S    
C22   C26   1.388994 A    
C23   Cl3   1.770741 S    
C19   C20   1.510913 S    
C24   Cl4   1.770555 S    
C28   C29   1.407321 A    
O6    Zn2   1.827714 S    
C2    C30   1.436998 S    
C15   C17   1.413590 S    
C8    H4    1.081961 S    
C4    C14   1.436027 S    
C21   C31   1.401459 A    
C26   Cl6   1.772034 S    
C24   C28   1.389014 A    
C22   C32   1.401512 A    
O4    C1    1.283891 A    
C12   H8    1.081337 S    
C9    N1    1.362622 A    
