data_mof_unit_11459.cif
_audit_creation_date              2012-12-10T18:00:46-0500
_audit_creation_method            fapswitch 2.2
_symmetry_space_group_name_H-M    P1
_symmetry_Int_Tables_number       1
_space_group_crystal_system       triclinic
_cell_length_a                    15.867868
_cell_length_b                    10.909434
_cell_length_c                    9.501186
_cell_angle_alpha                 90.005022
_cell_angle_beta                  90.151753
_cell_angle_gamma                 90.108278
_cell_volume                      1644.73645214

loop_
_atom_site_label
_atom_site_type_symbol
_atom_type_description
_atom_site_fract_x
_atom_site_fract_y
_atom_site_fract_z
_atom_type_partial_charge
C1    C     C_R   0.492725 0.262458 0.499802 0.836593
C2    C     C_R   0.498945 0.738086 0.499414 0.842564
C3    C     C_R   0.508247 0.939332 0.372460 -0.165313
C4    C     C_R   0.462187 0.062079 0.622197 -0.140864
C5    C     C_R   0.491669 0.871993 0.496848 -0.305788
C6    C     C_R   0.481309 0.128547 0.498248 -0.326728
C7    C     C_R   0.434535 0.449783 0.074073 -0.007843
C8    C     C_R   0.564379 0.553371 0.925883 0.033854
C9    C     C_R   0.434984 0.448490 0.925349 -0.032071
C10   C     C_R   0.564495 0.552991 0.074718 -0.010555
C11   C     C_R   0.339900 0.500972 0.499866 0.787106
C12   C     C_R   0.660244 0.499589 0.500205 0.841982
C13   C     C_3   0.973715 0.391976 0.534090 0.461090
C14   C     C_3   0.027805 0.614590 0.468385 0.472931
C15   C     C_3   0.028068 0.422888 0.405318 -0.050153
C16   C     C_3   0.972966 0.583432 0.596689 -0.043723
C17   C     C_1   0.250558 0.503044 0.499835 -0.165866
C18   C     C_1   0.749889 0.499332 0.500691 -0.133442
C19   C     C_3   0.029750 0.472198 0.631200 -0.426160
C20   C     C_3   0.971306 0.534394 0.370853 -0.418204
C21   C     C_3   0.083831 0.503750 0.500878 0.055946
C22   C     C_3   0.917040 0.502107 0.501416 0.055110
C23   C     C_1   0.175223 0.504272 0.500310 0.057087
C24   C     C_1   0.825396 0.499831 0.501147 0.085599
C25   C     C_R   0.492218 0.064568 0.370408 0.468722
C26   C     C_R   0.462386 0.933605 0.618062 0.450831
Cu1   Cu    Cu3+1 0.500000 0.500020 0.640660 0.976534
Cu2   Cu    Cu3+1 0.500000 0.499980 0.359340 0.966647
H1    H     H_    0.945725 0.557642 0.265337 0.162779
H2    H     H_    0.054593 0.448266 0.737011 0.156057
H3    H     H_    0.381552 0.410912 0.129670 0.117145
H4    H     H_    0.615763 0.596746 0.870251 0.147275
H5    H     H_    0.382814 0.407057 0.869459 0.114915
H6    H     H_    0.615975 0.596112 0.130823 0.137491
N1    N     N_R   0.500020 0.500030 0.852070 -0.168844
N2    N     N_R   0.499980 0.499970 0.147930 -0.164659
O1    O     O_R   0.500000 0.319660 0.618740 -0.584252
O2    O     O_R   0.500000 0.680340 0.381260 -0.624253
O3    O     O_R   0.499990 0.319630 0.381170 -0.531165
O4    O     O_R   0.500010 0.680370 0.618830 -0.525081
O5    O     O_R   0.379080 0.500000 0.618760 -0.607161
O6    O     O_R   0.620920 0.500000 0.381240 -0.580579
O7    O     O_R   0.379080 0.499970 0.381190 -0.587348
O8    O     O_R   0.620920 0.500030 0.618810 -0.571434
C27   C     C_2   0.056364 0.331493 0.297699 0.339344
H7    H     H_    0.009798 0.279247 0.239204 0.087008
O9    O     O_2   0.131186 0.315150 0.275439 -0.577970
C28   C     C_2   0.943630 0.672519 0.705719 0.378840
H8    H     H_    0.988547 0.710168 0.780180 0.065971
O10   O     O_2   0.869595 0.701714 0.712875 -0.537571
O11   O     O_3   0.942452 0.273824 0.565323 -0.601247
C29   C     C_3   0.008166 0.202469 0.623253 0.044033
H9    H     H_    0.020570 0.231535 0.733669 0.151170
H10   H     H_    0.067395 0.211303 0.561032 0.150481
C30   C     C_3   0.982380 0.067760 0.624065 -0.289880
H11   H     H_    0.927348 0.054732 0.694684 0.242898
H12   H     H_    0.963700 0.039716 0.516028 0.218586
C31   C     C_3   0.055069 0.987312 0.674520 -0.927597
H13   H     H_    0.110840 0.998919 0.605293 0.259490
H14   H     H_    0.035761 0.889944 0.670981 0.278539
H15   H     H_    0.072695 0.011185 0.784403 0.250375
O12   O     O_3   0.064430 0.731255 0.446055 -0.629568
C32   C     C_3   0.022749 0.795651 0.337609 0.071493
H16   H     H_    0.028109 0.894834 0.361867 0.170161
H17   H     H_    0.953920 0.775401 0.331926 0.146478
C33   C     C_3   0.066384 0.772935 0.196273 -0.357840
H18   H     H_    0.133633 0.800902 0.204374 0.229511
H19   H     H_    0.064324 0.673892 0.169575 0.221943
C34   C     C_3   0.024393 0.845652 0.078307 -0.911818
H20   H     H_    0.957394 0.817670 0.066598 0.273723
H21   H     H_    0.057352 0.827660 0.977674 0.251928
H22   H     H_    0.027758 0.945472 0.100838 0.261397
O13   O     O_3   0.488225 0.122704 0.240717 -0.539778
C35   C     C_3   0.402557 0.141425 0.202576 0.139392
H23   H     H_    0.402418 0.201121 0.108326 0.186842
H24   H     H_    0.367092 0.190974 0.286102 0.108928
C36   C     C_3   0.356670 0.021760 0.162975 -0.407357
H25   H     H_    0.395266 0.969127 0.086874 0.263883
H26   H     H_    0.347036 0.964644 0.258402 0.183549
C37   C     C_3   0.270644 0.047637 0.097138 -0.878370
H27   H     H_    0.230885 0.100891 0.171157 0.281430
H28   H     H_    0.238223 0.959780 0.073160 0.253348
H29   H     H_    0.278077 0.099913 0.997583 0.255868
O14   O     O_3   0.434082 0.868166 0.733795 -0.551378
C38   C     C_3   0.346556 0.847416 0.717991 0.080095
H30   H     H_    0.332078 0.802247 0.615317 0.114779
H31   H     H_    0.311619 0.935740 0.724304 0.123572
C39   C     C_3   0.316204 0.763301 0.836062 -0.285716
H32   H     H_    0.348870 0.673650 0.828323 0.237004
H33   H     H_    0.332065 0.804708 0.939574 0.218705
C40   C     C_3   0.221183 0.742493 0.827667 -0.955795
H34   H     H_    0.187490 0.831206 0.836838 0.259967
H35   H     H_    0.200920 0.681806 0.915135 0.257407
H36   H     H_    0.203955 0.698426 0.726200 0.274598
C41   C     C_2   0.539971 0.883699 0.240057 0.500055
H37   H     H_    0.504906 0.812062 0.186644 0.064309
O15   O     O_2   0.604507 0.922309 0.186076 -0.487949
C42   C     C_2   0.435672 0.123810 0.753974 0.460107
H38   H     H_    0.394287 0.202720 0.749971 0.023445
O16   O     O_2   0.460179 0.086943 0.868178 -0.497594

loop_
_geom_bond_atom_site_label_1
_geom_bond_atom_site_label_2
_ccdc_geom_bond_type
C33   H19   S    
C30   H11   S    
C32   H17   S    
C4    C42   S    
C7    N2    A    
C41   H37   S    
C16   C28   S    
C38   H30   S    
C17   C23   T    
C35   H24   S    
C18   C24   T    
C14   C21   S    
C19   C21   S    
C36   C37   S    
C6    C25   A    
C31   H14   S    
C14   O12   S    
O13   C35   S    
C34   H21   S    
C2    O2    A    
C12   O6    A    
C13   O11   S    
Cu1   O8    S    
C35   C36   S    
C16   C22   S    
C11   O7    A    
C25   O13   S    
C29   C30   S    
C1    O1    A    
C31   H15   S    
C28   O10   D    
C33   H18   S    
C32   C33   S    
C32   H16   S    
C9    H5    S    
C37   H29   S    
C29   H10   S    
C20   H1    S    
C27   O9    D    
C15   C20   S    
C7    H3    S    
C35   H23   S    
C13   C19   S    
C38   H31   S    
C1    C6    S    
C8    H4    S    
C14   C20   S    
C3    C25   A    
O14   C38   S    
C4    C6    A    
C40   H34   S    
Cu2   O3    S    
Cu1   N1    S    
C31   H13   S    
C27   H7    S    
O11   C29   S    
C8    N1    A    
C34   H22   S    
O12   C32   S    
C40   H35   S    
Cu1   O5    S    
C39   C40   S    
Cu2   O2    S    
Cu1   O4    S    
C36   H26   S    
C10   H6    S    
C30   H12   S    
C37   H28   S    
C28   H8    S    
C39   H33   S    
C42   O16   D    
C13   C15   S    
C14   C16   S    
C2    C5    S    
C15   C27   S    
C29   H9    S    
C38   C39   S    
C7    C9    A    
C11   C17   S    
C26   O14   S    
C20   C22   S    
C37   H27   S    
C3    C5    A    
C4    C26   A    
C41   O15   D    
Cu2   O7    S    
C21   C23   S    
C12   O8    A    
C40   H36   S    
Cu1   O1    S    
C16   C19   S    
Cu2   O6    S    
C10   N2    A    
C13   C22   S    
C11   O5    A    
C22   C24   S    
C34   H20   S    
C1    O3    A    
C5    C26   A    
C33   C34   S    
C2    O4    A    
C15   C21   S    
C39   H32   S    
Cu2   N2    S    
C8    C10   A    
C42   H38   S    
C30   C31   S    
C12   C18   S    
Cu1   Cu2   S    
C9    N1    A    
C36   H25   S    
C3    C41   S    
C19   H2    S    
