data_mof_unit_23087.cif
_audit_creation_date              2012-12-10T18:11:04-0500
_audit_creation_method            fapswitch 2.2
_symmetry_space_group_name_H-M    P1
_symmetry_Int_Tables_number       1
_space_group_crystal_system       triclinic
_cell_length_a                    10.71858
_cell_length_b                    9.535894
_cell_length_c                    10.615379
_cell_angle_alpha                 90.53801
_cell_angle_beta                  90.362325
_cell_angle_gamma                 90.090857
_cell_volume                      1084.94008333

loop_
_atom_site_label
_atom_site_type_symbol
_atom_type_description
_atom_site_fract_x
_atom_site_fract_y
_atom_site_fract_z
_atom_type_partial_charge
C1    C     C_R   0.260041 0.499716 0.499839 0.748271
C2    C     C_3   0.499431 0.497842 0.122589 0.035479
C3    C     C_3   0.072737 0.574782 0.619348 -0.378416
C4    C     C_3   0.071025 0.346185 0.498255 -0.379266
C5    C     C_3   0.928691 0.574652 0.619482 -0.388355
C6    C     C_3   0.928230 0.346321 0.497913 -0.375982
C7    C     C_3   0.071311 0.574958 0.381441 -0.381050
C8    C     C_3   0.121863 0.498923 0.499719 0.176009
C9    C     C_3   0.877883 0.499168 0.499722 0.183279
C10   C     C_3   0.927273 0.575627 0.381727 -0.388217
C11   C     C_3   0.608837 0.084602 0.432080 0.179324
C12   C     C_3   0.612007 0.917062 0.434825 0.140779
C13   C     C_3   0.505892 0.084721 0.634020 0.130529
C14   C     C_3   0.505201 0.917539 0.634001 0.129525
C15   C     C_3   0.385169 0.082192 0.444668 -0.283639
C16   C     C_3   0.387268 0.916360 0.440916 -0.264712
C17   C     C_R   0.499965 0.499294 0.259674 0.782040
C18   C     C_R   0.739714 0.499862 0.499837 0.739127
C19   C     C_R   0.498401 0.500627 0.740409 0.774460
C20   C     C_3   0.387779 0.545078 0.043057 -0.176533
C21   C     C_3   0.518264 0.367861 0.038698 -0.141742
C22   C     C_3   0.406683 0.415401 0.956772 -0.177962
C23   C     C_3   0.497154 0.501686 0.877512 0.030029
C24   C     C_3   0.477962 0.631508 0.961476 -0.132680
C25   C     C_3   0.608663 0.454197 0.957164 -0.194375
C26   C     C_3   0.589754 0.584097 0.043203 -0.155344
Cu1   Cu    Cu3+1 0.499860 0.642410 0.500060 0.890661
Cu2   Cu    Cu3+1 0.499860 0.357590 0.500060 0.901046
H1    H     H_    0.301923 0.116389 0.498797 0.138471
H2    H     H_    0.301912 0.877494 0.488141 0.140280
H3    H     H_    0.370431 0.123842 0.348398 0.170973
H4    H     H_    0.381137 0.879000 0.341546 0.186863
H5    H     H_    0.420991 0.120406 0.685486 0.096440
H6    H     H_    0.420260 0.882258 0.685088 0.094410
H7    H     H_    0.297379 0.582039 0.081464 0.110597
H8    H     H_    0.534791 0.259420 0.071477 0.132094
H9    H     H_    0.664952 0.652888 0.081207 0.119567
H10   H     H_    0.108196 0.521568 0.705301 0.142795
H11   H     H_    0.105354 0.288829 0.582530 0.157500
H12   H     H_    0.894329 0.521024 0.705297 0.140845
H13   H     H_    0.894405 0.288525 0.581780 0.156394
H14   H     H_    0.106176 0.684947 0.379625 0.158477
H15   H     H_    0.105236 0.521452 0.294549 0.140797
N1    N     N_3   0.500250 0.143650 0.502780 -0.148908
N2    N     N_3   0.500250 0.856350 0.502780 -0.146754
O1    O     O_R   0.317570 0.620260 0.500070 -0.596146
O2    O     O_R   0.317570 0.379740 0.500070 -0.596691
O3    O     O_R   0.499850 0.620240 0.316900 -0.570238
O4    O     O_R   0.499850 0.379760 0.316900 -0.549631
O5    O     O_R   0.682190 0.620260 0.500030 -0.623494
O6    O     O_R   0.682190 0.379740 0.500030 -0.596914
O7    O     O_R   0.499910 0.620280 0.683200 -0.600467
O8    O     O_R   0.499910 0.379720 0.683200 -0.599182
H16   H     H_    0.331732 0.346599 0.918250 0.114664
H17   H     H_    0.893705 0.686000 0.380955 0.151354
H18   H     H_    0.891301 0.523275 0.294611 0.143266
H19   H     H_    0.696331 0.120097 0.479187 0.104455
H20   H     H_    0.698593 0.890224 0.487794 0.096180
N3    N     N_3   0.612928 0.143097 0.304742 -0.542222
H21   H     H_    0.552900 0.089583 0.242972 0.216689
H22   H     H_    0.703941 0.139922 0.269858 0.169880
N4    N     N_3   0.627922 0.855104 0.308338 -0.569553
H23   H     H_    0.673906 0.759752 0.317654 0.245176
H24   H     H_    0.696131 0.910066 0.259466 0.153956
N5    N     N_3   0.616083 0.135003 0.705925 -0.587814
H25   H     H_    0.661963 0.219003 0.665523 0.260660
H26   H     H_    0.589861 0.163195 0.797473 0.212184
N6    N     N_3   0.615870 0.869357 0.705220 -0.586810
H27   H     H_    0.658759 0.780924 0.668100 0.267365
H28   H     H_    0.592381 0.851129 0.798915 0.204606
H29   H     H_    0.457789 0.739436 0.929523 0.114118
H30   H     H_    0.699031 0.417071 0.918820 0.113094
H31   H     H_    0.107173 0.684959 0.622786 0.159996
H32   H     H_    0.104730 0.288844 0.413182 0.156984
H33   H     H_    0.894460 0.684750 0.623310 0.161806
H34   H     H_    0.893618 0.289472 0.412443 0.159601

loop_
_geom_bond_atom_site_label_1
_geom_bond_atom_site_label_2
_ccdc_geom_bond_type
Cu1   O3    S    
C7    C10   S    
Cu2   O2    S    
C1    C8    S    
C17   O3    A    
C4    C8    S    
C6    C9    S    
C7    C8    S    
C22   H16   S    
C21   H8    S    
C13   N5    S    
C13   H5    S    
C24   C26   S    
C15   N1    S    
Cu2   O6    S    
C1    O1    A    
C16   H2    S    
C15   C16   S    
C7    H14   S    
N4    H24   S    
C13   C14   S    
C20   H7    S    
C19   O7    A    
C20   C24   S    
C3    H10   S    
N6    H27   S    
N5    H26   S    
C6    H13   S    
C23   C24   S    
C7    H15   S    
C10   H18   S    
C9    C10   S    
C4    H32   S    
Cu1   O5    S    
C12   H20   S    
C19   O8    A    
N3    H21   S    
C21   C22   S    
C2    C17   S    
C11   N3    S    
C18   O6    A    
C15   H1    S    
C14   N2    S    
N3    H22   S    
C2    C20   S    
C4    C6    S    
C3    C8    S    
C17   O4    A    
C1    O2    A    
C25   C26   S    
Cu2   N1    S    
C5    H33   S    
C19   C23   S    
C5    C9    S    
N4    H23   S    
C12   N4    S    
Cu2   O4    S    
C4    H11   S    
C11   C12   S    
C2    C21   S    
C11   N1    S    
C2    C26   S    
C25   H30   S    
C15   H3    S    
C10   H17   S    
Cu1   O1    S    
C20   C22   S    
Cu1   O7    S    
C18   O5    A    
C21   C25   S    
C12   N2    S    
C3    C5    S    
C16   N2    S    
C14   H6    S    
Cu2   O8    S    
C26   H9    S    
C6    H34   S    
C16   H4    S    
Cu1   N2    S    
C23   C25   S    
C3    H31   S    
C9    C18   S    
N6    H28   S    
N5    H25   S    
C5    H12   S    
Cu1   Cu2   S    
C14   N6    S    
C22   C23   S    
C11   H19   S    
C13   N1    S    
C24   H29   S    
