data_mof_unit_36278.cif
_audit_creation_date              2012-12-11T20:37:40-0500
_audit_creation_method            fapswitch 2.2
_symmetry_space_group_name_H-M    P1
_symmetry_Int_Tables_number       1
_space_group_crystal_system       triclinic
_cell_length_a                    8.260959
_cell_length_b                    18.839483
_cell_length_c                    22.855379
_cell_angle_alpha                 97.303705
_cell_angle_beta                  89.389569
_cell_angle_gamma                 93.586708
_cell_volume                      3521.24802422

loop_
_atom_site_label
_atom_site_type_symbol
_atom_type_description
_atom_site_fract_x
_atom_site_fract_y
_atom_site_fract_z
_atom_type_partial_charge
Ba1   Ba    Ba6+2 0.849480 0.533290 0.473010 1.763138
Ba2   Ba    Ba6+2 0.340340 0.466770 0.527000 1.708355
C1    C     C_3   0.593370 0.795767 0.328990 0.526798
C2    C     C_R   0.099699 0.557561 0.939424 -0.088679
C3    C     C_R   0.051023 0.552594 0.879185 0.604143
C4    C     C_3   0.090858 0.689806 0.322375 0.287376
C5    C     C_R   0.983676 0.426604 0.877203 0.581450
C6    C     C_R   0.024994 0.430068 0.937420 -0.001572
C7    C     C_R   0.082983 0.495785 0.968761 -0.107547
C8    C     C_R   0.165820 0.622327 0.971268 0.414446
C9    C     C_R   0.203264 0.625597 0.031484 -0.116107
C10   C     C_R   0.184415 0.564580 0.061199 -0.082291
C11   C     C_R   0.125779 0.499308 0.029542 -0.055254
C12   C     C_3   0.584033 0.719966 0.345552 0.332679
C13   C     C_R   0.010509 0.368659 0.966881 -0.072974
C14   C     C_R   0.052364 0.372235 0.026287 -0.087414
C15   C     C_R   0.110436 0.437327 0.058418 -0.011763
C16   C     C_3   0.093545 0.716685 0.262472 -0.285266
C17   C     C_R   0.154889 0.441432 0.118553 0.572968
C18   C     C_R   0.224653 0.567421 0.121720 0.603132
C19   C     C_2   0.803163 0.447845 0.767426 -0.092055
C20   C     C_3   0.774024 0.426941 0.702094 -0.062867
C21   C     C_1   0.006837 0.509111 0.684671 0.039787
C22   C     C_2   0.054085 0.513006 0.740829 -0.083266
C23   C     C_3   0.527779 0.326529 0.340544 0.793503
C24   C     C_2   0.945313 0.482825 0.786372 0.204861
C25   C     C_R   0.408827 0.540611 0.232205 -0.117311
C26   C     C_R   0.453201 0.543209 0.291631 -0.035304
C27   C     C_R   0.195856 0.482951 0.313262 -0.001624
C28   C     C_3   0.203566 0.691197 0.614098 0.908698
C29   C     C_R   0.149651 0.480575 0.253733 -0.090920
C30   C     C_R   0.255740 0.509454 0.212213 0.208198
C31   C     C_2   0.875948 0.470855 0.663437 -0.280445
C32   C     C_2   0.397929 0.704610 0.483149 0.319835
C33   C     C_3   0.258828 0.753084 0.489001 0.070030
C34   C     C_3   0.366514 0.287477 0.320803 -0.288196
C35   C     C_2   0.319817 0.830471 0.487385 -0.206248
C36   C     C_2   0.475670 0.851598 0.503143 -0.094387
C37   C     C_2   0.586887 0.795336 0.515984 -0.232765
C38   C     C_1   0.532411 0.727114 0.511805 0.003302
C39   C     C_R   0.642030 0.069705 0.520277 0.457952
C40   C     C_3   0.296004 0.756591 0.646759 -0.311432
C41   C     C_R   0.535203 0.928580 0.508671 0.487173
C42   C     C_R   0.603597 0.195697 0.501589 -0.124527
C43   C     C_R   0.655513 0.268103 0.504412 0.051841
C44   C     C_R   0.901325 0.245553 0.553008 -0.014021
C45   C     C_3   0.030312 0.269598 0.683879 0.295533
C46   C     C_R   0.851177 0.172358 0.550170 -0.146336
C47   C     C_R   0.698993 0.146910 0.525336 -0.064091
C48   C     C_R   0.799349 0.293235 0.532722 -0.271037
C49   C     C_3   0.992607 0.318188 0.405140 0.302272
C50   C     C_3   0.952821 0.237912 0.389250 -0.353386
C51   C     C_3   0.684588 0.619466 0.649505 0.294728
C52   C     C_3   0.687942 0.636080 0.716368 -0.368605
C53   C     C_3   0.614754 0.378212 0.256815 0.210863
C54   C     C_3   0.710760 0.363117 0.199544 -0.135692
C55   C     C_3   0.700268 0.422992 0.160847 -0.492084
C56   C     C_3   0.079581 0.256957 0.745372 -0.300509
C57   C     C_3   0.357678 0.688035 0.926314 0.311197
C58   C     C_3   0.382339 0.745824 0.885283 -0.157118
C59   C     C_3   0.558809 0.753541 0.865335 -0.498063
C60   C     C_3   0.546213 0.277608 0.665750 0.418311
C61   C     C_3   0.513903 0.209012 0.693654 -0.350670
C62   C     C_R   0.346867 0.514396 0.331348 -0.260932
F1    F     F_    0.528404 0.795860 0.273485 -0.667080
F2    F     F_    0.384867 0.639475 0.449807 -0.730891
F3    F     F_    0.083309 0.714465 0.581396 -0.729014
H1    H     H_    0.636908 0.722379 0.390270 -0.027850
H2    H     H_    0.806704 0.605885 0.633533 0.025800
H3    H     H_    0.596979 0.572975 0.637497 0.066070
H4    H     H_    0.523914 0.830882 0.361548 -0.033283
H5    H     H_    0.777840 0.681354 0.729926 0.142311
H6    H     H_    0.721863 0.588508 0.736334 0.069032
H7    H     H_    0.566006 0.650646 0.732960 0.115991
H8    H     H_    0.454320 0.700311 0.346087 0.008063
H9    H     H_    0.509293 0.383159 0.359376 -0.127938
H10   H     H_    0.294246 0.277602 0.360122 0.082112
H11   H     H_    0.297758 0.319416 0.293253 0.064141
H12   H     H_    0.387580 0.739556 0.676416 0.077902
H13   H     H_    0.387376 0.234753 0.295009 0.120863
H14   H     H_    0.721763 0.817187 0.329102 0.023062
H15   H     H_    0.050139 0.672549 0.228338 0.118176
H16   H     H_    0.980667 0.323266 0.686755 0.009695
H17   H     H_    0.935613 0.227162 0.668167 -0.018393
H18   H     H_    0.169879 0.299822 0.764004 0.161991
H19   H     H_    0.970875 0.256951 0.774284 0.125560
H20   H     H_    0.132346 0.204010 0.743852 0.095413
H21   H     H_    0.680095 0.288063 0.664516 -0.130601
H22   H     H_    0.499232 0.268833 0.619879 0.068637
H23   H     H_    0.358112 0.789026 0.615028 0.045546
H24   H     H_    0.582697 0.165617 0.669436 0.067707
H25   H     H_    0.383143 0.191970 0.691443 0.143061
H26   H     H_    0.966346 0.667751 0.330153 0.102403
H27   H     H_    0.553467 0.217546 0.740444 0.115829
H28   H     H_    0.038920 0.323589 0.047022 0.123591
H29   H     H_    0.966392 0.317299 0.944020 0.119830
H30   H     H_    0.250040 0.676392 0.054613 0.144560
H31   H     H_    0.493337 0.562540 0.201688 0.119007
H32   H     H_    0.172430 0.537736 0.754058 0.116742
H33   H     H_    0.719141 0.426261 0.798469 0.108414
H34   H     H_    0.210850 0.790560 0.673844 0.123783
H35   H     H_    0.031903 0.456511 0.239842 0.106374
H36   H     H_    0.383021 0.515618 0.376820 0.141736
H37   H     H_    0.177142 0.646761 0.321611 0.017063
H38   H     H_    0.856076 0.459433 0.616249 0.071115
H39   H     H_    0.233904 0.869206 0.478827 0.128915
H40   H     H_    0.710915 0.810633 0.529664 0.154033
H41   H     H_    0.493172 0.177015 0.477853 0.114790
H42   H     H_    0.931322 0.135774 0.566091 0.099793
H43   H     H_    0.839839 0.349024 0.533145 0.049084
H44   H     H_    0.012356 0.761569 0.262880 0.137382
H45   H     H_    0.883635 0.344138 0.423127 0.024514
H46   H     H_    0.218866 0.735467 0.251400 0.200964
H47   H     H_    0.288876 0.660033 0.584849 -0.111086
H48   H     H_    0.662149 0.429531 0.281158 0.083028
H49   H     H_    0.485427 0.382293 0.245409 0.012607
H50   H     H_    0.839927 0.357294 0.209969 0.154832
H51   H     H_    0.661956 0.311834 0.174676 0.135491
H52   H     H_    0.572070 0.428721 0.149026 0.144798
H53   H     H_    0.770423 0.409921 0.119603 0.150375
H54   H     H_    0.751855 0.474608 0.184163 0.149075
H55   H     H_    0.394082 0.636265 0.901880 0.027202
H56   H     H_    0.088593 0.326236 0.439235 0.060204
H57   H     H_    0.436965 0.702696 0.965662 0.034271
H58   H     H_    0.303777 0.731411 0.845826 0.153986
H59   H     H_    0.346847 0.798026 0.908545 0.133125
H60   H     H_    0.638957 0.770759 0.903914 0.159583
H61   H     H_    0.572033 0.794495 0.834420 0.149495
H62   H     H_    0.597319 0.701772 0.842353 0.146046
H63   H     H_    0.862882 0.228203 0.352959 0.181146
H64   H     H_    0.902756 0.214050 0.427865 0.059265
H65   H     H_    0.063292 0.210091 0.374642 0.105855
N1    N     N_R   0.994007 0.487594 0.848567 -0.428568
N2    N     N_R   0.209897 0.506209 0.150085 -0.424851
N3    N     N_R   0.490143 0.048194 0.500275 -0.240357
N4    N     N_R   0.437821 0.979339 0.494679 -0.235866
N5    N     N_R   0.687222 0.949943 0.528781 -0.239832
N6    N     N_R   0.739583 0.018991 0.534482 -0.240308
O1    O     O_2   0.898140 0.461210 0.359840 -0.457582
O2    O     O_2   0.234290 0.246699 0.534050 -0.486646
O3    O     O_3   0.166256 0.266128 0.646526 -0.573273
O4    O     O_3   0.138540 0.461940 0.430900 -0.472250
O5    O     O_3   0.557600 0.585010 0.531050 -0.444090
O6    O     O_2   0.379790 0.327560 0.468300 -0.480267
O7    O     O_3   0.594571 0.287797 0.381971 -0.655494
O8    O     O_2   0.452653 0.474156 0.709121 -0.491649
O9    O     O_3   0.467948 0.334262 0.698500 -0.567057
O10   O     O_2   0.056572 0.606394 0.854371 -0.564835
O11   O     O_2   0.939589 0.368703 0.850073 -0.625000
O12   O     O_3   0.638861 0.680074 0.625688 -0.642912
O13   O     O_2   0.146927 0.386901 0.142514 -0.607498
O14   O     O_2   0.272078 0.624708 0.149165 -0.588717
O15   O     O_3   0.654260 0.589640 0.397760 -0.423597
O16   O     O_2   0.796188 0.550700 0.294222 -0.530336
O17   O     O_3   0.045112 0.346828 0.354128 -0.627543
O18   O     O_3   0.673112 0.675851 0.304583 -0.597081
O19   O     O_2   0.809910 0.672460 0.531740 -0.392444
O20   O     O_3   0.065030 0.625960 0.427320 -0.428521
O21   O     O_2   0.928940 0.750541 0.453239 -0.488336
O22   O     O_3   0.635027 0.322698 0.291586 -0.644464
O23   O     O_3   0.135735 0.746766 0.366020 -0.621523
O24   O     O_3   0.193256 0.683434 0.944006 -0.608024
O25   O     O_2   0.291560 0.538810 0.640200 -0.479491
O26   O     O_3   0.051160 0.538120 0.569110 -0.471926
O27   O     O_3   0.535440 0.410410 0.602240 -0.480544
O28   O     O_3   0.129785 0.651845 0.655798 -0.653579
O29   O     O_3   0.632100 0.415050 0.468960 -0.472638
O30   O     O_3   0.124670 0.374100 0.572690 -0.471287
P1    P     P_3+3 0.069200 0.440380 0.368230 1.007274
P2    P     P_3+3 0.634560 0.662100 0.548650 1.069956
P3    P     P_3+3 0.094343 0.719638 0.435503 1.074204
P4    P     P_3+3 0.120500 0.559680 0.631780 1.018184
P5    P     P_3+3 0.106164 0.281507 0.576367 0.965277
P6    P     P_3+3 0.645433 0.587663 0.321034 0.972472
P7    P     P_3+3 0.565788 0.324471 0.455689 0.940884
P8    P     P_3+3 0.556794 0.414540 0.678740 0.965019

loop_
_geom_bond_atom_site_label_1
_geom_bond_atom_site_label_2
_ccdc_geom_bond_type
C42   C47   A    
C62   H36   S    
C53   C54   S    
C40   H34   S    
C25   H31   S    
O28   P4    S    
C49   H45   S    
C22   H32   S    
Ba2   O6    S    
C54   H50   S    
C19   C24   D    
C51   H2    S    
C56   H20   S    
C32   F2    S    
C38   P2    S    
C5    C6    A    
C51   C52   S    
C17   N2    Am   
C37   H40   S    
C61   H27   S    
C49   O17   S    
C60   C61   S    
O21   P3    D    
C32   C38   D    
Ba1   O20   S    
C33   C35   S    
C22   C24   S    
C32   C33   S    
C34   H10   S    
C43   P7    S    
C36   C37   S    
O20   P3    S    
C53   H49   S    
Ba1   O29   S    
C13   C14   A    
C60   H22   S    
Ba1   P2    S    
C48   H43   S    
C49   H56   S    
C54   C55   S    
Ba1   Ba2   S    
C7    C11   A    
Ba1   O4    S    
C15   C17   A    
C5    O11   D    
C21   P4    S    
O7    P7    S    
Ba1   O26   S    
C14   C15   A    
C21   C31   D    
O8    P8    D    
C61   H25   S    
C1    H14   S    
C17   O13   D    
C21   C22   D    
O1    P1    D    
C4    H37   S    
C28   F3    S    
Ba1   O1    S    
C59   H62   S    
C55   H52   S    
C57   H55   S    
C46   H42   S    
C27   C62   A    
C57   C58   S    
C8    O24   S    
C3    O10   D    
C52   H7    S    
C33   P3    S    
O3    P5    S    
Ba2   O5    S    
C1    F1    S    
C51   H3    S    
C56   H19   S    
C16   H46   S    
C39   C47   S    
C42   H41   S    
O30   P5    S    
C4    C16   S    
C44   C46   A    
O16   P6    D    
C40   H12   S    
C49   C50   S    
C50   H65   S    
C29   H35   S    
N3    N4    A    
C31   H38   S    
C16   H44   S    
C28   O28   S    
C34   H13   S    
Ba2   O26   S    
C13   H29   S    
C19   H33   S    
O9    P8    S    
C6    C7    A    
C60   H21   S    
O15   P6    S    
C18   O14   D    
C58   C59   S    
C40   H23   S    
O23   P3    S    
C1    H4    S    
C35   C36   D    
Ba1   O5    S    
O19   P2    D    
C52   H6    S    
O17   P1    S    
C29   C30   A    
C4    O23   S    
C4    H26   S    
O18   P6    S    
C10   C18   A    
C23   O22   S    
C3    N1    Am   
C44   P5    S    
Ba1   O19   S    
C59   H60   S    
C45   H17   S    
Ba1   O15   S    
O25   P4    D    
Ba2   O27   S    
C39   N6    A    
C1    C12   S    
O4    P1    S    
C26   C62   A    
C46   C47   A    
C6    C13   A    
C45   H16   S    
C60   O9    S    
C55   H53   S    
C51   O12   S    
Ba2   O4    S    
O26   P4    S    
C2    C8    A    
C56   H18   S    
Ba2   O30   S    
C39   N3    A    
C42   C43   A    
O29   P7    S    
C28   H47   S    
C57   H57   S    
C20   C31   S    
C44   C48   A    
C58   H58   S    
C14   H28   S    
C12   O18   S    
C25   C30   A    
O2    P5    D    
C50   H64   S    
C54   H51   S    
O5    P2    S    
C2    C3    A    
Ba2   O25   S    
C20   P8    S    
C9    C10   A    
C5    N1    Am   
N5    N6    A    
C45   O3    S    
O27   P8    S    
C11   C15   A    
C9    H30   S    
C23   H9    S    
C50   H63   S    
C12   H8    S    
C58   H59   S    
C35   H39   S    
C27   C29   A    
C24   N1    S    
C34   H11   S    
C45   C56   S    
C30   N2    S    
C53   O22   S    
C26   P6    S    
O12   P2    S    
C53   H48   S    
C43   C48   A    
O6    P7    D    
Ba1   P1    S    
C16   H15   S    
C27   P1    S    
C41   N5    A    
C59   H61   S    
C41   N4    A    
C8    C9    A    
C23   C34   S    
C55   H54   S    
C37   C38   D    
C36   C41   S    
C52   H5    S    
C10   C11   A    
C61   H24   S    
C25   C26   A    
C57   O24   S    
C12   H1    S    
C28   C40   S    
C23   O7    S    
C18   N2    Am   
C2    C7    A    
C19   C20   S    
Ba2   O29   S    
Ba2   P4    S    
