data_mof_unit_43577.cif
_audit_creation_date              2012-12-10T20:34:53-0500
_audit_creation_method            fapswitch 2.2
_symmetry_space_group_name_H-M    P1
_symmetry_Int_Tables_number       1
_space_group_crystal_system       triclinic
_cell_length_a                    10.61703
_cell_length_b                    10.691745
_cell_length_c                    9.860047
_cell_angle_alpha                 89.145772
_cell_angle_beta                  90.241395
_cell_angle_gamma                 90.574329
_cell_volume                      1119.0692084

loop_
_atom_site_label
_atom_site_type_symbol
_atom_type_description
_atom_site_fract_x
_atom_site_fract_y
_atom_site_fract_z
_atom_type_partial_charge
C1    C     C_R   0.503822 0.259746 0.500580 0.876280
C2    C     C_3   0.878640 0.511080 0.499100 0.061324
C3    C     C_3   0.928123 0.605923 0.605868 0.348571
C4    C     C_3   0.927097 0.552522 0.355889 -0.460391
C5    C     C_R   0.537962 0.061186 0.621107 0.132663
C6    C     C_R   0.524374 0.128276 0.499922 -0.108180
C7    C     C_R   0.536524 0.066584 0.375736 -0.247486
C8    C     C_R   0.536918 0.937320 0.374578 -0.231469
C9    C     C_R   0.525352 0.871146 0.497600 -0.090670
C10   C     C_R   0.537982 0.933541 0.619658 0.134948
C11   C     C_3   0.463071 0.921168 0.746833 -0.472226
C12   C     C_R   0.258051 0.505415 0.499673 0.872848
C13   C     C_3   0.462584 0.062566 0.748667 -0.514946
C14   C     C_R   0.395500 0.461162 0.071605 0.252074
C15   C     C_R   0.598549 0.548795 0.071584 -0.164083
C16   C     C_R   0.598656 0.548584 0.927635 -0.138608
C17   C     C_R   0.395171 0.462806 0.928669 0.152960
C18   C     C_3   0.335325 0.337171 0.922291 -0.594787
C19   C     C_3   0.338712 0.332705 0.076211 0.277135
C20   C     C_R   0.504372 0.739953 0.499069 0.875737
C21   C     C_R   0.742161 0.506003 0.499854 0.901522
C22   C     C_3   0.071570 0.378174 0.539202 -0.501800
C23   C     C_3   0.927061 0.378056 0.535302 -0.523625
C24   C     C_3   0.073283 0.601892 0.608518 -0.471082
C25   C     C_3   0.070056 0.542512 0.353025 0.350481
C26   C     C_3   0.122003 0.510292 0.499122 -0.002034
H1    H     H_    0.104212 0.351027 0.642947 0.201728
H2    H     H_    0.896014 0.648925 0.330076 0.213530
H3    H     H_    0.114816 0.696849 0.598775 0.154029
H4    H     H_    0.536423 0.116792 0.279524 0.166003
H5    H     H_    0.536661 0.890382 0.277954 0.172323
H6    H     H_    0.368080 0.879137 0.730128 0.201043
H7    H     H_    0.518443 0.878609 0.831314 0.202474
H8    H     H_    0.366997 0.102028 0.732932 0.201943
H9    H     H_    0.518109 0.100509 0.834827 0.198164
H10   H     H_    0.679020 0.586372 0.125502 0.154708
H11   H     H_    0.107674 0.306313 0.469035 0.179509
H12   H     H_    0.679269 0.585802 0.873220 0.135774
H13   H     H_    0.239005 0.340856 0.877726 0.220004
H14   H     H_    0.398628 0.269105 0.876260 0.181524
H15   H     H_    0.404657 0.262693 0.121422 0.063367
H16   H     H_    0.892632 0.309817 0.459139 0.189940
H17   H     H_    0.890345 0.346596 0.635936 0.193054
H18   H     H_    0.103333 0.568527 0.711101 0.168528
H19   H     H_    0.892533 0.575087 0.707838 0.068002
H20   H     H_    0.088168 0.457683 0.293056 0.192388
H21   H     H_    0.887457 0.490940 0.275714 0.160782
N1    N     N_R   0.499150 0.499140 0.142800 -0.141948
N2    N     N_R   0.499150 0.499180 0.857150 -0.102577
O1    O     O_R   0.500020 0.316790 0.614690 -0.611898
O2    O     O_R   0.500000 0.316760 0.385350 -0.633124
O3    O     O_R   0.314800 0.500000 0.614670 -0.624997
O4    O     O_R   0.314790 0.499960 0.385330 -0.571051
O5    O     O_R   0.500000 0.683240 0.614650 -0.621817
O6    O     O_R   0.499980 0.683210 0.385310 -0.619301
O7    O     O_R   0.685210 0.500040 0.614670 -0.642163
O8    O     O_R   0.685200 0.500000 0.385330 -0.634486
Zn1   Zn    Zn3+2 0.500010 0.500020 0.653130 0.935574
Zn2   Zn    Zn3+2 0.499990 0.499980 0.346870 0.964415
O9    O     O_3   0.886875 0.728113 0.570534 -0.636697
C27   C     C_3   0.872861 0.802181 0.686835 0.078363
H22   H     H_    0.950475 0.787712 0.761810 0.131573
H23   H     H_    0.781119 0.779591 0.735926 0.152107
C28   C     C_3   0.874383 0.939475 0.643943 -0.832947
H24   H     H_    0.802046 0.956899 0.564487 0.268459
H25   H     H_    0.854448 0.998778 0.732680 0.206625
H26   H     H_    0.968344 0.965509 0.602508 0.241360
O10   O     O_3   0.216399 0.332553 0.131585 -0.586454
C29   C     C_3   0.176641 0.207743 0.156385 0.096784
H27   H     H_    0.216348 0.174458 0.254879 0.141477
H28   H     H_    0.206222 0.143203 0.074669 0.143645
C30   C     C_3   0.033570 0.201821 0.163351 -0.871487
H29   H     H_    0.992334 0.236759 0.066436 0.258540
H30   H     H_    0.002036 0.103599 0.180938 0.216404
H31   H     H_    0.998980 0.259443 0.247556 0.241727
O11   O     O_3   0.130110 0.639379 0.274960 -0.589055
C31   C     C_3   0.142623 0.754806 0.341228 0.147851
H32   H     H_    0.221496 0.750717 0.415301 0.127783
H33   H     H_    0.054055 0.783075 0.390872 0.184721
C32   C     C_3   0.176771 0.855686 0.237152 -0.864559
H34   H     H_    0.100288 0.865030 0.160579 0.250520
H35   H     H_    0.190076 0.946392 0.288812 0.197491
H36   H     H_    0.265818 0.831562 0.185306 0.265167

loop_
_geom_bond_atom_site_label_1
_geom_bond_atom_site_label_2
_ccdc_geom_bond_type
O6    Zn2   S    
C29   C30   S    
C4    C25   S    
O4    Zn2   S    
C7    C8    A    
C31   H32   S    
C23   H16   S    
C24   C26   S    
C13   H9    S    
C20   O6    A    
O5    Zn1   S    
C5    C6    A    
C32   H34   S    
O8    Zn2   S    
C15   C16   A    
C23   H17   S    
C29   H28   S    
C18   C19   S    
C27   H23   S    
C18   H14   S    
C24   H3    S    
C12   O3    A    
C8    C9    A    
C1    O1    A    
C5    C13   S    
C12   O4    A    
C3    O9    S    
C7    H4    S    
C14   C17   A    
C3    C24   S    
C29   H27   S    
C15   N1    A    
C30   H31   S    
C4    H2    S    
C31   H33   S    
C1    C6    S    
O1    Zn1   S    
C28   H26   S    
C11   H7    S    
C16   N2    A    
C20   O5    A    
C17   N2    A    
O10   C29   S    
C14   N1    A    
C25   C26   S    
C22   H11   S    
C3    H19   S    
N2    Zn1   S    
C12   C26   S    
O9    C27   S    
C28   H25   S    
C27   C28   S    
C2    C4    S    
C18   H13   S    
C21   O8    A    
C9    C20   S    
C2    C21   S    
C17   C18   S    
C19   O10   S    
O11   C31   S    
C1    O2    A    
O3    Zn1   S    
C30   H30   S    
C11   H6    S    
C22   H1    S    
C24   H18   S    
O2    Zn2   S    
C15   H10   S    
N1    Zn2   S    
C32   H36   S    
C9    C10   A    
C31   C32   S    
C8    H5    S    
C14   C19   S    
C30   H29   S    
C21   O7    A    
C6    C7    A    
C25   O11   S    
C28   H24   S    
C2    C3    S    
C5    C10   A    
C11   C13   S    
C32   H35   S    
O7    Zn1   S    
C27   H22   S    
C10   C11   S    
C13   H8    S    
C22   C26   S    
C2    C23   S    
C22   C23   S    
C25   H20   S    
C19   H15   S    
C16   H12   S    
C4    H21   S    
