data_mof_unit_18544.cif
_audit_creation_date              2013-03-05T16:14:48-0500
_audit_creation_method            fapswitch 2.2
_symmetry_space_group_name_H-M    P1
_symmetry_Int_Tables_number       1
_space_group_crystal_system       triclinic
_cell_length_a                    8.290173
_cell_length_b                    17.228543
_cell_length_c                    19.078235
_cell_angle_alpha                 102.634558
_cell_angle_beta                  91.239972
_cell_angle_gamma                 98.58682
_cell_volume                      2624.94416353

loop_
_atom_site_label
_atom_site_type_symbol
_atom_site_description
_atom_site_fract_x
_atom_site_fract_y
_atom_site_fract_z
_atom_type_partial_charge
P1    P     P_3+3 0.040700 0.421000 0.332140 0.460924
O1    O     O_2   0.873520 0.443690 0.322540 -0.372609
O2    O     O_3   0.122020 0.450920 0.411670 -0.408910
O3    O     O_3   0.663590 0.591680 0.375790 -0.365738
O4    O     O_2   0.718481 0.527053 0.246670 -0.417626
O5    O     O_3   0.018319 0.316721 0.300206 -0.567652
O6    O     O_3   0.725661 0.684073 0.269768 -0.494159
H1    H     H_    0.669137 0.752242 0.366607 0.102240
C1    C     C_3   0.712762 0.825537 0.289228 -0.944152
H2    H     H_    0.836262 0.849258 0.315475 0.268830
H3    H     H_    0.717450 0.817846 0.229995 0.274181
P2    P     P_3+3 0.677490 0.686860 0.568200 0.460606
P3    P     P_3+3 0.146785 0.738090 0.424856 0.472876
O7    O     O_2   0.853350 0.696990 0.547450 -0.368737
O8    O     O_3   0.086060 0.635230 0.414460 -0.367513
O9    O     O_2   0.071324 0.782462 0.492686 -0.372225
O10   O     O_3   0.686806 0.715760 0.662159 -0.564088
O11   O     O_3   0.061705 0.766850 0.351704 -0.533162
C2    C     C_3   0.110592 0.720342 0.287495 0.294293
H4    H     H_    0.019716 0.664688 0.269854 0.168728
H5    H     H_    0.231625 0.701434 0.293350 -0.022371
C3    C     C_3   0.122808 0.769828 0.229699 -0.132088
H6    H     H_    0.024250 0.807321 0.233763 0.156188
C4    C     C_3   0.248045 0.712819 0.631218 0.425241
H7    H     H_    0.361896 0.688981 0.616163 0.098313
H8    H     H_    0.157151 0.694706 0.584745 0.139252
C5    C     C_3   0.285179 0.804355 0.651758 -0.932414
H9    H     H_    0.380755 0.824122 0.696445 0.264427
H10   H     H_    0.329521 0.828225 0.604953 0.230013
H11   H     H_    0.172731 0.829319 0.669090 0.266683
Ba1   Ba    Ba6+2 0.854170 0.535040 0.467640 1.559225
C6    C     C_3   0.951546 0.276812 0.351183 0.429947
H12   H     H_    0.823763 0.287372 0.358022 0.091721
H13   H     H_    0.025593 0.296835 0.403004 0.113955
C7    C     C_3   0.952718 0.187188 0.322227 -0.965806
H14   H     H_    0.885790 0.166880 0.268697 0.267938
H15   H     H_    0.892654 0.151510 0.358619 0.228494
H16   H     H_    0.080866 0.175606 0.316804 0.268039
C8    C     C_3   0.752280 0.658344 0.690579 0.442758
H17   H     H_    0.879717 0.657800 0.675476 0.094145
H18   H     H_    0.679790 0.597645 0.670528 0.132436
C9    C     C_3   0.750480 0.681238 0.772230 -0.931749
H19   H     H_    0.828748 0.740468 0.793252 0.260044
H20   H     H_    0.797677 0.635238 0.796050 0.217222
H21   H     H_    0.623584 0.685156 0.788657 0.274554
P4    P     P_3+3 0.149010 0.579070 0.667870 0.461330
O12   O     O_2   0.316180 0.556340 0.677510 -0.326706
O13   O     O_3   0.067690 0.549150 0.588340 -0.420767
O14   O     O_3   0.526120 0.408390 0.624220 -0.341307
O15   O     O_3   0.187081 0.684546 0.690353 -0.568539
P5    P     P_3+3 0.065870 0.258691 0.569592 0.468963
O16   O     O_3   0.608980 0.401570 0.457310 -0.402360
O17   O     O_3   0.103650 0.364840 0.585560 -0.374224
O18   O     O_2   0.219584 0.226682 0.537751 -0.359920
O19   O     O_3   0.055213 0.223810 0.649916 -0.568225
Ba2   Ba    Ba6+2 0.335670 0.465030 0.532370 1.560020
P6    P     P_3+3 0.627420 0.593467 0.286733 0.434328
C10   C     C_3   0.646860 0.745754 0.307829 0.467783
H22   H     H_    0.513656 0.733216 0.293115 0.004279
H23   H     H_    0.631400 0.870262 0.309303 0.210376
O20   O     O_3   0.580730 0.598500 0.542710 -0.407361
C11   C     C_3   0.464727 0.351542 0.308383 0.449137
H24   H     H_    0.353572 0.372233 0.331867 0.088402
H25   H     H_    0.570967 0.400123 0.325290 0.139258
C12   C     C_3   0.442475 0.333150 0.226741 -0.990428
H26   H     H_    0.331061 0.287992 0.208290 0.273630
H27   H     H_    0.429853 0.388842 0.208427 0.220182
H28   H     H_    0.550521 0.309169 0.202316 0.266712
P7    P     P_3+3 0.513592 0.301864 0.423702 0.442144
O21   O     O_2   0.336360 0.303040 0.452600 -0.350264
O22   O     O_3   0.490583 0.281365 0.329724 -0.572626
H29   H     H_    0.241790 0.811352 0.238410 0.104295
C13   C     C_3   0.943630 0.260032 0.696869 1.151042
H30   H     H_    0.926345 0.320519 0.688169 -0.091857
C14   C     C_3   0.020242 0.274480 0.773012 -0.962320
H31   H     H_    0.119742 0.327300 0.783633 0.252813
H32   H     H_    0.927042 0.285937 0.813277 0.220128
H33   H     H_    0.069025 0.219382 0.780201 0.250926
P8    P     P_3+3 0.562615 0.426451 0.717868 0.433627
C15   C     C_3   0.456674 0.307088 0.778163 0.381702
H34   H     H_    0.587403 0.302411 0.770609 0.067469
O23   O     O_2   0.528282 0.513329 0.742814 -0.403868
O24   O     O_3   0.407883 0.375845 0.760190 -0.509438
H35   H     H_    0.381099 0.252588 0.743352 0.118596
H36   H     H_    0.517697 0.280034 0.881311 0.245954
C16   C     C_3   0.421981 0.306161 0.856787 -1.021975
H37   H     H_    0.301942 0.268634 0.860348 0.257026
H38   H     H_    0.419009 0.368503 0.888623 0.270939
C17   C     C_R   0.061900 0.544576 0.804710 -0.309127
H39   H     H_    0.158005 0.593623 0.828270 0.159468
C18   C     C_R   0.023276 0.530932 0.729998 0.293094
C19   C     C_R   0.845091 0.436801 0.811184 -0.330255
H40   H     H_    0.786322 0.389544 0.834533 0.129342
C20   C     C_R   0.781806 0.441822 0.743813 0.203161
C21   C     C_R   0.345248 0.572949 0.194000 -0.282691
H41   H     H_    0.400803 0.623220 0.173031 0.173070
C22   C     C_R   0.408704 0.565854 0.260490 0.179647
C23   C     C_R   0.136076 0.460518 0.196908 -0.350486
H42   H     H_    0.042205 0.410994 0.171822 0.153470
C24   C     C_R   0.169189 0.473762 0.272317 0.348357
C25   C     C_R   0.982554 0.492001 0.846696 0.123749
C26   C     C_R   0.880338 0.481341 0.701073 -0.378650
H43   H     H_    0.837873 0.479040 0.646495 0.147550
C27   C     C_R   0.215412 0.514989 0.156085 0.087738
C28   C     C_R   0.312078 0.523677 0.302329 -0.421550
H44   H     H_    0.354508 0.525159 0.356702 0.155109
C29   C     C_R   0.761362 0.455323 0.965212 -0.182068
C30   C     C_R   0.660085 0.429304 0.015368 -0.148929
C31   C     C_R   0.714377 0.447269 0.086387 -0.121021
C32   C     C_R   0.872721 0.485985 0.105384 -0.061229
C33   C     C_R   0.990304 0.491229 0.053860 0.080295
C34   C     C_R   0.932152 0.479894 0.980133 0.103221
C35   C     C_R   0.159238 0.512438 0.076757 -0.014656
C36   C     C_R   0.269039 0.529467 0.022717 0.112872
C37   C     C_R   0.212068 0.517029 0.948349 0.064549
C38   C     C_R   0.042041 0.495272 0.925583 -0.054665
C39   C     C_R   0.437812 0.558296 0.039439 -0.129800
C40   C     C_R   0.539410 0.585097 0.989846 -0.072669
C41   C     C_R   0.488327 0.565199 0.918066 -0.129449
C42   C     C_R   0.331791 0.524218 0.897357 -0.165347
H45   H     H_    0.697293 0.461565 0.918253 0.146710
H46   H     H_    0.532329 0.406143 0.001673 0.137782
H47   H     H_    0.629391 0.437127 0.126784 0.155807
H48   H     H_    0.903432 0.513084 0.160774 0.189300
H49   H     H_    0.500547 0.556095 0.088181 0.135809
H50   H     H_    0.665452 0.611414 0.005670 0.164620
H51   H     H_    0.574382 0.576303 0.878254 0.163084
H52   H     H_    0.306673 0.498645 0.840843 0.202852
C43   C     C_2   0.444162 0.718673 0.482982 -0.415979
C44   C     C_3   0.373005 0.759611 0.430443 0.118590
C45   C     C_2   0.435888 0.848041 0.443880 -0.242796
C46   C     C_2   0.574287 0.880030 0.485292 0.113500
C47   C     C_2   0.650217 0.827989 0.525821 -0.262700
C48   C     C_1   0.582210 0.752007 0.521017 0.307899
C49   C     C_R   0.838270 0.130140 0.490706 -0.273788
C50   C     C_R   0.885671 0.213774 0.509423 0.234325
C51   C     C_R   0.630119 0.232433 0.455933 0.299389
C52   C     C_R   0.580822 0.148831 0.437736 -0.262708
C53   C     C_R   0.682403 0.097323 0.457254 0.105205
C54   C     C_2   0.649995 0.965732 0.492847 -0.144771
C55   C     C_2   0.619411 0.010333 0.445334 -0.166528
C56   C     C_R   0.781355 0.264379 0.492584 -0.537749
H53   H     H_    0.537364 0.984656 0.398330 0.125324
H54   H     H_    0.760824 0.853099 0.559746 0.158628
H55   H     H_    0.918299 0.091653 0.505977 0.161121
H56   H     H_    0.732221 0.992901 0.539780 0.144743
H57   H     H_    0.371578 0.883400 0.415687 0.139714
H58   H     H_    0.462949 0.124174 0.409716 0.143844
H59   H     H_    0.389219 0.657150 0.481797 0.159389
H60   H     H_    0.818592 0.329009 0.508109 0.176052
O25   O     O_3   0.793150 0.205734 0.694624 -0.644079
C57   C     C_3   0.677131 0.213989 0.642005 -0.256428
H61   H     H_    0.666858 0.161258 0.597020 0.187421
H62   H     H_    0.698568 0.272495 0.624486 0.100657
H63   H     H_    0.552802 0.208696 0.662665 0.151822
N1    N     N_R   0.109580 0.717382 0.157773 0.245783
O26   O     O_R   0.230733 0.721359 0.115636 -0.397255
O27   O     O_R   0.969258 0.674520 0.132119 -0.397837

loop_
_geom_bond_atom_site_label_1
_geom_bond_atom_site_label_2
_geom_bond_distance
_ccdc_geom_bond_type
O5    C6    1.388255 S    
C51   C56   1.396940 A    
C5    H10   1.109658 S    
C13   H30   1.119500 S    
Ba1   O20   2.929305 S    
C21   H41   1.078290 S    
C4    C5    1.521458 S    
Ba1   O16   2.801232 S    
C15   H35   1.117494 S    
O2    Ba2   2.819373 S    
C36   C37   1.445609 A    
C49   C50   1.399223 A    
C8    H18   1.108355 S    
C3    N1    1.460461 S    
H36   C16   1.110803 S    
C49   C53   1.408888 A    
C24   C28   1.386235 A    
P3    O11   1.747854 S    
N1    O26   1.303152 A    
C7    H15   1.103680 S    
C4    H8    1.109555 S    
C1    C10   1.520296 S    
C55   H53   1.082919 S    
O10   C8    1.396190 S    
C16   H38   1.116379 S    
C37   C38   1.435442 A    
C23   H42   1.081487 S    
P1    Ba1   3.434033 S    
C30   C31   1.372127 A    
P1    O1    1.513059 D    
C29   C34   1.419791 A    
P7    O22   1.750355 S    
C32   C33   1.406644 A    
C50   C56   1.395305 A    
O16   P7    1.754373 S    
C32   H48   1.066081 S    
C40   C41   1.377832 A    
C33   C34   1.439235 A    
C52   H58   1.084075 S    
C46   C47   1.499586 S    
C49   H55   1.082697 S    
O3    P6    1.726613 S    
C11   H25   1.108944 S    
P3    C44   1.852670 S    
C45   H57   1.082847 S    
Ba1   Ba2   4.559576 S    
C17   C18   1.414462 A    
C1    H2    1.108752 S    
O7    Ba1   2.872464 S    
O6    C10   1.404859 S    
H1    C10   1.110903 S    
O25   C57   1.419378 S    
P2    C48   1.835741 S    
C13   O25   1.436982 S    
C5    H11   1.110942 S    
C4    O15   1.398960 S    
C13   C14   1.526541 S    
P7    O21   1.581848 D    
C9    H20   1.109119 S    
C15   O24   1.413923 S    
P1    C24   1.865711 S    
C3    H29   1.114690 S    
C8    C9    1.521956 S    
P7    C51   1.839392 S    
P4    O13   1.591283 S    
P1    O5    1.746427 S    
O3    Ba1   2.758215 S    
C6    C7    1.523493 S    
C7    H16   1.112735 S    
C54   C55   1.352535 D    
P8    C20   1.837703 S    
C35   C36   1.439023 A    
C54   H56   1.086486 S    
C8    H17   1.101914 S    
C16   H37   1.114874 S    
O11   C2    1.412792 S    
P4    C18   1.845154 S    
C12   H27   1.108464 S    
C10   H22   1.110737 S    
C43   C48   1.323480 D    
O1    Ba1   2.890429 S    
P1    O2    1.591283 S    
C9    H21   1.111611 S    
C6    H13   1.111114 S    
P2    O10   1.749083 S    
C14   H31   1.112444 S    
C43   H59   1.084608 S    
C11   H24   1.105915 S    
C1    H3    1.110885 S    
P5    C50   1.827618 S    
C57   H63   1.109622 S    
C29   C30   1.389796 A    
C12   H28   1.111097 S    
P6    C22   1.834011 S    
C2    C3    1.530765 S    
C19   C20   1.402789 A    
C33   C35   1.427102 A    
C21   C22   1.399632 A    
C4    H7    1.103573 S    
O2    Ba1   2.925391 S    
C14   H32   1.109475 S    
C19   C25   1.422395 A    
C57   H62   1.120601 S    
C12   H26   1.110793 S    
Ba2   O21   2.872641 S    
Ba1   O13   2.818729 S    
P3    O8    1.734568 S    
P2    Ba1   3.426077 S    
C47   C48   1.328444 D    
C9    H19   1.111385 S    
C29   H45   1.065329 S    
C18   C26   1.379049 A    
C45   C46   1.351231 D    
C34   C38   1.439724 A    
C21   C27   1.417142 A    
C43   C44   1.502697 S    
C51   C52   1.400528 A    
O17   Ba2   2.751067 S    
O13   Ba2   2.926298 S    
P4    O12   1.513389 D    
C47   H54   1.086388 S    
C11   C12   1.521424 S    
C17   C25   1.434249 A    
Ba2   O20   2.800560 S    
C31   H47   1.080076 S    
C30   H46   1.079549 S    
C15   H34   1.108864 S    
P8    O23   1.539257 D    
C41   C42   1.385938 A    
C42   H52   1.074723 S    
O8    Ba1   2.750306 S    
C46   C54   1.490317 S    
O14   Ba2   2.757556 S    
C28   H44   1.081843 S    
P4    O15   1.751487 S    
C23   C24   1.420486 A    
O4    P6    1.537421 D    
P5    O18   1.547199 D    
C6    H12   1.107008 S    
C1    H23   1.110262 S    
C2    H4    1.110113 S    
N1    O27   1.303397 A    
C44   C45   1.498266 S    
P2    O7    1.513902 D    
C22   C28   1.383633 A    
C31   C32   1.382620 A    
P8    O24   1.753963 S    
P2    O20   1.578606 S    
C53   C55   1.477357 S    
C56   H60   1.082579 S    
C23   C27   1.441333 A    
C19   H40   1.071563 S    
C11   O22   1.400878 S    
P5    O19   1.763576 S    
C26   H43   1.082411 S    
C14   H33   1.119211 S    
C36   C39   1.417724 A    
C52   C53   1.410487 A    
C27   C35   1.563194 S    
O19   C13   1.418192 S    
O14   P8    1.756620 S    
C15   C16   1.536480 S    
C57   H61   1.096269 S    
C20   C26   1.378868 A    
C37   C42   1.415861 A    
P3    O9    1.547729 D    
P4    Ba2   3.434627 S    
C5    H9    1.110766 S    
C25   C38   1.560103 S    
C3    H6    1.108744 S    
C7    H14   1.111043 S    
C40   H50   1.083306 S    
P5    O17   1.765362 S    
C17   H39   1.080815 S    
C39   C40   1.388258 A    
C39   H49   1.066327 S    
O6    P6    1.748593 S    
O16   Ba2   2.928319 S    
O12   Ba2   2.891018 S    
C2    H5    1.110881 S    
C41   H51   1.081067 S    
