data_mof_unit_11974.cif
_audit_creation_date              2012-12-11T15:55:50-0500
_audit_creation_method            fapswitch 2.2
_symmetry_space_group_name_H-M    P1
_symmetry_Int_Tables_number       1
_space_group_crystal_system       triclinic
_cell_length_a                    6.948355
_cell_length_b                    14.542067
_cell_length_c                    16.103807
_cell_angle_alpha                 89.986732
_cell_angle_beta                  89.976861
_cell_angle_gamma                 90.015637
_cell_volume                      1627.18388302

loop_
_atom_site_label
_atom_site_type_symbol
_atom_type_description
_atom_site_fract_x
_atom_site_fract_y
_atom_site_fract_z
_atom_type_partial_charge
O1    O     O_R   0.505680 0.583900 0.413320 -0.545253
O2    O     O_R   0.176010 0.594950 0.586080 -0.538196
O3    O     O_R   0.005680 0.416100 0.586680 -0.544592
C1    C     C_R   0.345203 0.616626 0.615395 0.777087
O4    O     O_R   0.175960 0.594930 0.413930 -0.545134
O5    O     O_R   0.005640 0.416080 0.413300 -0.546787
C2    C     C_R   0.345027 0.617008 0.385132 0.717547
O6    O     O_R   0.505720 0.583920 0.586700 -0.497860
O7    O     O_3   0.339190 0.441320 0.500000 -0.389947
V1    V     V_3+5 0.064350 0.510890 0.500000 1.451822
O8    O     O_R   0.675920 0.405050 0.413920 -0.548983
C3    C     C_R   0.844985 0.382726 0.385080 0.668971
O9    O     O_R   0.675960 0.405070 0.586070 -0.538714
C4    C     C_R   0.845207 0.381905 0.613945 0.728801
V2    V     V_3+5 0.564340 0.489110 0.500000 1.457746
O10   O     O_3   0.839370 0.558680 0.500000 -0.354166
C5    C     C_R   0.017781 0.309210 0.734461 0.091868
C6    C     C_R   0.855578 0.314705 0.683222 -0.123295
C7    C     C_R   0.702897 0.254604 0.700542 -0.192894
H1    H     H_    0.581888 0.252611 0.659231 0.182317
C8    C     C_R   0.712380 0.191728 0.766938 -0.167911
H2    H     H_    0.595719 0.143487 0.775485 0.132572
C9    C     C_R   0.876571 0.186601 0.818024 -0.098321
C10   C     C_R   0.026697 0.248311 0.801758 0.065871
C11   C     C_3   0.232189 0.225492 0.785896 -0.393419
C12   C     C_3   0.220763 0.287448 0.710228 0.018711
H3    H     H_    0.253720 0.151374 0.771488 0.173809
H4    H     H_    0.327489 0.253088 0.835402 0.156048
H5    H     H_    0.318314 0.348050 0.712625 0.143234
C13   C     C_R   0.046619 0.223959 0.218132 -0.148934
H6    H     H_    0.187150 0.205121 0.194575 0.115448
C14   C     C_R   0.035481 0.287516 0.283334 -0.146860
H7    H     H_    0.168007 0.315800 0.307789 0.117979
C15   C     C_R   0.856190 0.314248 0.316323 -0.041456
C16   C     C_R   0.688378 0.275505 0.282245 -0.150293
H8    H     H_    0.547847 0.294321 0.305818 0.115565
C17   C     C_R   0.699518 0.211947 0.217044 -0.150193
H9    H     H_    0.566993 0.183642 0.192608 0.115274
C18   C     C_R   0.878792 0.185323 0.183971 -0.044357
C19   C     C_R   0.194834 0.735039 0.709106 -0.188531
H10   H     H_    0.058715 0.726227 0.677381 0.217037
C20   C     C_R   0.205927 0.798784 0.774097 -0.188410
H11   H     H_    0.077908 0.837260 0.790276 0.210287
C21   C     C_R   0.379889 0.813507 0.816908 -0.270469
C22   C     C_R   0.542729 0.762018 0.793154 0.554071
C23   C     C_R   0.531729 0.698300 0.728199 0.542430
C24   C     C_R   0.357466 0.684184 0.684853 -0.276160
C25   C     C_R   0.207495 0.749148 0.304281 -0.197870
H12   H     H_    0.083962 0.749475 0.345383 0.137285
C26   C     C_R   0.218067 0.814821 0.240301 0.164807
C27   C     C_R   0.377993 0.815842 0.185435 -0.169226
C28   C     C_R   0.526555 0.751230 0.198223 0.563818
C29   C     C_R   0.516231 0.687764 0.263507 -0.230168
H13   H     H_    0.632552 0.638936 0.271313 0.157168
C30   C     C_R   0.356179 0.685465 0.316772 -0.153217
O11   O     O_R   0.229200 0.915950 0.913350 -0.545703
O12   O     O_R   0.559090 0.905000 0.086080 -0.511243
O13   O     O_R   0.729280 0.083880 0.086680 -0.551697
C31   C     C_R   0.389963 0.883432 0.115622 0.781312
O14   O     O_R   0.558920 0.904980 0.913920 -0.500293
O15   O     O_R   0.729110 0.083860 0.913300 -0.550369
C32   C     C_R   0.390067 0.882430 0.885301 0.770970
O16   O     O_R   0.229360 0.915970 0.086730 -0.515819
O17   O     O_3   0.395680 0.058580 0.000030 -0.398420
V3    V     V_3+5 0.670570 0.989070 0.999990 1.557543
O18   O     O_R   0.058820 0.094950 0.913870 -0.549407
C33   C     C_R   0.889760 0.116836 0.885027 0.677012
O19   O     O_R   0.058990 0.094970 0.086020 -0.546327
C34   C     C_R   0.889958 0.117084 0.115022 0.684063
V4    V     V_3+5 0.170560 0.010930 0.999930 1.469181
O20   O     O_3   0.895590 0.941310 0.999960 -0.329470
F1    F     F_    0.713226 0.771853 0.833344 -0.650525
F2    F     F_    0.692367 0.649535 0.709039 -0.660686
N1    N     N_3   0.068292 0.882096 0.233164 -0.639538
H14   H     H_    0.937531 0.847579 0.225697 0.277113
H15   H     H_    0.061556 0.918769 0.288928 0.205247
F3    F     F_    0.680308 0.747478 0.146310 -0.672959
N2    N     N_3   0.235254 0.234590 0.632706 -0.685364
H16   H     H_    0.224400 0.279636 0.582484 0.247482
H17   H     H_    0.123080 0.186786 0.628098 0.241937

loop_
_geom_bond_atom_site_label_1
_geom_bond_atom_site_label_2
_ccdc_geom_bond_type
C19   C24   A    
C25   C30   A    
C4    C6    S    
C7    H1    S    
C2    C30   S    
C1    O6    A    
C29   H13   S    
C28   C29   A    
C11   H4    S    
C12   N2    S    
N1    H15   S    
C5    C12   S    
C16   C17   A    
C6    C7    A    
C26   N1    S    
O5    C3    A    
C13   H6    S    
N2    H17   S    
O12   C31   A    
V2    O10   S    
O14   C32   A    
C15   C16   A    
C9    C33   S    
O8    V2    S    
C16   H8    S    
O19   C34   A    
C9    C10   A    
V4    O20   S    
O1    V2    S    
O17   V4    S    
O7    V1    S    
C19   C20   A    
O18   C33   A    
O9    C4    A    
C22   F1    S    
C20   C21   A    
C26   C27   A    
C29   C30   A    
C5    C10   A    
N1    H14   S    
C27   C28   A    
C10   C11   S    
O4    C2    A    
N2    H16   S    
C21   C32   S    
C11   C12   S    
V3    O20   S    
C14   C15   A    
O2    C1    A    
C17   H9    S    
O15   V3    S    
O15   C33   A    
O13   V3    S    
O16   V4    S    
C5    C6    A    
C18   C34   S    
O3    C4    A    
C25   H12   S    
O14   V3    S    
O6    V2    S    
O11   V4    S    
O9    V2    S    
O11   C32   A    
C27   C31   S    
C20   H11   S    
C3    C15   S    
C28   F3    S    
O2    V1    S    
C21   C22   A    
C23   C24   A    
C19   H10   S    
C7    C8    A    
O1    C2    A    
O12   V3    S    
O5    V1    S    
O8    C3    A    
O13   C34   A    
C11   H3    S    
C31   O16   A    
O17   V3    S    
C8    C9    A    
O7    V2    S    
O4    V1    S    
C17   C18   A    
O3    V1    S    
V1    O10   S    
C14   H7    S    
C13   C14   A    
O18   V4    S    
C25   C26   A    
C13   C18   A    
C22   C23   A    
C12   H5    S    
O19   V4    S    
C8    H2    S    
C23   F2    S    
C1    C24   S    
