data_mof_unit_28599.cif
_audit_creation_date              2013-03-05T15:47:37-0500
_audit_creation_method            fapswitch 2.2
_symmetry_space_group_name_H-M    P1
_symmetry_Int_Tables_number       1
_space_group_crystal_system       triclinic
_cell_length_a                    10.833535
_cell_length_b                    12.998971
_cell_length_c                    11.710544
_cell_angle_alpha                 99.95464
_cell_angle_beta                  94.212715
_cell_angle_gamma                 91.099144
_cell_volume                      1619.06523737

loop_
_atom_site_label
_atom_site_type_symbol
_atom_site_description
_atom_site_fract_x
_atom_site_fract_y
_atom_site_fract_z
_atom_type_partial_charge
O1    O     O_R   0.506570 0.354460 0.582000 -0.540159
O2    O     O_R   0.490940 0.341410 0.386200 -0.533790
C1    C     C_R   0.493928 0.299561 0.478687 0.882942
O3    O     O_R   0.327470 0.506530 0.597920 -0.534908
O4    O     O_R   0.311840 0.493480 0.402120 -0.480464
C2    C     C_R   0.262552 0.509872 0.501199 0.962358
Cu1   Cu    Cu3+1 0.509250 0.507730 0.615930 1.088502
Cu2   Cu    Cu3+1 0.490750 0.492270 0.384070 1.077158
O5    O     O_R   0.509060 0.658590 0.613800 -0.537969
O6    O     O_R   0.493430 0.645540 0.418000 -0.583919
O7    O     O_R   0.688160 0.506520 0.597880 -0.539340
O8    O     O_R   0.672530 0.493470 0.402080 -0.620855
C3    C     C_R   0.502956 0.700376 0.521311 0.878667
C4    C     C_R   0.737425 0.490766 0.499613 0.834858
C5    C     C_R   0.126895 0.578289 0.718014 0.423768
C6    C     C_R   0.077753 0.560190 0.820728 -0.256913
H1    H     H_    0.123293 0.594907 0.904340 0.196777
C7    C     C_R   0.974539 0.493059 0.816464 0.317420
C8    C     C_R   0.908414 0.455630 0.707762 0.388154
C9    C     C_R   0.948666 0.486929 0.605672 -0.034526
C10   C     C_R   0.069851 0.528521 0.609083 -0.086577
C11   C     C_R   0.127462 0.519667 0.502686 -0.059213
C12   C     C_R   0.053660 0.503180 0.396175 0.466872
H2    H     H_    0.868960 0.484898 0.316646 0.183159
C13   C     C_R   0.926170 0.489554 0.397373 -0.285340
C14   C     C_R   0.872309 0.482405 0.500683 -0.078818
C15   C     C_R   0.510422 0.813121 0.532571 -0.196722
C16   C     C_R   0.480064 0.186578 0.467975 -0.325035
C17   C     C_R   0.346564 0.029921 0.420721 0.404574
C18   C     C_R   0.368995 0.135980 0.415984 0.195068
C19   C     C_R   0.571238 0.132218 0.523062 0.373754
C20   C     C_R   0.548895 0.026521 0.530474 -0.040286
C21   C     C_R   0.438856 0.973331 0.472824 -0.182366
C22   C     C_R   0.422800 0.864805 0.471336 0.347911
C23   C     C_R   0.613104 0.866471 0.594946 -0.312307
C24   C     C_R   0.634584 0.972535 0.594193 0.517243
H3    H     H_    0.680505 0.823786 0.639579 0.212679
N1    N     N_R   0.523180 0.519350 0.790130 -0.269072
N2    N     N_R   0.476820 0.480650 0.209890 -0.220972
C25   C     C_R   0.381408 0.397267 0.021823 0.136584
C26   C     C_R   0.391913 0.410875 0.145712 0.574115
C27   C     C_R   0.548349 0.542614 0.156568 0.031377
C28   C     C_R   0.538779 0.534463 0.034155 -0.087563
C29   C     C_R   0.457697 0.459068 0.964159 -0.178361
C30   C     C_R   0.455541 0.450454 0.839631 0.544756
C31   C     C_R   0.596654 0.595863 0.860122 0.455931
C32   C     C_R   0.607541 0.602267 0.981261 -0.249180
H4    H     H_    0.667662 0.662598 0.034120 0.199536
H5    H     H_    0.612464 0.599391 0.209733 0.154634
O9    O     O_3   0.106632 0.504441 0.292467 -0.647372
H6    H     H_    0.042192 0.488658 0.226742 0.367748
O10   O     O_3   0.738346 0.024002 0.655607 -0.600157
H7    H     H_    0.786947 0.974735 0.695352 0.350216
N3    N     N_R   0.277305 0.192521 0.359731 0.144568
O11   O     O_R   0.223019 0.269785 0.420055 -0.355649
O12   O     O_R   0.234852 0.156875 0.253028 -0.270723
O13   O     O_3   0.683204 0.180756 0.569030 -0.589753
H8    H     H_    0.702541 0.238274 0.527061 0.332757
O14   O     O_3   0.385366 0.374057 0.766442 -0.631457
H9    H     H_    0.411998 0.306568 0.786919 0.347866
N4    N     N_R   0.658582 0.674703 0.812656 0.138508
O15   O     O_R   0.623525 0.770551 0.838213 -0.340244
O16   O     O_R   0.768757 0.658310 0.777830 -0.384959
N5    N     N_R   0.291978 0.322534 0.957517 0.114014
O17   O     O_R   0.301427 0.223777 0.962686 -0.286434
O18   O     O_R   0.194007 0.354148 0.904417 -0.281337
O19   O     O_3   0.316390 0.355654 0.204846 -0.602713
H10   H     H_    0.241073 0.329464 0.154540 0.382028
O20   O     O_3   0.222640 0.651061 0.722152 -0.671759
H11   H     H_    0.251412 0.678073 0.804439 0.340743
N6    N     N_R   0.937107 0.465478 0.922754 0.125418
O21   O     O_R   0.944210 0.535052 0.017514 -0.358023
O22   O     O_R   0.913649 0.368218 0.929398 -0.279461
O23   O     O_3   0.811092 0.383653 0.697602 -0.664503
H12   H     H_    0.769779 0.393626 0.771136 0.359827
N7    N     N_R   0.321178 0.804974 0.404196 0.183264
O24   O     O_R   0.317879 0.787850 0.291167 -0.274403
O25   O     O_R   0.240933 0.757039 0.455641 -0.325066
O26   O     O_3   0.232370 0.982003 0.381740 -0.612169
H13   H     H_    0.167963 0.034979 0.381292 0.375080

loop_
_geom_bond_atom_site_label_1
_geom_bond_atom_site_label_2
_geom_bond_distance
_ccdc_geom_bond_type
C8    C9    1.422296 A    
Cu1   Cu2   2.680066 S    
C26   O19   1.377245 S    
C29   C30   1.441570 A    
Cu1   O7    1.965163 S    
C18   N3    1.435312 S    
C20   C24   1.419608 A    
C1    C16   1.456137 S    
C23   H3    1.083502 S    
N7    O25   1.301114 A    
O4    C2    1.298717 A    
O7    C4    1.289963 A    
C5    C6    1.404532 A    
C2    C11   1.472574 S    
C17   C21   1.416639 A    
C7    C8    1.417340 A    
N4    O16   1.299076 A    
O5    C3    1.291039 A    
N1    C30   1.375412 A    
N3    O11   1.300775 A    
C19   C20   1.409056 A    
C6    H1    1.083284 S    
Cu2   N2    2.013335 S    
C24   O10   1.383638 S    
O14   H9    0.991281 S    
C10   C11   1.422189 A    
O20   H11   0.991827 S    
O3    Cu1   1.964590 S    
C21   C22   1.415045 A    
N2    C27   1.363897 A    
C16   C19   1.407776 A    
C15   C22   1.399174 A    
C5    O20   1.382817 S    
N3    O12   1.301860 A    
O23   H12   0.989396 S    
C31   N4    1.426443 S    
O19   H10   0.988993 S    
H2    C13   1.083602 S    
O3    C2    1.296363 A    
N6    O22   1.301389 A    
C12   O9    1.383280 S    
C15   C23   1.388467 A    
C13   C14   1.397595 A    
C4    C14   1.466676 S    
O1    C1    1.290409 A    
C23   C24   1.395466 A    
N5    O18   1.300069 A    
C28   C29   1.409766 A    
C17   C18   1.406546 A    
C32   H4    1.084322 S    
C17   O26   1.384203 S    
C5    C10   1.418178 A    
Cu2   O8    1.964589 S    
O9    H6    0.991379 S    
N7    O24   1.301418 A    
C6    C7    1.397698 A    
C25   C26   1.426652 A    
O8    C4    1.302648 A    
C27   C28   1.414983 A    
O10   H7    0.991948 S    
C7    N6    1.437080 S    
Cu1   O5    1.965528 S    
C31   C32   1.402672 A    
C30   O14   1.371067 S    
O1    Cu1   1.962290 S    
C8    O23   1.380734 S    
O2    Cu2   1.965527 S    
O6    C3    1.289616 A    
O4    Cu2   1.965163 S    
C25   N5    1.432912 S    
N5    O17   1.301211 A    
C19   O13   1.384372 S    
C16   C18   1.405247 A    
O2    C1    1.291997 A    
N6    O21   1.301175 A    
C20   C21   1.429587 A    
O13   H8    0.990263 S    
C9    C14   1.422350 A    
Cu1   N1    2.013568 S    
C12   C13   1.390508 A    
N4    O15   1.300809 A    
N1    C31   1.373516 A    
C27   H5    1.082927 S    
O26   H13   0.990072 S    
C25   C29   1.424262 A    
C9    C10   1.405394 A    
N2    C26   1.365412 A    
Cu2   O6    1.962290 S    
C11   C12   1.412597 A    
C3    C15   1.448756 S    
C28   C32   1.395272 A    
C22   N7    1.436551 S    
