data_mof_unit_22591.cif
_audit_creation_date              2012-12-11T15:43:48-0500
_audit_creation_method            fapswitch 2.2
_symmetry_space_group_name_H-M    P1
_symmetry_Int_Tables_number       1
_space_group_crystal_system       triclinic
_cell_length_a                    14.546694
_cell_length_b                    16.240356
_cell_length_c                    6.957395
_cell_angle_alpha                 90.0
_cell_angle_beta                  98.993248
_cell_angle_gamma                 89.999978
_cell_volume                      1623.4336327

loop_
_atom_site_label
_atom_site_type_symbol
_atom_type_description
_atom_site_fract_x
_atom_site_fract_y
_atom_site_fract_z
_atom_type_partial_charge
O1    O     O_R   0.831700 0.662810 0.581550 -0.521933
O2    O     O_R   0.168300 0.337190 0.418450 -0.531936
O3    O     O_R   0.168300 0.162810 0.418450 -0.521928
O4    O     O_R   0.831700 0.837190 0.581550 -0.531937
O5    O     O_R   0.842890 0.834390 0.255500 -0.544705
O6    O     O_R   0.157110 0.165610 0.744500 -0.525908
O7    O     O_R   0.157110 0.334390 0.744500 -0.544705
O8    O     O_R   0.842890 0.665610 0.255500 -0.525908
O9    O     O_R   0.661690 0.835580 0.024130 -0.540400
O10   O     O_R   0.338310 0.164420 0.975870 -0.539301
O11   O     O_R   0.338310 0.335580 0.975870 -0.540400
O12   O     O_R   0.661690 0.664420 0.024130 -0.539300
C1    C     C_R   0.868437 0.862347 0.433873 0.710395
C2    C     C_R   0.136045 0.134669 0.568516 0.711834
C3    C     C_R   0.131562 0.362347 0.566127 0.710394
C4    C     C_R   0.863955 0.634669 0.431484 0.711835
C5    C     C_R   0.069361 0.064052 0.532637 -0.138927
C6    C     C_R   0.941182 0.929362 0.474381 -0.122702
C7    C     C_R   0.930639 0.564052 0.467361 -0.138925
C8    C     C_R   0.058817 0.429362 0.525619 -0.122698
H1    H     H_    0.003665 0.904810 0.223247 0.139551
H2    H     H_    0.017378 0.080873 0.803257 0.186912
H3    H     H_    0.996332 0.404809 0.776748 0.139542
H4    H     H_    0.982624 0.580875 0.196745 0.186913
C9    C     C_R   0.001744 0.945895 0.342101 -0.133137
C10   C     C_R   0.012339 0.044858 0.671307 -0.186457
C11   C     C_R   0.998254 0.445895 0.657896 -0.133141
C12   C     C_R   0.987662 0.544859 0.328694 -0.186447
O13   O     O_3   0.687240 0.750000 0.366320 -0.386114
O14   O     O_3   0.312760 0.250000 0.633680 -0.386115
V1    V     V_3+5 0.757720 0.750000 0.115230 1.493181
V2    V     V_3+5 0.242280 0.250000 0.884770 1.493181
O15   O     O_R   0.650500 0.664000 0.690740 -0.546524
O16   O     O_R   0.349500 0.336000 0.309260 -0.549789
O17   O     O_R   0.349500 0.164000 0.309260 -0.546524
O18   O     O_R   0.650500 0.836000 0.690740 -0.549789
C13   C     C_R   0.628497 0.635882 0.853513 0.770191
C14   C     C_R   0.371684 0.363982 0.146514 0.763006
C15   C     C_R   0.371503 0.135882 0.146486 0.770190
C16   C     C_R   0.628316 0.863982 0.853486 0.763007
C17   C     C_R   0.066340 0.010606 0.369347 0.023659
C18   C     C_R   0.954962 0.974870 0.650753 0.001502
C19   C     C_R   0.933658 0.510604 0.630648 0.023662
C20   C     C_R   0.045039 0.474871 0.349247 0.001498
V3    V     V_3+5 0.735670 0.750000 0.607790 1.488494
V4    V     V_3+5 0.264330 0.250000 0.392210 1.488495
O19   O     O_3   0.806150 0.750000 0.906560 -0.354653
O20   O     O_3   0.193850 0.250000 0.093440 -0.354648
H5    H     H_    0.435115 0.056506 0.851451 0.152819
H6    H     H_    0.563915 0.942772 0.148440 0.152278
H7    H     H_    0.564885 0.556506 0.148549 0.152821
H8    H     H_    0.436085 0.442772 0.851560 0.152278
C21   C     C_2   0.559211 0.931826 0.843957 -0.320259
C22   C     C_2   0.440252 0.067772 0.155974 -0.340720
C23   C     C_2   0.440789 0.431826 0.156043 -0.320257
C24   C     C_2   0.559748 0.567772 0.844025 -0.340723
C25   C     C_2   0.533786 0.965502 0.005482 -0.108443
C26   C     C_2   0.465337 0.033841 0.994412 -0.122142
C27   C     C_2   0.466214 0.465502 0.994518 -0.108444
C28   C     C_2   0.534663 0.533841 0.005588 -0.122140
H9    H     H_    0.470441 0.044516 0.298394 0.132415
H10   H     H_    0.529062 0.955120 0.701542 0.127441
H11   H     H_    0.529558 0.544516 0.701606 0.132417
H12   H     H_    0.470938 0.455120 0.298458 0.127442
C29   C     C_2   0.134221 0.014354 0.232258 0.737814
O21   O     O_2   0.129911 0.069573 0.112128 -0.551921
O22   O     O_R   0.200724 0.952104 0.235332 -0.663545
H13   H     H_    0.242692 0.960583 0.133550 0.291502
C30   C     C_2   0.932299 0.937933 0.829393 0.762855
O23   O     O_2   0.885138 0.974810 0.932119 -0.567157
O24   O     O_R   0.967132 0.859085 0.877980 -0.655129
H14   H     H_    0.940884 0.833043 0.988892 0.305940
C31   C     C_2   0.865772 0.514352 0.767728 0.737827
O25   O     O_2   0.870088 0.569562 0.887879 -0.551927
O26   O     O_R   0.799256 0.452111 0.764615 -0.663547
H15   H     H_    0.757288 0.460587 0.866399 0.291501
C32   C     C_2   0.067703 0.437935 0.170607 0.762861
O27   O     O_2   0.114863 0.474812 0.067881 -0.567156
O28   O     O_R   0.032870 0.359087 0.122019 -0.655131
H16   H     H_    0.059117 0.333046 0.011106 0.305940

loop_
_geom_bond_atom_site_label_1
_geom_bond_atom_site_label_2
_ccdc_geom_bond_type
C19   C31   S    
O6    V2    S    
C23   C27   D    
O15   V3    S    
C31   O25   D    
C32   O27   D    
O2    V4    S    
C1    C6    S    
C5    C10   A    
C20   C32   S    
O8    V1    S    
C6    C18   A    
C15   C22   S    
O4    C1    A    
O12   C13   A    
C30   O24   S    
C13   C24   S    
C14   C23   S    
C29   O22   S    
O16   V4    S    
H3    C11   S    
O5    C1    A    
C32   O28   S    
C27   C28   S    
O8    C4    A    
V1    O19   S    
C31   O26   S    
C2    C5    S    
C6    C9    A    
C8    C20   A    
C7    C19   A    
O4    V3    S    
V3    O19   S    
C3    C8    S    
V4    O20   S    
O22   H13   S    
O18   C16   A    
C9    C17   A    
C21   C25   D    
C17   C29   S    
C12   C20   A    
C18   C30   S    
O15   C13   A    
H5    C26   S    
C24   C28   D    
O13   V3    S    
O10   C15   A    
O11   C14   A    
O17   C15   A    
O26   H15   S    
O2    C3    A    
H8    C27   S    
O10   V2    S    
O6    C2    A    
C21   H10   S    
C23   H12   S    
C24   H11   S    
O18   V3    S    
O1    C4    A    
C7    C12   A    
O3    C2    A    
C22   H9    S    
O11   V2    S    
C16   C21   S    
O12   V1    S    
C10   C18   A    
C22   C26   D    
H1    C9    S    
O7    V2    S    
O16   C14   A    
H6    C25   S    
O14   V4    S    
H4    C12   S    
C8    C11   A    
O3    V4    S    
O24   H14   S    
O13   V1    S    
O14   V2    S    
O1    V3    S    
C25   C26   S    
V2    O20   S    
C4    C7    S    
O7    C3    A    
O9    C16   A    
C30   O23   D    
C5    C17   A    
O9    V1    S    
O28   H16   S    
C11   C19   A    
C29   O21   D    
H2    C10   S    
H7    C28   S    
O17   V4    S    
O5    V1    S    
