data_mof_unit_26281.cif
_audit_creation_date              2012-12-10T18:21:15-0500
_audit_creation_method            fapswitch 2.2
_symmetry_space_group_name_H-M    P1
_symmetry_Int_Tables_number       1
_space_group_crystal_system       triclinic
_cell_length_a                    14.886996
_cell_length_b                    14.199571
_cell_length_c                    10.611618
_cell_angle_alpha                 90.257127
_cell_angle_beta                  91.691565
_cell_angle_gamma                 90.131492
_cell_volume                      2242.1721275

loop_
_atom_site_label
_atom_site_type_symbol
_atom_type_description
_atom_site_fract_x
_atom_site_fract_y
_atom_site_fract_z
_atom_type_partial_charge
C1    C     C_R   0.327201 0.499919 0.497032 0.975048
C2    C     C_R   0.054478 0.458816 0.723386 -0.217195
C3    C     C_R   0.097092 0.480286 0.611521 0.139647
C4    C     C_R   0.498524 0.499780 0.257852 0.864876
C5    C     C_R   0.046412 0.505181 0.502123 0.017990
C6    C     C_R   0.089409 0.529319 0.389821 -0.069659
C7    C     C_R   0.038505 0.557308 0.283203 -0.297435
C8    C     C_R   0.945066 0.555856 0.284174 0.531842
C9    C     C_R   0.189841 0.477868 0.607451 -0.317704
C10   C     C_R   0.231685 0.500007 0.496053 -0.150951
C11   C     C_R   0.182893 0.523656 0.385923 0.484401
C12   C     C_3   0.591681 0.523599 0.931319 -0.606724
C13   C     C_R   0.579915 0.798765 0.516045 0.526202
C14   C     C_R   0.579784 0.201144 0.491273 0.510091
C15   C     C_R   0.420981 0.799858 0.489622 0.469585
C16   C     C_R   0.420775 0.199725 0.503477 0.476439
C17   C     C_R   0.420340 0.899496 0.501978 -0.025525
C18   C     C_R   0.420442 0.099699 0.508470 -0.031277
C19   C     C_R   0.672584 0.500107 0.504776 0.938338
C20   C     C_R   0.501934 0.949589 0.505862 -0.062277
C21   C     C_R   0.501954 0.050109 0.506279 -0.064681
C22   C     C_R   0.582987 0.899148 0.507968 -0.285073
C23   C     C_R   0.809405 0.528478 0.398470 -0.299574
C24   C     C_R   0.582930 0.100839 0.502281 -0.278555
C25   C     C_R   0.339460 0.949955 0.508489 -0.183072
C26   C     C_R   0.339625 0.048290 0.513998 -0.188538
C27   C     C_R   0.664891 0.049869 0.507311 0.438879
C28   C     C_R   0.664807 0.950318 0.504529 0.423776
C29   C     C_R   0.498260 0.499999 0.741880 0.909982
C30   C     C_3   0.431470 0.575700 0.070082 -0.462237
C31   C     C_3   0.467104 0.401415 0.069930 -0.461956
C32   C     C_3   0.428934 0.575369 0.925157 0.423455
C33   C     C_3   0.469147 0.399491 0.926305 0.451366
C34   C     C_R   0.767763 0.500603 0.507372 -0.150181
C35   C     C_3   0.592917 0.521412 0.075945 -0.444563
C36   C     C_3   0.497412 0.499440 0.121211 0.076581
C37   C     C_3   0.495978 0.499479 0.878391 0.009050
C38   C     C_3   0.223884 0.460539 0.198940 -0.416322
C39   C     C_3   0.889475 0.509010 0.092583 -0.358900
C40   C     C_3   0.671745 0.746656 0.674092 -0.177707
C41   C     C_3   0.668029 0.251101 0.334936 -0.207931
C42   C     C_3   0.318805 0.751957 0.341060 -0.252912
C43   C     C_3   0.309304 0.249209 0.371082 -0.306133
C44   C     C_3   0.775409 0.105960 0.638472 -0.235077
C45   C     C_R   0.816026 0.474988 0.617066 0.466075
C46   C     C_3   0.768983 0.891777 0.374179 -0.182257
C47   C     C_3   0.291645 0.639170 0.858763 -0.339812
C48   C     C_3   0.378081 0.273909 0.860219 -0.284211
C49   C     C_3   0.763513 0.357377 0.740991 -0.386386
C50   C     C_R   0.909821 0.479598 0.617124 0.052250
C51   C     C_R   0.952794 0.505079 0.504820 -0.049629
C52   C     C_R   0.902175 0.530121 0.395155 0.006670
C53   C     C_R   0.961369 0.459027 0.726492 -0.201254
H1    H     H_    0.070689 0.579361 0.197949 0.206293
H2    H     H_    0.229851 0.459323 0.690837 0.220068
H3    H     H_    0.159945 0.419781 0.203317 0.160676
H4    H     H_    0.280969 0.414661 0.225800 0.167553
H5    H     H_    0.230775 0.481351 0.099112 0.232558
H6    H     H_    0.846893 0.530953 0.010335 0.222286
H7    H     H_    0.856725 0.446619 0.135101 0.150873
H8    H     H_    0.956605 0.489648 0.057102 0.160691
H9    H     H_    0.730207 0.700556 0.695789 0.186644
H10   H     H_    0.612820 0.716397 0.721781 0.129689
H11   H     H_    0.687415 0.817726 0.713497 0.141563
H12   H     H_    0.275467 0.913589 0.509598 0.178488
H13   H     H_    0.727044 0.295735 0.314376 0.167941
H14   H     H_    0.608645 0.282142 0.284838 0.138788
H15   H     H_    0.680999 0.179372 0.297170 0.144190
H16   H     H_    0.366156 0.706507 0.289536 0.188501
H17   H     H_    0.317651 0.823933 0.299812 0.116501
H18   H     H_    0.250310 0.722302 0.327007 0.218749
H19   H     H_    0.295190 0.177716 0.332141 0.135540
H20   H     H_    0.358636 0.285632 0.311224 0.162670
H21   H     H_    0.245244 0.288888 0.366077 0.184632
H22   H     H_    0.788667 0.036115 0.682275 0.165819
H23   H     H_    0.275637 0.083835 0.520190 0.177263
H24   H     H_    0.725784 0.145861 0.694102 0.127270
H25   H     H_    0.839386 0.146185 0.642238 0.176499
H26   H     H_    0.778692 0.960710 0.326882 0.145429
H27   H     H_    0.717435 0.849071 0.321369 0.147083
H28   H     H_    0.833472 0.852958 0.371258 0.191258
H29   H     H_    0.363541 0.563944 0.106687 0.220578
H30   H     H_    0.398523 0.384824 0.101566 0.186458
H31   H     H_    0.319143 0.680021 0.779375 0.192733
H32   H     H_    0.291080 0.682956 0.945986 0.153275
H33   H     H_    0.221019 0.620565 0.833123 0.201718
H34   H     H_    0.612902 0.594548 0.899202 0.200219
H35   H     H_    0.391664 0.237345 0.951293 0.122881
H36   H     H_    0.424951 0.248768 0.787692 0.169105
H37   H     H_    0.308890 0.255229 0.827260 0.199575
H38   H     H_    0.453414 0.645693 0.893090 0.062456
H39   H     H_    0.523299 0.349459 0.898566 0.049100
H40   H     H_    0.616732 0.590620 0.113893 0.202536
H41   H     H_    0.641049 0.466801 0.110769 0.173343
H42   H     H_    0.746398 0.342267 0.839893 0.163911
H43   H     H_    0.826899 0.319026 0.721981 0.164954
H44   H     H_    0.708076 0.329455 0.679694 0.242962
H45   H     H_    0.641182 0.471985 0.896359 0.231922
H46   H     H_    0.930096 0.441805 0.814283 0.172010
H47   H     H_    0.768650 0.547709 0.316087 0.192733
H48   H     H_    0.453358 0.646792 0.103540 0.138344
H49   H     H_    0.512453 0.345063 0.106904 0.129583
H50   H     H_    0.093160 0.441271 0.808183 0.151243
N1    N     N_R   0.500070 0.750030 0.500050 -0.199980
N2    N     N_R   0.500070 0.249970 0.500050 -0.201886
O1    O     O_R   0.367860 0.580280 0.500020 -0.553154
O2    O     O_3   0.895882 0.584834 0.178706 -0.608764
O3    O     O_3   0.658001 0.749922 0.541978 -0.536688
O4    O     O_3   0.657521 0.249493 0.466707 -0.551352
O5    O     O_3   0.340496 0.753004 0.471418 -0.590067
O6    O     O_3   0.339742 0.246280 0.498344 -0.572174
O7    O     O_3   0.746621 0.096419 0.511260 -0.561399
O8    O     O_3   0.746366 0.904056 0.501309 -0.568013
O9    O     O_3   0.340680 0.555292 0.877779 -0.573564
O10   O     O_3   0.383630 0.372615 0.874547 -0.553284
O11   O     O_3   0.771353 0.455843 0.726833 -0.651402
O12   O     O_R   0.367860 0.419720 0.500020 -0.564018
O13   O     O_R   0.500000 0.580270 0.314790 -0.633970
O14   O     O_R   0.500000 0.419730 0.314790 -0.655537
O15   O     O_R   0.632160 0.580270 0.499960 -0.566651
O16   O     O_R   0.632160 0.419730 0.499960 -0.580406
O17   O     O_R   0.500030 0.580270 0.685200 -0.653786
O18   O     O_R   0.500030 0.419730 0.685200 -0.612406
O19   O     O_3   0.226652 0.542250 0.275416 -0.647520
Zn1   Zn    Zn3+2 0.500020 0.607200 0.499990 0.990435
Zn2   Zn    Zn3+2 0.500020 0.392800 0.499990 0.981590

loop_
_geom_bond_atom_site_label_1
_geom_bond_atom_site_label_2
_ccdc_geom_bond_type
C43   H20   S    
C14   O4    S    
C30   C32   S    
C4    C36   S    
C43   H19   S    
C47   O9    S    
C18   C21   A    
C11   O19   S    
C18   C26   A    
C24   C27   A    
C40   H9    S    
C7    C8    A    
C41   H14   S    
C53   H46   S    
C39   O2    S    
O1    Zn1   S    
C40   H10   S    
N2    Zn2   S    
C47   H32   S    
C44   H24   S    
C5    C6    A    
C32   H38   S    
C38   H4    S    
C42   H17   S    
C17   C20   A    
C31   H30   S    
C14   C24   A    
C12   C37   S    
C38   H5    S    
C14   N2    A    
N1    Zn1   S    
C35   C36   S    
C26   H23   S    
C48   H35   S    
C4    O14   A    
C9    H2    S    
O13   Zn1   S    
C15   N1    A    
C9    C10   A    
C8    C52   A    
C12   H45   S    
C12   H34   S    
C1    O1    A    
C40   O3    S    
C43   H21   S    
C23   H47   S    
C22   C28   A    
C15   O5    S    
C4    O13   A    
C43   O6    S    
C13   O3    S    
C41   H15   S    
C35   H40   S    
C39   H8    S    
C33   O10   S    
C50   C53   A    
C51   C52   A    
C31   H49   S    
C25   H12   S    
C28   O8    S    
C33   H39   S    
C6    C11   A    
O15   Zn1   S    
O18   Zn2   S    
C41   O4    S    
C25   C26   A    
C32   C37   S    
C19   C34   S    
C42   H16   S    
C33   C37   S    
C12   C35   S    
C30   H29   S    
C44   H22   S    
C47   H33   S    
C3    C9    A    
C46   H28   S    
C23   C34   A    
C39   H6    S    
C29   O17   A    
C31   C33   S    
C50   C51   A    
C34   C45   A    
C1    O12   A    
C47   H31   S    
C49   H42   S    
C13   N1    A    
C6    C7    A    
C16   N2    A    
C48   O10   S    
C44   O7    S    
C20   C22   A    
C19   O15   A    
C48   H36   S    
C8    O2    S    
O12   Zn2   S    
C35   H41   S    
C15   C17   A    
C19   O16   A    
C46   O8    S    
C1    C10   S    
C3    C5    A    
C2    C53   A    
C27   O7    S    
C41   H13   S    
C40   H11   S    
C30   C36   S    
C17   C25   A    
O17   Zn1   S    
C44   H25   S    
C2    C3    A    
C42   O5    S    
O16   Zn2   S    
C46   H27   S    
C45   O11   S    
C23   C52   A    
C46   H26   S    
C45   C50   A    
C39   H7    S    
C29   O18   A    
C30   H48   S    
C42   H18   S    
C13   C22   A    
C49   H43   S    
C2    H50   S    
C10   C11   A    
C49   H44   S    
O14   Zn2   S    
C49   O11   S    
C38   H3    S    
C20   C21   A    
C16   C18   A    
C21   C24   A    
C29   C37   S    
C27   C28   A    
C31   C36   S    
C5    C51   A    
C48   H37   S    
C7    H1    S    
C32   O9    S    
C38   O19   S    
C16   O6    S    
