data_mof_unit_14906.cif
_audit_creation_date              2012-10-26T19:12:18-0400
_audit_creation_method            fapswitch 2.2
_symmetry_space_group_name_H-M    P1
_symmetry_Int_Tables_number       1
_space_group_crystal_system       triclinic
_cell_length_a                    27.656193
_cell_length_b                    15.858304
_cell_length_c                    14.612907
_cell_angle_alpha                 89.886302
_cell_angle_beta                  90.078863
_cell_angle_gamma                 90.126024
_cell_volume                      6408.89921657

loop_
_atom_site_label
_atom_site_type_symbol
_atom_type_description
_atom_site_fract_x
_atom_site_fract_y
_atom_site_fract_z
_atom_type_partial_charge
C1    C     C_R   0.500293 0.339445 0.500101 0.526463
C2    C     C_R   0.871328 0.448153 0.412322 0.002436
C3    C     C_R   0.352829 0.502865 0.499620 -0.001437
C4    C     C_R   0.646286 0.501856 0.499534 0.008309
C5    C     C_R   0.973009 0.448372 0.396764 0.018508
C6    C     C_R   0.025488 0.598056 0.431108 0.018491
C7    C     C_R   0.974908 0.595997 0.447581 0.011056
C8    C     C_R   0.023459 0.443935 0.413947 0.011063
C9    C     C_R   0.948612 0.521603 0.426847 0.020338
C10   C     C_R   0.049796 0.519664 0.427582 0.020344
C11   C     C_R   0.945326 0.382235 0.356320 -0.001562
C12   C     C_R   0.499505 0.660536 0.499978 0.532460
C13   C     C_R   0.053354 0.673486 0.423147 -0.001570
C14   C     C_R   0.895014 0.381184 0.369113 -0.101999
C15   C     C_R   0.103641 0.669387 0.436046 -0.101418
C16   C     C_R   0.406805 0.501240 0.500160 0.555319
C17   C     C_R   0.592889 0.498849 0.500160 0.571036
C18   C     C_R   0.047425 0.366528 0.427401 -0.158595
C19   C     C_R   0.950713 0.662084 0.492696 -0.158424
C20   C     C_3   0.529003 0.971261 0.569812 -0.104737
C21   C     C_3   0.472577 0.028578 0.432251 -0.100711
C22   C     C_3   0.546588 0.027665 0.489329 -0.102285
C23   C     C_R   0.100364 0.516707 0.440963 -0.034441
C24   C     C_3   0.454994 0.972268 0.512718 -0.100500
C25   C     C_1   0.500902 0.249861 0.500379 -0.046710
C26   C     C_1   0.499455 0.750102 0.500152 -0.045701
C27   C     C_3   0.483868 0.027575 0.580444 0.046692
C28   C     C_3   0.517712 0.972341 0.421597 0.046865
C29   C     C_3   0.501237 0.082815 0.500861 0.038814
C30   C     C_3   0.500314 0.917088 0.501130 0.038766
C31   C     C_1   0.501270 0.174387 0.500588 -0.073854
C32   C     C_1   0.499730 0.825556 0.500717 -0.071983
C33   C     C_3   0.484380 0.579802 0.970698 0.259117
C34   C     C_R   0.897993 0.519378 0.439521 -0.034480
C35   C     C_3   0.514062 0.429401 0.028844 0.252598
C36   C     C_3   0.455108 0.518335 0.031067 0.282280
C37   C     C_3   0.543391 0.490586 0.969054 0.240404
C38   C     C_3   0.529495 0.565720 0.032097 -0.160731
C39   C     C_3   0.468650 0.442874 0.968389 -0.188435
C40   C     C_R   0.173786 0.437154 0.468042 0.388666
C41   C     C_R   0.824337 0.582064 0.497821 0.389309
C42   C     C_3   0.499725 0.503264 0.092078 -0.014761
C43   C     C_3   0.498491 0.505086 0.907499 -0.069254
C44   C     C_1   0.499824 0.501197 0.194304 0.212226
C45   C     C_R   0.123880 0.438527 0.450655 0.029488
C46   C     C_1   0.499512 0.501622 0.805558 0.129302
C47   C     C_R   0.177397 0.587456 0.460670 0.384198
C48   C     C_R   0.821146 0.446758 0.426669 0.382937
C49   C     C_R   0.273195 0.534372 0.568210 0.068983
C50   C     C_R   0.726484 0.454502 0.550956 0.069198
C51   C     C_R   0.324880 0.537724 0.573301 -0.035113
C52   C     C_R   0.675026 0.447381 0.555117 -0.040607
C53   C     C_R   0.328739 0.468362 0.422814 0.225108
C54   C     C_R   0.668480 0.561623 0.441847 0.223153
C55   C     C_R   0.278875 0.476668 0.414475 -0.067108
C56   C     C_R   0.874281 0.587481 0.481694 0.028905
C57   C     C_R   0.718530 0.561242 0.431522 -0.069903
C58   C     C_R   0.251012 0.507694 0.485820 0.191220
C59   C     C_R   0.747524 0.509127 0.485150 0.192742
C60   C     C_3   0.344630 0.344490 0.346422 0.007991
C61   C     C_3   0.379141 0.294898 0.408319 -0.255860
C62   C     C_3   0.368756 0.200438 0.404822 -0.488267
C63   C     C_3   0.649575 0.701967 0.418148 0.004162
C64   C     C_3   0.633761 0.719999 0.517157 -0.266109
C65   C     C_3   0.634500 0.814282 0.537746 -0.480426
C66   C     C_3   0.536869 0.938342 0.330920 -0.274074
C67   C     C_R   0.096893 0.363840 0.445030 -0.121444
C68   C     C_3   0.550911 0.009765 0.266087 -0.439176
C69   C     C_3   0.464584 0.062030 0.670803 -0.274260
C70   C     C_3   0.451529 0.991039 0.736885 -0.444883
C71   C     C_3   0.373932 0.530693 0.997404 0.027171
C72   C     C_3   0.326166 0.566363 0.032336 -0.240428
C73   C     C_3   0.286821 0.561276 0.959148 -0.499175
C74   C     C_3   0.625077 0.471975 0.001335 0.020037
C75   C     C_3   0.658116 0.548912 0.991401 -0.274599
C76   C     C_3   0.697209 0.549922 0.065195 -0.477166
C77   C     C_3   0.480405 0.693257 0.866803 0.004857
C78   C     C_R   0.901147 0.658103 0.509033 -0.121820
C79   C     C_3   0.534830 0.713040 0.862732 -0.273354
C80   C     C_3   0.548357 0.754908 0.772119 -0.479803
C81   C     C_3   0.538213 0.293171 0.991991 0.027252
C82   C     C_3   0.501012 0.222046 0.000183 -0.266577
C83   C     C_3   0.507177 0.157127 0.924138 -0.493201
C84   C     C_3   0.650860 0.378682 0.612741 -0.273492
C85   C     C_3   0.633450 0.305795 0.552883 -0.424800
C86   C     C_3   0.349559 0.582130 0.653927 -0.262907
C87   C     C_3   0.371905 0.666335 0.625038 -0.408640
C88   C     C_3   0.759130 0.406445 0.616859 -0.241413
C89   C     C_R   0.127182 0.591865 0.446938 0.002524
C90   C     C_3   0.758650 0.446823 0.711752 -0.450270
C91   C     C_3   0.241331 0.556471 0.649856 -0.239126
C92   C     C_3   0.243972 0.488233 0.723750 -0.455824
C93   C     C_3   0.966843 0.317942 0.290865 -0.287013
C94   C     C_3   0.943364 0.322060 0.196060 -0.436825
C95   C     C_3   0.032116 0.756799 0.390603 -0.287327
C96   C     C_3   0.056031 0.788104 0.302423 -0.436092
Cu1   Cu    Cu3+1 0.500010 0.500000 0.590220 0.935465
Cu2   Cu    Cu3+1 0.499990 0.500000 0.409780 1.055065
H1    H     H_    0.551765 0.946520 0.626407 0.098128
H2    H     H_    0.124532 0.727234 0.435649 0.161756
H3    H     H_    0.027767 0.307516 0.428559 0.114035
H4    H     H_    0.970253 0.715732 0.519615 0.114191
H5    H     H_    0.583989 0.051430 0.479200 0.101650
H6    H     H_    0.417599 0.948507 0.522938 0.105133
H7    H     H_    0.350732 0.324506 0.274541 0.155351
H8    H     H_    0.306391 0.327813 0.362544 0.132284
H9    H     H_    0.416794 0.306267 0.385352 0.196117
H10   H     H_    0.375545 0.316759 0.480178 0.155571
H11   H     H_    0.331066 0.187335 0.426929 0.160322
H12   H     H_    0.449844 0.053023 0.375476 0.102862
H13   H     H_    0.393797 0.166800 0.451700 0.150669
H14   H     H_    0.374109 0.176207 0.334300 0.144213
H15   H     H_    0.628375 0.743165 0.371471 0.153677
H16   H     H_    0.688154 0.719618 0.408180 0.128920
H17   H     H_    0.596743 0.695264 0.528355 0.179346
H18   H     H_    0.658453 0.687600 0.565839 0.162087
H19   H     H_    0.671609 0.839935 0.528975 0.156574
H20   H     H_    0.622829 0.825017 0.609440 0.143628
H21   H     H_    0.609391 0.848371 0.491403 0.148599
H22   H     H_    0.519026 0.049813 0.250569 0.152279
H23   H     H_    0.443889 0.392854 0.943289 0.090093
H24   H     H_    0.579772 0.049316 0.297081 0.153808
H25   H     H_    0.564671 0.982946 0.201036 0.138337
H26   H     H_    0.568981 0.898237 0.344370 0.135517
H27   H     H_    0.508487 0.898842 0.298296 0.155529
H28   H     H_    0.423856 0.948884 0.706051 0.150388
H29   H     H_    0.484164 0.953657 0.754332 0.143622
H30   H     H_    0.436623 0.018202 0.800837 0.137234
H31   H     H_    0.492599 0.102906 0.702533 0.142849
H32   H     H_    0.431992 0.100839 0.656909 0.143975
H33   H     H_    0.368202 0.463533 0.978200 0.117108
H34   H     H_    0.554154 0.615811 0.057397 0.107110
H35   H     H_    0.384922 0.567325 0.935583 0.150807
H36   H     H_    0.314365 0.530255 0.093690 0.184847
H37   H     H_    0.331417 0.633355 0.052363 0.187542
H38   H     H_    0.297569 0.597946 0.897548 0.143640
H39   H     H_    0.252648 0.587872 0.986358 0.154091
H40   H     H_    0.280315 0.494594 0.939414 0.144367
H41   H     H_    0.647034 0.414087 0.991756 0.148214
H42   H     H_    0.610358 0.468796 0.072390 0.150954
H43   H     H_    0.675565 0.547869 0.922916 0.172562
H44   H     H_    0.636369 0.607503 0.996615 0.157350
H45   H     H_    0.261207 0.456320 0.352035 0.132205
H46   H     H_    0.680529 0.553079 0.134231 0.168410
H47   H     H_    0.720727 0.606088 0.055701 0.149453
H48   H     H_    0.719896 0.492378 0.060492 0.152365
H49   H     H_    0.460584 0.753325 0.855990 0.150817
H50   H     H_    0.468523 0.651779 0.810132 0.132461
H51   H     H_    0.544615 0.755829 0.920008 0.166174
H52   H     H_    0.556267 0.654308 0.869679 0.177414
H53   H     H_    0.540109 0.712086 0.714145 0.183395
H54   H     H_    0.587678 0.769162 0.771525 0.141576
H55   H     H_    0.528154 0.814756 0.762948 0.136439
H56   H     H_    0.735363 0.602465 0.381645 0.127419
H57   H     H_    0.574981 0.266032 0.999973 0.146656
H58   H     H_    0.536698 0.320983 0.921777 0.149126
H59   H     H_    0.505223 0.190276 0.067604 0.173514
H60   H     H_    0.463948 0.248677 0.996313 0.163212
H61   H     H_    0.501737 0.187178 0.856178 0.146415
H62   H     H_    0.479995 0.106087 0.932570 0.147076
H63   H     H_    0.543869 0.128894 0.927116 0.146004
H64   H     H_    0.607287 0.327853 0.500541 0.159275
H65   H     H_    0.664699 0.276128 0.517875 0.160757
H66   H     H_    0.615366 0.257500 0.596135 0.134193
H67   H     H_    0.113812 0.302956 0.454904 0.159008
H68   H     H_    0.674891 0.351803 0.665568 0.137944
H69   H     H_    0.620471 0.404336 0.653069 0.186108
H70   H     H_    0.398386 0.658430 0.568959 0.168497
H71   H     H_    0.343062 0.709974 0.601536 0.154959
H72   H     H_    0.390792 0.695290 0.684334 0.123060
H73   H     H_    0.324822 0.596670 0.710791 0.127130
H74   H     H_    0.376519 0.540800 0.687302 0.169445
H75   H     H_    0.721501 0.450354 0.739991 0.150070
H76   H     H_    0.781321 0.409066 0.759278 0.134086
H77   H     H_    0.773779 0.511695 0.707856 0.179894
H78   H     H_    0.884073 0.710287 0.544019 0.158568
H79   H     H_    0.748898 0.338848 0.620210 0.139961
H80   H     H_    0.797295 0.405945 0.594219 0.169960
H81   H     H_    0.229698 0.427779 0.696373 0.179510
H82   H     H_    0.281562 0.477977 0.747737 0.140447
H83   H     H_    0.221551 0.507102 0.783232 0.136021
H84   H     H_    0.250663 0.619456 0.677681 0.140847
H85   H     H_    0.202703 0.561891 0.630974 0.170738
H86   H     H_    0.905085 0.301095 0.198519 0.150326
H87   H     H_    0.945147 0.387403 0.168664 0.162687
H88   H     H_    0.963003 0.279711 0.148500 0.137655
H89   H     H_    0.874239 0.328273 0.343470 0.160972
H90   H     H_    0.005839 0.329403 0.278962 0.157076
H91   H     H_    0.962293 0.253518 0.319665 0.137363
H92   H     H_    0.094264 0.806317 0.314511 0.152104
H93   H     H_    0.054467 0.738389 0.249019 0.162827
H94   H     H_    0.036547 0.844590 0.276767 0.137314
H95   H     H_    0.993190 0.750929 0.373945 0.156880
H96   H     H_    0.036491 0.805104 0.444980 0.138144
N1    N     N_R   0.199464 0.510958 0.472773 -0.396856
N2    N     N_R   0.798924 0.512239 0.470704 -0.395972
N3    N     N_1   0.499980 0.500000 0.274190 -0.175050
N4    N     N_1   0.500020 0.500000 0.725810 -0.202901
O1    O     O_R   0.500010 0.379080 0.576170 -0.492545
O2    O     O_2   0.801341 0.645805 0.540477 -0.526107
O3    O     O_2   0.794736 0.380307 0.397638 -0.516072
O4    O     O_2   0.203991 0.658887 0.462451 -0.513244
O5    O     O_3   0.354546 0.432143 0.351677 -0.539363
O6    O     O_3   0.640125 0.617412 0.391949 -0.559560
O7    O     O_3   0.408999 0.536162 0.067458 -0.531197
O8    O     O_3   0.589423 0.473588 0.931886 -0.578728
O9    O     O_3   0.465863 0.661442 0.952858 -0.559581
O10   O     O_3   0.531168 0.351864 0.063552 -0.570677
O11   O     O_R   0.499990 0.620920 0.423830 -0.476386
O12   O     O_R   0.500000 0.379080 0.423800 -0.500279
O13   O     O_R   0.500000 0.620920 0.576200 -0.516232
O14   O     O_R   0.430270 0.500020 0.576180 -0.520758
O15   O     O_R   0.569730 0.499980 0.423820 -0.449602
O16   O     O_R   0.430260 0.500010 0.423810 -0.431403
O17   O     O_R   0.569740 0.499990 0.576190 -0.512421
O18   O     O_2   0.196526 0.362751 0.480219 -0.527006

loop_
_geom_bond_atom_site_label_1
_geom_bond_atom_site_label_2
_ccdc_geom_bond_type
C70   H29   S    
C25   C31   T    
C80   H53   S    
C66   C68   S    
C34   C56   A    
C93   C94   S    
C23   C45   A    
Cu1   O14   S    
C91   H85   S    
C27   C29   S    
C37   O8    S    
Cu1   O1    S    
C36   C42   S    
C95   C96   S    
C94   H87   S    
C15   H2    S    
C73   H39   S    
C81   C82   S    
C80   H55   S    
C20   C30   S    
C26   C32   T    
Cu2   O12   S    
C90   H75   S    
C53   O5    S    
C81   H58   S    
C94   H86   S    
C4    C52   A    
C86   H74   S    
C50   C59   A    
C96   H93   S    
C47   N1    A    
C35   C37   S    
C62   H11   S    
C12   O11   A    
C38   C42   S    
C41   N2    A    
C92   H83   S    
C77   O9    S    
C82   H60   S    
C19   H4    S    
C57   C59   A    
C73   H40   S    
C87   H71   S    
Cu1   Cu2   S    
C58   N1    S    
C33   C36   S    
C56   C78   A    
C51   C86   S    
C80   H54   S    
C96   H92   S    
C61   H10   S    
C35   C42   S    
C28   C66   S    
C75   H43   S    
C63   H16   S    
C3    C16   S    
C83   H62   S    
C69   H32   S    
C49   C51   A    
C45   C67   A    
C50   C52   A    
C65   H20   S    
C24   C27   S    
C92   H82   S    
C77   H49   S    
C61   C62   S    
C27   C69   S    
C50   C88   S    
C79   H51   S    
C70   H28   S    
C77   C79   S    
C83   H63   S    
C76   H48   S    
C44   N3    T    
C95   H95   S    
C64   H17   S    
C22   C28   S    
C48   N2    A    
C78   H78   S    
C85   H64   S    
C47   C89   A    
C1    O1    A    
C42   C44   S    
C49   C91   S    
C41   O2    S    
C17   O15   A    
C68   H25   S    
C67   H67   S    
C21   H12   S    
C53   C55   A    
C40   C45   A    
Cu2   O11   S    
C55   H45   S    
C74   C75   S    
C62   H13   S    
C86   H73   S    
C33   C43   S    
C88   H79   S    
C84   H68   S    
C84   C85   S    
C63   O6    S    
C68   H24   S    
C91   C92   S    
C11   C93   S    
C82   H59   S    
C3    C51   A    
C86   C87   S    
C72   H37   S    
C39   C43   S    
C2    C48   A    
C18   C67   A    
C87   H72   S    
C74   H42   S    
C64   H18   S    
C8    C18   A    
C49   C58   A    
C63   C64   S    
C47   O4    S    
C12   C26   S    
C60   C61   S    
C24   H6    S    
C18   H3    S    
C38   H34   S    
C37   C43   S    
C19   C78   A    
C35   C39   S    
C75   C76   S    
C41   C56   A    
C5    C9    A    
C37   C38   S    
C92   H81   S    
C15   C89   A    
C60   O5    S    
C72   H36   S    
C87   H70   S    
C73   H38   S    
C16   O14   A    
C40   O18   S    
C23   C89   A    
C71   H35   S    
C65   H21   S    
C62   H14   S    
C16   O16   A    
C77   H50   S    
C79   H52   S    
C4    C17   S    
C76   H46   S    
C69   H31   S    
Cu2   O15   S    
C13   C95   S    
C76   H47   S    
C95   H96   S    
C7    C19   A    
C81   O10   S    
C52   C84   S    
C9    C34   A    
C85   H65   S    
C66   H26   S    
C21   C24   S    
C60   H8    S    
C74   O8    S    
C70   H30   S    
C7    C9    A    
C61   H9    S    
C33   O9    S    
C88   C90   S    
Cu1   O13   S    
Cu2   N3    S    
C4    C54   A    
C1    O12   A    
Cu1   N4    S    
C21   C28   S    
C36   C39   S    
C94   H88   S    
C12   O13   A    
C20   C22   S    
C72   C73   S    
C81   H57   S    
C6    C10   A    
C5    C8    A    
C1    C25   S    
C5    C11   A    
C6    C7    A    
C20   C27   S    
C93   H91   S    
C10   C23   A    
C74   H41   S    
C90   H76   S    
C33   C38   S    
C39   H23   S    
C66   H27   S    
C64   C65   S    
C96   H94   S    
C13   C15   A    
C71   C72   S    
C29   C31   S    
C84   H69   S    
C68   H22   S    
C75   H44   S    
C30   C32   S    
C14   H89   S    
C3    C53   A    
C2    C34   A    
C55   C58   A    
C20   H1    S    
C21   C29   S    
C54   O6    S    
C90   H77   S    
C28   C30   S    
C11   C14   A    
C63   H15   S    
C59   N2    S    
C36   O7    S    
Cu2   O16   S    
C69   C70   S    
C2    C14   A    
C43   C46   S    
C24   C30   S    
C46   N4    T    
C22   H5    S    
C71   H33   S    
C79   C80   S    
C48   O3    S    
C93   H90   S    
C35   O10   S    
C71   O7    S    
C83   H61   S    
C8    C10   A    
C82   C83   S    
Cu1   O17   S    
C91   H84   S    
C22   C29   S    
C85   H66   S    
C65   H19   S    
C17   O17   A    
C57   H56   S    
C88   H80   S    
C40   N1    A    
C60   H7    S    
C6    C13   A    
C54   C57   A    
