data_mof_unit_11616.cif
_audit_creation_date              2012-12-10T17:31:55-0500
_audit_creation_method            fapswitch 2.2
_symmetry_space_group_name_H-M    P1
_symmetry_Int_Tables_number       1
_space_group_crystal_system       triclinic
_cell_length_a                    12.228977
_cell_length_b                    11.509783
_cell_length_c                    12.689743
_cell_angle_alpha                 93.895266
_cell_angle_beta                  93.74216
_cell_angle_gamma                 86.644419
_cell_volume                      1775.56491761

loop_
_atom_site_label
_atom_site_type_symbol
_atom_type_description
_atom_site_fract_x
_atom_site_fract_y
_atom_site_fract_z
_atom_type_partial_charge
C1    C     C_R   0.479010 0.508083 0.298725 0.863333
C2    C     C_R   0.520825 0.478669 0.697100 0.887900
C3    C     C_R   0.052030 0.614800 0.602040 0.089429
C4    C     C_R   0.951788 0.367377 0.419507 0.118182
C5    C     C_R   0.164687 0.608141 0.583791 0.259844
C6    C     C_R   0.837112 0.382359 0.428420 0.257059
C7    C     C_R   0.140710 0.444929 0.460415 0.188703
C8    C     C_R   0.859156 0.555615 0.540105 0.183111
C9    C     C_R   0.023795 0.449864 0.472469 -0.098194
C10   C     C_R   0.977629 0.540603 0.540273 -0.075675
C11   C     C_R   0.499604 0.282414 0.499056 0.880224
C12   C     C_R   0.500244 0.717547 0.500608 0.897122
C13   C     C_1   0.498965 0.161840 0.499737 -0.218630
C14   C     C_1   0.500440 0.838195 0.500760 -0.202804
C15   C     C_1   0.499159 0.059487 0.500356 -0.019344
C16   C     C_1   0.499969 0.940607 0.500731 -0.011452
C17   C     C_R   0.530531 0.433912 0.803015 -0.233156
C18   C     C_R   0.469350 0.510040 0.182792 -0.212826
C19   C     C_R   0.348761 0.486979 0.024420 0.150793
C20   C     C_R   0.637883 0.387248 0.962306 0.188077
C21   C     C_R   0.368188 0.535933 0.128257 0.145999
C22   C     C_R   0.632098 0.398022 0.852447 0.128848
C23   C     C_R   0.562141 0.477152 0.124736 0.154808
C24   C     C_R   0.434638 0.422532 0.857022 0.149495
C25   C     C_R   0.547566 0.435494 0.019341 -0.024189
C26   C     C_R   0.441072 0.442975 0.967420 -0.038814
N1    N     N_R   0.792200 0.479100 0.480660 -0.154209
N2    N     N_R   0.207800 0.520900 0.519340 -0.151787
O1    O     O_R   0.578300 0.494420 0.341180 -0.598544
O2    O     O_R   0.421700 0.505580 0.658820 -0.608826
O3    O     O_R   0.390690 0.507830 0.353590 -0.640695
O4    O     O_R   0.609310 0.492170 0.646410 -0.634716
O5    O     O_R   0.593810 0.327740 0.493800 -0.584214
O6    O     O_R   0.406190 0.672260 0.506200 -0.581305
O7    O     O_R   0.406190 0.341150 0.506220 -0.644344
O8    O     O_R   0.593810 0.658850 0.493780 -0.626359
Zn1   Zn    Zn3+2 0.625270 0.491050 0.491710 0.920101
Zn2   Zn    Zn3+2 0.374730 0.508950 0.508290 0.920219
N3    N     N_2   0.340906 0.371493 0.804111 -0.286196
H1    H     H_    0.294435 0.420663 0.751296 0.252683
C27   C     C_3   0.357742 0.250263 0.768059 -0.755504
H2    H     H_    0.278541 0.216129 0.735581 0.229219
H3    H     H_    0.389169 0.197910 0.835123 0.237218
H4    H     H_    0.417149 0.240808 0.705233 0.237082
N4    N     N_2   0.669574 0.507430 0.163758 -0.296408
H5    H     H_    0.709746 0.455450 0.218495 0.244305
C28   C     C_3   0.687477 0.630763 0.178581 -0.758590
H6    H     H_    0.662614 0.674380 0.104601 0.235289
H7    H     H_    0.776024 0.643079 0.198201 0.225801
H8    H     H_    0.639985 0.671919 0.244218 0.247573
N5    N     N_2   0.723655 0.361102 0.791945 -0.303125
H9    H     H_    0.708417 0.322626 0.717070 0.246201
C29   C     C_3   0.820551 0.428238 0.808049 -0.807694
H10   H     H_    0.836950 0.466321 0.733394 0.248979
H11   H     H_    0.892338 0.369848 0.830953 0.231398
H12   H     H_    0.811227 0.499825 0.870765 0.243896
N6    N     N_2   0.296099 0.628630 0.168469 -0.316369
H13   H     H_    0.301893 0.646399 0.249012 0.256029
C30   C     C_3   0.299496 0.736144 0.115820 -0.845540
H14   H     H_    0.237427 0.801233 0.147699 0.243465
H15   H     H_    0.280668 0.722162 0.029269 0.244954
H16   H     H_    0.382031 0.771973 0.130058 0.246104
C31   C     C_3   0.231026 0.490805 0.976089 -0.359149
C32   C     C_3   0.181847 0.370608 0.966597 -0.854441
H17   H     H_    0.246178 0.298450 0.968259 0.277916
H18   H     H_    0.127959 0.361801 0.032239 0.238569
H19   H     H_    0.130438 0.360561 0.891426 0.246895
H20   H     H_    0.175099 0.549514 0.023514 0.230382
H21   H     H_    0.227670 0.528856 0.898563 0.180864
C33   C     C_3   0.732961 0.315135 0.014472 -0.370725
C34   C     C_3   0.691952 0.217694 0.075295 -0.929648
H22   H     H_    0.644338 0.253465 0.142683 0.258711
H23   H     H_    0.639173 0.161150 0.021708 0.268092
H24   H     H_    0.762985 0.163360 0.106949 0.250765
H25   H     H_    0.786202 0.270943 0.954883 0.233147
H26   H     H_    0.788131 0.370314 0.066070 0.202755
C35   C     C_3   0.804671 0.657207 0.602801 -0.294617
C36   C     C_3   0.806531 0.771209 0.547660 -0.841572
H27   H     H_    0.891742 0.797783 0.543484 0.243470
H28   H     H_    0.769122 0.761081 0.465680 0.268747
H29   H     H_    0.759458 0.841578 0.592232 0.241431
H30   H     H_    0.721920 0.639559 0.619507 0.249171
H31   H     H_    0.835398 0.667048 0.685533 0.195818
C37   C     C_3   0.189980 0.372754 0.369270 -0.308887
C38   C     C_3   0.155554 0.425356 0.264300 -0.857131
H32   H     H_    0.067658 0.416609 0.241656 0.267147
H33   H     H_    0.168557 0.519804 0.271143 0.267887
H34   H     H_    0.205546 0.382284 0.201563 0.253790
H35   H     H_    0.278056 0.370153 0.376259 0.261472
H36   H     H_    0.178545 0.278628 0.368372 0.184572
N7    N     N_2   0.767273 0.292905 0.388259 -0.245186
H37   H     H_    0.759888 0.280288 0.307205 0.211442
C39   C     C_3   0.776723 0.185794 0.443483 -0.716660
H38   H     H_    0.852157 0.132451 0.425979 0.218091
H39   H     H_    0.706694 0.131856 0.416882 0.233932
H40   H     H_    0.775742 0.205358 0.530419 0.236898
N8    N     N_2   0.230501 0.703044 0.618712 -0.253362
H41   H     H_    0.200542 0.782958 0.593939 0.193119
C40   C     C_3   0.278867 0.707555 0.725846 -0.709688
H42   H     H_    0.273321 0.624019 0.762464 0.227304
H43   H     H_    0.237344 0.778592 0.774590 0.196917
H44   H     H_    0.366655 0.726724 0.725006 0.241847
N9    N     N_2   0.018096 0.690719 0.688499 -0.298292
H45   H     H_    0.041560 0.775416 0.690047 0.227574
C41   C     C_3   0.027151 0.641171 0.791222 -0.827237
H46   H     H_    0.951000 0.663513 0.832790 0.239667
H47   H     H_    0.095505 0.678798 0.841375 0.232101
H48   H     H_    0.040340 0.544566 0.784097 0.249021
N10   N     N_2   0.994200 0.259720 0.372088 -0.298479
H49   H     H_    0.027329 0.197305 0.421279 0.213604
C42   C     C_3   0.966008 0.225198 0.261993 -0.824913
H50   H     H_    0.042280 0.201963 0.220751 0.250688
H51   H     H_    0.919649 0.296650 0.220948 0.233750
H52   H     H_    0.916474 0.147084 0.256370 0.238496

loop_
_geom_bond_atom_site_label_1
_geom_bond_atom_site_label_2
_ccdc_geom_bond_type
C4    N10   S    
C39   H38   S    
C23   N4    S    
C18   C21   A    
C27   H2    S    
C42   H50   S    
N8    H41   S    
N3    C27   S    
C35   C36   S    
C41   H47   S    
C1    C18   S    
O8    Zn1   S    
C19   C21   A    
C24   C26   A    
N10   C42   S    
C36   H28   S    
N6    C30   S    
C20   C25   A    
C35   H31   S    
C15   C16   S    
C1    O3    A    
C24   N3    S    
O2    Zn2   S    
C2    O4    A    
C19   C26   A    
C42   H51   S    
C6    N1    A    
C19   C31   S    
C33   C34   S    
C12   O8    A    
C9    C10   A    
C29   H12   S    
N4    C28   S    
C7    C37   S    
C30   H14   S    
C39   H39   S    
C2    C17   S    
C27   H3    S    
C20   C33   S    
C37   H36   S    
N8    C40   S    
C28   H8    S    
C29   H11   S    
C41   H48   S    
C30   H15   S    
C17   C24   A    
C38   H33   S    
C18   C23   A    
C32   H19   S    
C31   H21   S    
C11   O5    A    
O7    Zn2   S    
C37   C38   S    
C4    C6    A    
N7    H37   S    
C34   H23   S    
C36   H27   S    
C25   C26   A    
C38   H32   S    
O5    Zn1   S    
C7    N2    A    
N5    H9    S    
N5    C29   S    
C32   H18   S    
C21   N6    S    
N7    C39   S    
C5    N2    A    
C28   H6    S    
N2    Zn2   S    
C1    O1    A    
N9    C41   S    
O4    Zn1   S    
C40   H43   S    
C12   C14   S    
C39   H40   S    
C13   C15   T    
C33   H26   S    
C8    C35   S    
C27   H4    S    
C14   C16   T    
C37   H35   S    
C12   O6    A    
N3    H1    S    
C38   H34   S    
C3    N9    S    
C7    C9    A    
C31   H20   S    
C30   H16   S    
O6    Zn2   S    
C20   C22   A    
C3    C5    A    
C34   H24   S    
O3    Zn2   S    
C29   H10   S    
C28   H7    S    
C41   H46   S    
C17   C22   A    
C40   H42   S    
C2    O2    A    
C32   H17   S    
C11   O7    A    
C34   H22   S    
C3    C10   A    
N10   H49   S    
C11   C13   S    
C36   H29   S    
N6    H13   S    
C35   H30   S    
N1    Zn1   S    
C5    N8    S    
C42   H52   S    
C23   C25   A    
C31   C32   S    
N4    H5    S    
C40   H44   S    
C33   H25   S    
C8    C10   A    
O1    Zn1   S    
N9    H45   S    
C8    N1    A    
C4    C9    A    
C6    N7    S    
C22   N5    S    
