data_mof_unit_28029.cif
_audit_creation_date              2012-12-11T17:09:37-0500
_audit_creation_method            fapswitch 2.2
_symmetry_space_group_name_H-M    P1
_symmetry_Int_Tables_number       1
_space_group_crystal_system       triclinic
_cell_length_a                    14.839239
_cell_length_b                    6.930608
_cell_length_c                    13.453208
_cell_angle_alpha                 90.000154
_cell_angle_beta                  99.922266
_cell_angle_gamma                 90.000098
_cell_volume                      1362.89928336

loop_
_atom_site_label
_atom_site_type_symbol
_atom_type_description
_atom_site_fract_x
_atom_site_fract_y
_atom_site_fract_z
_atom_type_partial_charge
O1    O     O_R   0.586930 0.505770 0.416350 -0.535024
O2    O     O_R   0.413070 0.005770 0.583650 -0.535023
O3    O     O_R   0.397900 0.173100 0.389630 -0.537305
O4    O     O_R   0.602100 0.673100 0.610370 -0.537309
C1    C     C_R   0.364197 0.345378 0.362968 0.729115
C2    C     C_R   0.635802 0.845379 0.637032 0.729123
O5    O     O_R   0.585280 0.175870 0.404330 -0.545893
O6    O     O_R   0.414720 0.675870 0.595670 -0.545894
O7    O     O_R   0.601790 0.008380 0.598460 -0.534564
O8    O     O_R   0.398210 0.508380 0.401540 -0.534566
C3    C     C_R   0.613582 0.344829 0.381678 0.733004
C4    C     C_R   0.386417 0.844829 0.618322 0.732999
O9    O     O_3   0.505200 0.340120 0.563670 -0.369235
O10   O     O_3   0.494800 0.840120 0.436330 -0.369233
V1    V     V_3+5 0.499040 0.064180 0.488190 1.402479
V2    V     V_3+5 0.500960 0.564180 0.511810 1.402471
C5    C     C_R   0.255620 0.006367 0.679783 0.005125
C6    C     C_R   0.744379 0.506368 0.320216 0.005121
C7    C     C_R   0.317405 0.853301 0.685525 -0.143382
C8    C     C_R   0.682594 0.353302 0.314474 -0.143385
C9    C     C_R   0.311299 0.708069 0.756866 -0.276153
C10   C     C_R   0.688700 0.208069 0.243132 -0.276142
H1    H     H_    0.359064 0.588795 0.764741 0.135149
H2    H     H_    0.640935 0.088795 0.235256 0.135152
C11   C     C_R   0.248977 0.723518 0.825096 0.464871
C12   C     C_R   0.751024 0.223515 0.174905 0.464873
C13   C     C_R   0.184964 0.877269 0.816503 -0.222320
C14   C     C_R   0.815036 0.377269 0.183498 -0.222328
C15   C     C_R   0.188334 0.015939 0.741114 -0.069050
C16   C     C_R   0.811666 0.515940 0.258886 -0.069048
C17   C     C_3   0.204455 0.229055 0.754742 0.353143
C18   C     C_3   0.795544 0.729055 0.245257 0.353149
C19   C     C_3   0.277693 0.215881 0.688293 -0.450675
C20   C     C_3   0.722307 0.715882 0.311706 -0.450677
H3    H     H_    0.234011 0.260996 0.834471 0.125496
H4    H     H_    0.765988 0.760992 0.165528 0.125499
H5    H     H_    0.347803 0.242069 0.730757 0.142578
H6    H     H_    0.652196 0.742069 0.269243 0.142576
H7    H     H_    0.263759 0.287943 0.613867 0.174539
H8    H     H_    0.736240 0.787946 0.386132 0.174541
C21   C     C_1   0.783696 0.877202 0.782599 -0.197417
C22   C     C_1   0.216303 0.377202 0.217401 -0.197405
C23   C     C_1   0.716362 0.860085 0.716562 -0.187243
C24   C     C_1   0.283637 0.360084 0.283439 -0.187257
O11   O     O_R   0.101720 0.231700 0.098560 -0.544241
O12   O     O_R   0.898280 0.731700 0.901440 -0.544241
O13   O     O_R   0.914700 0.558980 0.095690 -0.542815
O14   O     O_R   0.085300 0.058980 0.904310 -0.542817
C25   C     C_R   0.884040 0.390001 0.115771 0.727279
C26   C     C_R   0.115960 0.890001 0.884229 0.727291
O15   O     O_R   0.102080 0.561590 0.110390 -0.537559
O16   O     O_R   0.897920 0.061590 0.889610 -0.537563
O17   O     O_R   0.086950 0.728940 0.916330 -0.506632
O18   O     O_R   0.913050 0.228940 0.083670 -0.506634
C27   C     C_R   0.135945 0.391943 0.137613 0.739473
C28   C     C_R   0.864055 0.891943 0.862386 0.739465
O19   O     O_3   0.994770 0.394510 0.936380 -0.361981
O20   O     O_3   0.005230 0.894510 0.063620 -0.361980
V3    V     V_3+5 0.000970 0.670520 0.011800 1.502152
V4    V     V_3+5 0.999030 0.170520 0.988200 1.502144
O21   O     O_3   0.252196 0.589196 0.901601 -0.569372
C29   C     C_3   0.328289 0.625752 0.978544 0.034613
H9    H     H_    0.303892 0.705308 0.040607 0.129250
H10   H     H_    0.383463 0.713696 0.953611 0.110270
C30   C     C_3   0.369878 0.433305 0.018899 -0.290398
H11   H     H_    0.316743 0.344562 0.046179 0.189381
H12   H     H_    0.394041 0.353497 0.956783 0.173924
C31   C     C_3   0.450298 0.462709 0.105102 -0.845459
H13   H     H_    0.506113 0.543421 0.078117 0.221312
H14   H     H_    0.477251 0.320254 0.134129 0.218428
H15   H     H_    0.428080 0.543755 0.167894 0.232800
O22   O     O_3   0.747808 0.089187 0.098404 -0.569372
C32   C     C_3   0.671735 0.125782 0.021442 0.034616
H16   H     H_    0.696162 0.205300 0.959387 0.129239
H17   H     H_    0.616566 0.213776 0.046353 0.110275
C33   C     C_3   0.630125 0.933352 0.981077 -0.290373
H18   H     H_    0.683253 0.844596 0.953785 0.189365
H19   H     H_    0.605959 0.853539 0.043192 0.173929
C34   C     C_3   0.549703 0.962803 0.894883 -0.845498
H20   H     H_    0.493875 0.043408 0.921898 0.221317
H21   H     H_    0.522776 0.820369 0.865800 0.218428
H22   H     H_    0.571905 0.043970 0.832123 0.232810
O23   O     O_3   0.127017 0.349262 0.720685 -0.545023
C35   C     C_3   0.087324 0.329151 0.617381 0.125281
H23   H     H_    0.012121 0.320147 0.612741 0.128746
H24   H     H_    0.107356 0.194934 0.581563 0.118306
C36   C     C_3   0.107685 0.508592 0.558096 -0.321142
H25   H     H_    0.062191 0.628534 0.572990 0.184780
H26   H     H_    0.179148 0.557485 0.583281 0.210011
C37   C     C_3   0.093596 0.468636 0.444853 -0.869206
H27   H     H_    0.137076 0.345987 0.428737 0.233330
H28   H     H_    0.113445 0.597657 0.404776 0.231996
H29   H     H_    0.020733 0.434435 0.415802 0.225269
O24   O     O_3   0.872982 0.849263 0.279313 -0.545021
C38   C     C_3   0.912675 0.829157 0.382617 0.125281
H30   H     H_    0.987878 0.820155 0.387258 0.128742
H31   H     H_    0.892644 0.694940 0.418436 0.118308
C39   C     C_3   0.892312 0.008599 0.441901 -0.321145
H32   H     H_    0.937812 0.128536 0.427013 0.184777
H33   H     H_    0.820851 0.057500 0.416708 0.210015
C40   C     C_3   0.906390 0.968641 0.555144 -0.869196
H34   H     H_    0.862902 0.846003 0.571253 0.233328
H35   H     H_    0.886544 0.097667 0.595219 0.231995
H36   H     H_    0.979251 0.934423 0.584201 0.225268

loop_
_geom_bond_atom_site_label_1
_geom_bond_atom_site_label_2
_ccdc_geom_bond_type
C18   O24   S    
C36   H25   S    
O11   V4    S    
C40   H34   S    
O12   V3    S    
C13   C15   A    
C5    C15   A    
C32   H16   S    
C38   H30   S    
O1    C3    A    
C35   C36   S    
O2    C4    A    
C2    O7    A    
O17   V3    S    
C38   C39   S    
C17   O23   S    
O13   C25   A    
O18   V4    S    
O5    C3    A    
C19   H7    S    
C22   C24   T    
C20   H8    S    
C18   H4    S    
C10   H2    S    
C7    C9    A    
C35   H24   S    
O19   V3    S    
O20   V4    S    
C25   O18   A    
C12   O22   S    
C29   H10   S    
O16   V4    S    
C31   H13   S    
C30   H12   S    
C17   C19   S    
C6    C16   A    
O10   V2    S    
O15   C27   A    
C13   C26   S    
O14   C26   A    
O6    V2    S    
C21   C23   T    
O21   C29   S    
C5    C19   S    
O14   V4    S    
C3    C8    S    
C26   O17   A    
C33   H18   S    
O4    C2    A    
C34   H21   S    
O19   V4    S    
O5    V1    S    
O20   V3    S    
C19   H5    S    
C18   C20   S    
O4    V2    S    
C21   C28   S    
C29   H9    S    
C22   C27   S    
C14   C25   S    
C37   H28   S    
O23   C35   S    
O6    C4    A    
C30   C31   S    
O1    V2    S    
C11   O21   S    
C35   H23   S    
O2    V1    S    
C6    C20   S    
C31   H14   S    
C1    C24   S    
C8    C10   A    
C30   H11   S    
C40   H36   S    
C39   H33   S    
C2    C23   S    
C9    H1    S    
C32   C33   S    
C17   H3    S    
C36   C37   S    
O15   V3    S    
C32   H17   S    
O3    V1    S    
C37   H29   S    
C9    C11   A    
C29   C30   S    
C20   H6    S    
C33   H19   S    
O22   C32   S    
O3    C1    A    
C34   H22   S    
C38   H31   S    
C11   C13   A    
C39   C40   S    
C12   C14   A    
O9    V1    S    
O7    V1    S    
C1    O8    A    
C15   C17   S    
O8    V2    S    
C16   C18   S    
C37   H27   S    
C31   H15   S    
C4    C7    S    
C14   C16   A    
C5    C7    A    
C6    C8    A    
O24   C38   S    
O13   V3    S    
C34   H20   S    
C33   C34   S    
O11   C27   A    
C40   H35   S    
C39   H32   S    
C10   C12   A    
O9    V2    S    
O12   C28   A    
C36   H26   S    
O10   V1    S    
O16   C28   A    
