data_mof_unit_27857.cif
_audit_creation_date              2012-12-10T18:57:11-0500
_audit_creation_method            fapswitch 2.2
_symmetry_space_group_name_H-M    P1
_symmetry_Int_Tables_number       1
_space_group_crystal_system       triclinic
_cell_length_a                    10.71598
_cell_length_b                    9.960799
_cell_length_c                    10.655714
_cell_angle_alpha                 90.510077
_cell_angle_beta                  92.408834
_cell_angle_gamma                 91.767069
_cell_volume                      1135.78328057

loop_
_atom_site_label
_atom_site_type_symbol
_atom_type_description
_atom_site_fract_x
_atom_site_fract_y
_atom_site_fract_z
_atom_type_partial_charge
C1    C     C_R   0.261231 0.498729 0.510209 0.898721
C2    C     C_R   0.553734 0.601874 0.938906 0.093427
C3    C     C_R   0.486697 0.502067 0.127706 -0.189598
C4    C     C_R   0.486719 0.503005 0.870532 -0.200302
C5    C     C_R   0.397174 0.420493 0.060707 0.296164
C6    C     C_R   0.401935 0.415094 0.928591 0.291574
C7    C     C_3   0.689684 0.639810 0.937223 -0.458428
C8    C     C_3   0.690044 0.639620 0.079383 -0.498685
C9    C     C_R   0.060212 0.383787 0.484384 -0.223671
C10   C     C_R   0.933182 0.388495 0.471593 -0.234885
C11   C     C_R   0.874422 0.509337 0.492265 -0.072951
C12   C     C_R   0.740192 0.502802 0.495150 0.833151
C13   C     C_R   0.129139 0.497587 0.524727 -0.051587
C14   C     C_R   0.945744 0.629197 0.521950 0.071319
C15   C     C_R   0.069822 0.614818 0.563340 0.084420
C16   C     C_3   0.899556 0.770388 0.495594 -0.413149
C17   C     C_3   0.863076 0.788809 0.356104 -0.302417
C18   C     C_3   0.816805 0.930054 0.331308 -0.915065
C19   C     C_3   0.132561 0.716460 0.656577 -0.451932
C20   C     C_3   0.180600 0.648162 0.777065 -0.311288
C21   C     C_3   0.245813 0.749439 0.868255 -0.851096
C22   C     C_3   0.662974 0.143787 0.681580 -0.277268
C23   C     C_R   0.570847 0.073633 0.588356 0.091639
C24   C     C_3   0.798995 0.105807 0.661512 -0.391980
C25   C     C_3   0.891044 0.192013 0.743430 -0.885368
C26   C     C_3   0.340604 0.130238 0.316529 -0.291051
C27   C     C_3   0.202228 0.082515 0.323770 -0.371185
C28   C     C_3   0.160878 0.967142 0.234055 -0.805368
C29   C     C_R   0.430520 0.066079 0.410269 -0.029329
C30   C     C_R   0.561986 0.931038 0.593461 0.359157
C31   C     C_R   0.442710 0.923152 0.404037 0.453603
C32   C     C_R   0.497235 0.499820 0.260377 0.971781
C33   C     C_R   0.498812 0.500446 0.739313 0.931970
C34   C     C_R   0.554522 0.600650 0.066500 0.077950
H1    H     H_    0.746292 0.559435 0.897041 0.182630
H2    H     H_    0.795832 0.942573 0.229288 0.246645
H3    H     H_    0.730358 0.946694 0.382246 0.259434
H4    H     H_    0.945579 0.771563 0.298965 0.215166
H5    H     H_    0.788804 0.715036 0.324752 0.237305
H6    H     H_    0.822745 0.794959 0.556554 0.214125
H7    H     H_    0.973925 0.848179 0.516553 0.189754
H8    H     H_    0.180732 0.828878 0.893993 0.251713
H9    H     H_    0.277174 0.697474 0.955236 0.253664
H10   H     H_    0.328823 0.796471 0.825114 0.283775
H11   H     H_    0.100778 0.598740 0.823844 0.221621
H12   H     H_    0.704918 0.741802 0.120594 0.217112
H13   H     H_    0.247348 0.569880 0.754595 0.239682
H14   H     H_    0.208288 0.775507 0.612779 0.237721
H15   H     H_    0.064726 0.790200 0.688280 0.192082
H16   H     H_    0.880852 0.300235 0.722465 0.268413
H17   H     H_    0.874432 0.175234 0.844368 0.260745
H18   H     H_    0.988141 0.164235 0.724637 0.262191
H19   H     H_    0.813977 0.999361 0.685414 0.252893
H20   H     H_    0.820486 0.119199 0.561494 0.220485
H21   H     H_    0.661236 0.252198 0.674273 0.249378
H22   H     H_    0.637433 0.118590 0.778841 0.206783
H23   H     H_    0.706572 0.741528 0.898351 0.240206
H24   H     H_    0.210306 0.972714 0.144649 0.254192
H25   H     H_    0.174756 0.868706 0.279419 0.294956
H26   H     H_    0.059439 0.973296 0.210201 0.234243
H27   H     H_    0.179854 0.056362 0.421721 0.211538
H28   H     H_    0.143781 0.168205 0.295224 0.215374
H29   H     H_    0.339751 0.237237 0.336155 0.279645
H30   H     H_    0.373947 0.120204 0.219772 0.200195
H31   H     H_    0.648040 0.781661 0.662809 0.368335
H32   H     H_    0.411971 0.901330 0.225609 0.320346
H33   H     H_    0.747731 0.560082 0.122888 0.188257
H34   H     H_    0.104387 0.291122 0.463202 0.160499
H35   H     H_    0.881294 0.298061 0.441883 0.172324
H36   H     H_    0.231818 0.336310 0.068972 0.340153
H37   H     H_    0.307475 0.246108 0.906767 0.338257
H38   H     H_    0.889254 0.006851 0.362202 0.253620
N1    N     N_R   0.500000 0.857200 0.500000 -0.168814
N2    N     N_R   0.500000 0.142810 0.500000 -0.157515
O1    O     O_R   0.316770 0.614620 0.499990 -0.597037
O2    O     O_3   0.329233 0.325140 0.855430 -0.772952
O3    O     O_3   0.620198 0.868702 0.693276 -0.805433
O4    O     O_3   0.398730 0.847980 0.302057 -0.725419
O5    O     O_R   0.683230 0.614620 0.500010 -0.652737
O6    O     O_R   0.316800 0.385290 0.500000 -0.630317
O7    O     O_R   0.683200 0.385290 0.500000 -0.639517
O8    O     O_R   0.500000 0.614690 0.316780 -0.558307
O9    O     O_R   0.500000 0.614690 0.683220 -0.625529
O10   O     O_R   0.500020 0.385360 0.316780 -0.626753
O11   O     O_R   0.499980 0.385360 0.683220 -0.601180
O12   O     O_3   0.306728 0.352071 0.125372 -0.813842
Zn1   Zn    Zn3+2 0.500000 0.653120 0.500000 0.972126
Zn2   Zn    Zn3+2 0.500000 0.346880 0.500000 0.939495

loop_
_geom_bond_atom_site_label_1
_geom_bond_atom_site_label_2
_ccdc_geom_bond_type
O9    Zn1   S    
C2    C7    S    
O5    Zn1   S    
C7    C8    S    
C8    H33   S    
C15   C19   S    
C26   C27   S    
O7    Zn2   S    
C18   H3    S    
H37   O2    S    
C11   C14   A    
C31   N1    A    
C24   H20   S    
O8    Zn1   S    
C12   O5    A    
C9    C13   A    
C17   H5    S    
C33   O11   A    
C25   H16   S    
N1    Zn1   S    
C26   H30   S    
C27   H27   S    
C21   H9    S    
C30   O3    S    
C19   C20   S    
C16   C17   S    
C9    C10   A    
C20   H11   S    
C2    C34   A    
H32   O4    S    
C28   H26   S    
C18   H38   S    
C32   O10   A    
H31   O3    S    
C1    O1    A    
C23   C30   A    
C24   C25   S    
C4    C6    A    
C30   N1    A    
C19   H14   S    
C22   H22   S    
C29   N2    A    
C3    C34   A    
C24   H19   S    
C2    C4    A    
C26   H29   S    
C25   H17   S    
C27   H28   S    
C21   H10   S    
C19   H15   S    
C17   C18   S    
C8    C34   S    
C33   O9    A    
C16   H6    S    
C5    O12   S    
O1    Zn1   S    
C13   C15   A    
C14   C16   S    
C1    C13   S    
C23   N2    A    
H36   O12   S    
O11   Zn2   S    
C31   O4    S    
C28   H25   S    
C4    C33   S    
C14   C15   A    
C7    H1    S    
O10   Zn2   S    
C3    C5    A    
C11   C12   S    
C6    O2    S    
C22   H21   S    
C28   H24   S    
C32   O8    A    
C25   H18   S    
C29   C31   A    
C5    C6    A    
C12   O7    A    
C22   C24   S    
C17   H4    S    
C3    C32   S    
C8    H12   S    
C9    H34   S    
C20   H13   S    
C10   C11   A    
C21   H8    S    
C10   H35   S    
C20   C21   S    
C26   C29   S    
O6    Zn2   S    
C27   C28   S    
C1    O6    A    
C22   C23   S    
N2    Zn2   S    
C18   H2    S    
C16   H7    S    
C7    H23   S    
