data_mof_unit_62937.cif
_audit_creation_date              2012-12-10T18:24:10-0500
_audit_creation_method            fapswitch 2.2
_symmetry_space_group_name_H-M    P1
_symmetry_Int_Tables_number       1
_space_group_crystal_system       triclinic
_cell_length_a                    16.085831
_cell_length_b                    16.101402
_cell_length_c                    16.095364
_cell_angle_alpha                 95.976925
_cell_angle_beta                  84.427312
_cell_angle_gamma                 90.186285
_cell_volume                      4126.41436293

loop_
_atom_site_label
_atom_site_type_symbol
_atom_type_description
_atom_site_fract_x
_atom_site_fract_y
_atom_site_fract_z
_atom_type_partial_charge
C1    C     C_R   0.510639 0.724257 0.510731 0.510042
C2    C     C_1   0.486969 0.186248 0.482671 0.022462
C3    C     C_1   0.515490 0.482442 0.184807 -0.020076
C4    C     C_R   0.489271 0.275717 0.489192 0.504719
C5    C     C_2   0.522292 0.471058 0.017780 0.277985
C6    C     C_2   0.473251 0.522124 0.981266 0.012705
C7    C     C_1   0.479317 0.519193 0.890686 0.009749
C8    C     C_1   0.518956 0.477355 0.109314 -0.069378
C9    C     C_1   0.484083 0.516109 0.815220 0.023027
C10   C     C_R   0.510770 0.488042 0.274589 0.509016
C11   C     C_R   0.489282 0.511929 0.725416 0.504761
C12   C     C_1   0.111080 0.519142 0.519182 0.008894
C13   C     C_R   0.724302 0.488244 0.488246 0.506731
C14   C     C_R   0.275656 0.511833 0.511764 0.505614
C15   C     C_1   0.813725 0.482631 0.482522 -0.020211
C16   C     C_2   0.979705 0.470305 0.469625 0.287822
C17   C     C_2   0.021130 0.521805 0.521994 -0.074805
C18   C     C_3   0.974572 0.363172 0.360089 -0.106133
C19   C     C_R   0.440786 0.977375 0.399818 -0.000500
C20   C     C_R   0.357672 0.999106 0.391458 -0.088847
C21   C     C_R   0.315957 0.960091 0.325896 -0.104225
C22   C     C_R   0.356960 0.899615 0.267824 -0.098964
C23   C     C_1   0.888872 0.477380 0.477050 -0.073429
C24   C     C_R   0.439824 0.878115 0.275064 -0.102708
C25   C     C_R   0.481846 0.917060 0.340462 -0.093981
C26   C     C_3   0.609911 0.978426 0.633385 -0.105774
C27   C     C_R   0.412313 0.582101 0.030177 0.000402
C28   C     C_R   0.416657 0.667413 0.018808 -0.090622
C29   C     C_R   0.359237 0.724009 0.064376 -0.111308
C30   C     C_R   0.296664 0.695806 0.120937 -0.101635
C31   C     C_R   0.291301 0.610965 0.131959 -0.100671
C32   C     C_R   0.348589 0.554177 0.086582 -0.091782
C33   C     C_3   0.620247 0.362098 0.009512 -0.105591
C34   C     C_1   0.186222 0.516234 0.516198 0.026880
C35   C     C_1   0.515116 0.813513 0.515296 -0.019522
C36   C     C_2   0.524385 0.979529 0.523369 0.278170
C37   C     C_2   0.485267 0.020611 0.468681 0.013092
C38   C     C_1   0.485853 0.111009 0.476525 0.008458
C39   C     C_1   0.519142 0.888549 0.519015 -0.068581
H1    H     H_    0.987509 0.566926 0.568009 0.076052
H2    H     H_    0.657906 0.938993 0.593201 0.117908
H3    H     H_    0.566883 0.939630 0.671343 0.124275
H4    H     H_    0.643072 0.020845 0.677727 0.145790
H5    H     H_    0.464902 0.690129 0.975263 0.107863
H6    H     H_    0.363221 0.789739 0.055797 0.104553
H7    H     H_    0.252099 0.739595 0.155977 0.104024
H8    H     H_    0.242558 0.589139 0.175468 0.117581
H9    H     H_    0.343073 0.488475 0.095100 0.113015
H10   H     H_    0.576254 0.323119 0.046283 0.120123
H11   H     H_    0.662699 0.397556 0.050648 0.122072
H12   H     H_    0.939300 0.402027 0.322047 0.120189
H13   H     H_    0.659486 0.319201 0.963453 0.145729
H14   H     H_    0.931541 0.324498 0.398214 0.124034
H15   H     H_    0.015226 0.319882 0.315808 0.141736
H16   H     H_    0.325064 0.045906 0.435962 0.112567
H17   H     H_    0.251854 0.976886 0.320016 0.109526
H18   H     H_    0.324647 0.869807 0.216972 0.101662
H19   H     H_    0.471647 0.831617 0.229695 0.116291
H20   H     H_    0.546511 0.900754 0.344368 0.110632
O1    O     O_3   0.500000 0.500000 0.500000 -0.438895
O2    O     O_R   0.689040 0.536050 0.444000 -0.538334
O3    O     O_R   0.315570 0.560650 0.560630 -0.538906
O4    O     O_R   0.679800 0.444450 0.536560 -0.531949
O5    O     O_R   0.315590 0.458850 0.458810 -0.526550
O6    O     O_3   0.025549 0.413173 0.411362 -0.547633
O7    O     O_3   0.565091 0.027322 0.584846 -0.553945
O8    O     O_3   0.576745 0.416366 0.965254 -0.553723
O9    O     O_R   0.458170 0.444480 0.314880 -0.536502
O10   O     O_R   0.445130 0.560630 0.690220 -0.542011
O11   O     O_R   0.559450 0.679320 0.457680 -0.537636
O12   O     O_R   0.537250 0.315570 0.537220 -0.524058
O13   O     O_R   0.458120 0.689530 0.559970 -0.533809
O14   O     O_R   0.445170 0.315580 0.445130 -0.541229
O15   O     O_R   0.559480 0.536070 0.314410 -0.535307
O16   O     O_R   0.537220 0.458810 0.680490 -0.522939
Zn1   Zn    Zn3+2 0.430930 0.430930 0.430910 0.952336
Zn2   Zn    Zn3+2 0.575680 0.561790 0.430230 0.942337
Zn3   Zn    Zn3+2 0.562480 0.430910 0.562480 0.963332
Zn4   Zn    Zn3+2 0.430910 0.576380 0.576380 0.948011

loop_
_geom_bond_atom_site_label_1
_geom_bond_atom_site_label_2
_ccdc_geom_bond_type
O1    Zn4   S    
C2    C4    S    
C19   C20   A    
C5    O8    S    
C22   H18   S    
C33   H13   S    
O1    Zn3   S    
C29   C30   A    
C36   C37   D    
O13   Zn4   S    
C30   C31   A    
C36   O7    S    
C33   H10   S    
C14   O3    A    
C19   C37   S    
C18   H14   S    
C6    C27   S    
O2    Zn2   S    
C16   C17   D    
O15   Zn2   S    
C12   C17   S    
C18   H12   S    
C15   C23   T    
C33   O8    S    
C31   H8    S    
C21   C22   A    
O11   Zn2   S    
C32   H9    S    
C20   H16   S    
C26   H4    S    
O1    Zn2   S    
C1    O13   A    
C26   O7    S    
O3    Zn4   S    
C24   C25   A    
C3    C8    T    
C1    C35   S    
C33   H11   S    
O1    Zn1   S    
C29   H6    S    
C18   O6    S    
C17   H1    S    
C35   C39   T    
C37   C38   S    
C5    C8    S    
C2    C38   T    
C31   C32   A    
C13   O4    A    
C14   O5    A    
O5    Zn1   S    
C9    C11   S    
C4    O14   A    
C16   C23   S    
C13   C15   S    
O14   Zn1   S    
C22   C24   A    
O10   Zn4   S    
C12   C34   T    
C26   H3    S    
C7    C9    T    
C28   C29   A    
C27   C32   A    
C30   H7    S    
C36   C39   S    
C14   C34   S    
C21   H17   S    
C11   O10   A    
C6    C7    S    
C10   O9    A    
O9    Zn1   S    
C1    O11   A    
C3    C10   S    
C11   O16   A    
C10   O15   A    
C5    C6    D    
C28   H5    S    
O12   Zn3   S    
C19   C25   A    
O16   Zn3   S    
C18   H15   S    
C13   O2    A    
C20   C21   A    
C24   H19   S    
C27   C28   A    
C16   O6    S    
C25   H20   S    
C4    O12   A    
C26   H2    S    
O4    Zn3   S    
