data_mof_unit_51680.cif
_audit_creation_date              2012-10-26T20:59:12-0400
_audit_creation_method            fapswitch 2.2
_symmetry_space_group_name_H-M    P1
_symmetry_Int_Tables_number       1
_space_group_crystal_system       triclinic
_cell_length_a                    15.844732
_cell_length_b                    9.126938
_cell_length_c                    7.83962
_cell_angle_alpha                 89.614553
_cell_angle_beta                  93.201892
_cell_angle_gamma                 88.451046
_cell_volume                      1131.49593739

loop_
_atom_site_label
_atom_site_type_symbol
_atom_type_description
_atom_site_fract_x
_atom_site_fract_y
_atom_site_fract_z
_atom_type_partial_charge
C1    C     C_1   0.500024 0.065344 0.500482 -0.042271
C2    C     C_3   0.966393 0.626683 0.577526 0.237223
C3    C     C_1   0.249335 0.515745 0.483275 -0.031214
C4    C     C_1   0.750722 0.486178 0.519015 -0.000212
C5    C     C_3   0.038256 0.532112 0.667545 0.197819
C6    C     C_3   0.961827 0.475914 0.360105 0.214726
C7    C     C_3   0.082266 0.523084 0.495052 -0.039846
C8    C     C_3   0.918526 0.486305 0.531894 0.003289
C9    C     C_1   0.173574 0.523514 0.480526 -0.021063
C10   C     C_1   0.826546 0.481232 0.530784 0.035028
C11   C     C_3   0.019606 0.152566 0.331479 -0.112922
C12   C     C_1   0.499938 0.934654 0.499515 -0.043837
C13   C     C_3   0.979948 0.853094 0.705013 -0.126136
C14   C     C_3   0.051479 0.206596 0.792231 -0.135534
C15   C     C_3   0.944914 0.814799 0.257127 -0.131197
C16   C     C_3   0.928533 0.482495 0.065634 0.011169
C17   C     C_3   0.846334 0.520183 0.963625 -0.346905
C18   C     C_3   0.150086 0.618341 0.843065 -0.034167
C19   C     C_3   0.170289 0.678636 0.020479 -0.350745
C20   C     C_R   0.500114 0.220168 0.500363 0.552819
C21   C     C_R   0.499863 0.779832 0.499635 0.548960
C22   C     C_R   0.339324 0.504508 0.495134 0.539338
C23   C     C_R   0.660686 0.495464 0.505014 0.541087
C24   C     C_3   0.990252 0.391465 0.621002 0.241736
C25   C     C_3   0.008816 0.618068 0.405443 0.215889
C26   C     C_3   0.033135 0.381746 0.450069 0.251963
Cu1   Cu    Cu3+1 0.500010 0.500000 0.669080 1.023159
Cu2   Cu    Cu3+1 0.499990 0.500000 0.330920 1.031320
H1    H     H_    0.971061 0.133896 0.425947 0.148810
H2    H     H_    0.930595 0.892467 0.359835 0.157463
H3    H     H_    0.890143 0.742259 0.235992 0.145311
H4    H     H_    0.950817 0.879116 0.138058 0.111075
H5    H     H_    0.963934 0.396005 0.000496 0.225006
H6    H     H_    0.968030 0.580268 0.071129 0.210749
H7    H     H_    0.803254 0.585626 0.042345 0.159456
H8    H     H_    0.859152 0.586479 0.850588 0.171390
H9    H     H_    0.814512 0.418339 0.922486 0.173698
H10   H     H_    0.154464 0.709746 0.749401 0.128906
H11   H     H_    0.197685 0.530025 0.820371 0.159621
H12   H     H_    0.055891 0.048220 0.317635 0.152583
H13   H     H_    0.162884 0.591988 0.118135 0.198406
H14   H     H_    0.236450 0.716142 0.030479 0.111736
H15   H     H_    0.127135 0.773024 0.044915 0.175694
H16   H     H_    0.988985 0.181233 0.204532 0.157872
H17   H     H_    0.945472 0.959852 0.713083 0.163347
H18   H     H_    0.033519 0.869257 0.621354 0.129031
H19   H     H_    0.003498 0.821757 0.836355 0.155523
H20   H     H_    0.093904 0.286534 0.856580 0.170539
H21   H     H_    0.084443 0.149357 0.689607 0.153533
H22   H     H_    0.037807 0.123395 0.889897 0.104932
N1    N     N_1   0.499990 0.500000 0.076820 -0.080875
N2    N     N_1   0.500010 0.500000 0.923180 -0.080661
O1    O     O_R   0.500000 0.288400 0.642760 -0.493480
O2    O     O_3   0.922494 0.749859 0.640139 -0.587706
O3    O     O_3   0.974249 0.272049 0.728625 -0.595885
O4    O     O_3   0.022318 0.738049 0.296798 -0.606873
O5    O     O_3   0.907826 0.427497 0.224330 -0.592265
O6    O     O_3   0.068839 0.559455 0.837082 -0.598803
O7    O     O_R   0.500000 0.711600 0.357240 -0.496638
O8    O     O_R   0.500000 0.288400 0.357240 -0.493081
O9    O     O_R   0.500000 0.711600 0.642760 -0.495779
O10   O     O_R   0.379080 0.500000 0.642760 -0.506076
O11   O     O_R   0.620920 0.500000 0.357240 -0.490763
O12   O     O_R   0.379070 0.500000 0.357190 -0.497565
O13   O     O_R   0.620930 0.500000 0.642810 -0.502521
O14   O     O_3   0.076971 0.260044 0.384243 -0.575187

loop_
_geom_bond_atom_site_label_1
_geom_bond_atom_site_label_2
_ccdc_geom_bond_type
C25   O4    S    
C14   H20   S    
C18   H11   S    
Cu1   O1    S    
C15   H3    S    
C3    C9    T    
C17   H8    S    
C16   H5    S    
C22   O10   A    
Cu1   O9    S    
C13   O2    S    
C21   O9    A    
C7    C25   S    
C11   O14   S    
C8    C24   S    
C15   O4    S    
C23   O13   A    
C23   O11   A    
C14   O3    S    
C18   H10   S    
C15   H4    S    
C6    C26   S    
C2    C5    S    
C24   O3    S    
C13   H17   S    
C1    C12   T    
C19   H14   S    
C14   H22   S    
C5    C24   S    
C7    C26   S    
C5    O6    S    
Cu1   O13   S    
Cu2   O12   S    
C8    C10   S    
Cu1   O10   S    
C19   H15   S    
C21   O7    A    
C2    C25   S    
C5    C7    S    
C16   O5    S    
Cu2   O8    S    
C11   H12   S    
Cu2   N1    S    
C6    O5    S    
C6    C25   S    
C20   O8    A    
C17   H9    S    
C4    C10   T    
N1    N2    T    
C14   H21   S    
Cu2   O11   S    
C11   H16   S    
Cu1   N2    S    
C11   H1    S    
C15   H2    S    
C7    C9    S    
C18   C19   S    
C2    O2    S    
Cu2   O7    S    
Cu1   Cu2   S    
C13   H19   S    
C4    C23   S    
C13   H18   S    
C16   C17   S    
C3    C22   S    
C6    C8    S    
C17   H7    S    
C16   H6    S    
C22   O12   A    
C12   C21   S    
C18   O6    S    
C2    C8    S    
C19   H13   S    
C24   C26   S    
C20   O1    A    
C1    C20   S    
C26   O14   S    
