data_mof_unit_44539.cif
_audit_creation_date              2013-03-05T15:47:08-0500
_audit_creation_method            fapswitch 2.2
_symmetry_space_group_name_H-M    P1
_symmetry_Int_Tables_number       1
_space_group_crystal_system       triclinic
_cell_length_a                    10.35347
_cell_length_b                    10.586986
_cell_length_c                    13.391677
_cell_angle_alpha                 93.201622
_cell_angle_beta                  100.670322
_cell_angle_gamma                 96.144364
_cell_volume                      1429.91345793

loop_
_atom_site_label
_atom_site_type_symbol
_atom_site_description
_atom_site_fract_x
_atom_site_fract_y
_atom_site_fract_z
_atom_type_partial_charge
O1    O     O_R   0.935190 0.693030 0.507870 -0.613071
O2    O     O_R   0.064810 0.306970 0.492130 -0.631316
O3    O     O_R   0.142080 0.658430 0.482770 -0.530354
O4    O     O_R   0.857920 0.341570 0.517230 -0.544983
C1    C     C_R   0.053968 0.733923 0.496682 0.856385
C2    C     C_R   0.948875 0.267019 0.510439 0.874775
O5    O     O_R   0.969700 0.527180 0.651960 -0.627919
O6    O     O_R   0.030300 0.472820 0.348040 -0.601389
O7    O     O_R   0.176600 0.492580 0.626860 -0.596342
O8    O     O_R   0.823400 0.507420 0.373140 -0.551289
C3    C     C_R   0.092513 0.511747 0.686288 0.870099
C4    C     C_R   0.907850 0.489448 0.313829 0.926510
Zn1   Zn    Zn3+2 0.861850 0.523100 0.516760 0.997572
Zn2   Zn    Zn3+2 0.138150 0.476900 0.483240 0.989369
C5    C     C_R   0.141218 0.521856 0.795944 -0.120025
C6    C     C_R   0.860952 0.485819 0.204293 -0.117440
C7    C     C_R   0.148936 0.624011 0.964157 0.204851
C8    C     C_R   0.853704 0.392167 0.033577 0.204679
C9    C     C_R   0.088146 0.600872 0.861234 -0.264009
C10   C     C_R   0.912076 0.407784 0.137181 -0.240446
C11   C     C_R   0.250553 0.460723 0.834383 0.134671
C12   C     C_R   0.756951 0.554665 0.167259 0.115116
C13   C     C_R   0.332128 0.512154 0.926314 0.042598
C14   C     C_R   0.675914 0.511472 0.072945 0.054509
C15   C     C_R   0.274809 0.582708 0.996557 0.096409
C16   C     C_R   0.731651 0.440850 0.001462 0.113293
C17   C     C_R   0.468618 0.497126 0.949422 0.085305
C18   C     C_R   0.540472 0.531417 0.049241 0.075084
C19   C     C_R   0.472223 0.576027 0.123753 -0.180271
C20   C     C_R   0.536771 0.455203 0.874107 -0.224784
C21   C     C_R   0.344466 0.608063 0.096871 -0.203608
C22   C     C_R   0.663654 0.421376 0.900382 -0.228239
H1    H     H_    0.300723 0.651198 0.155719 0.189959
H2    H     H_    0.707111 0.379463 0.840856 0.170575
H3    H     H_    0.997101 0.359518 0.165572 0.181036
H4    H     H_    0.999488 0.643557 0.832129 0.167183
H5    H     H_    0.516143 0.587630 0.203643 0.204101
H6    H     H_    0.492252 0.445843 0.794200 0.172347
H7    H     H_    0.132083 0.126839 0.579028 0.181473
H8    H     H_    0.952866 0.893159 0.606228 0.184911
C23   C     C_2   0.088624 0.871131 0.507298 0.142263
C24   C     C_2   0.926305 0.134231 0.531448 0.116176
C25   C     C_2   0.023958 0.939129 0.565210 -0.182605
C26   C     C_2   0.033065 0.075647 0.564257 -0.212208
N1    N     N_2   0.322180 0.446120 0.460900 -0.084825
N2    N     N_2   0.677820 0.553880 0.539100 -0.060977
C27   C     C_2   0.429659 0.529929 0.481654 0.275300
C28   C     C_2   0.568465 0.497552 0.478711 0.296560
C29   C     C_3   0.753435 0.686144 0.217569 -0.842809
H9    H     H_    0.692873 0.744819 0.165651 0.247229
H10   H     H_    0.714596 0.680575 0.289205 0.276107
H11   H     H_    0.855172 0.737788 0.236067 0.239412
C30   C     C_3   0.260705 0.328210 0.789105 -0.898984
H12   H     H_    0.300034 0.331974 0.717758 0.243030
H13   H     H_    0.324459 0.275136 0.843715 0.257001
H14   H     H_    0.161141 0.272048 0.771745 0.230568
C31   C     C_3   0.083092 0.699592 0.034947 -0.874866
H15   H     H_    0.985497 0.723629 0.995805 0.242135
H16   H     H_    0.066153 0.643204 0.099713 0.248316
H17   H     H_    0.146875 0.789907 0.064467 0.253404
C32   C     C_3   0.916590 0.315045 0.961673 -0.887276
H18   H     H_    0.011491 0.285075 0.000687 0.249910
H19   H     H_    0.848647 0.228078 0.929566 0.247021
H20   H     H_    0.937999 0.372655 0.898718 0.244019
Br1   Br    Br    0.748521 0.048212 0.505617 -0.420506
Br2   Br    Br    0.207640 0.949275 0.427643 -0.445770
Br3   Br    Br    0.576173 0.379303 0.365048 -0.471121
Br4   Br    Br    0.417230 0.709184 0.488872 -0.409234
C33   C     C_3   0.671660 0.620297 0.635682 -0.625069
H21   H     H_    0.748169 0.590328 0.696209 0.208763
H22   H     H_    0.693041 0.724598 0.630880 0.248024
H23   H     H_    0.575057 0.597899 0.659523 0.188587
C34   C     C_3   0.338748 0.313124 0.477498 -0.518675
H24   H     H_    0.288653 0.283126 0.539574 0.208126
H25   H     H_    0.295289 0.252255 0.406503 0.255189
H26   H     H_    0.441652 0.293898 0.505732 0.200461

loop_
_geom_bond_atom_site_label_1
_geom_bond_atom_site_label_2
_geom_bond_distance
_ccdc_geom_bond_type
C15   C21   1.398685 A    
C24   Br1   1.925439 S    
C20   C22   1.386155 A    
O7    Zn2   1.884629 S    
C21   H1    1.082115 S    
C8    C32   1.508602 S    
C16   C22   1.398319 A    
H7    C26   1.085279 S    
C13   C17   1.417652 A    
C32   H20   1.108877 S    
C23   C25   1.342036 D    
C34   H24   1.102199 S    
C27   C28   1.519634 S    
C8    C16   1.417889 A    
C6    C10   1.399031 A    
O6    C4    1.299943 A    
C29   H11   1.111203 S    
C7    C15   1.418322 A    
C32   H18   1.110951 S    
C29   H10   1.108858 S    
C13   C15   1.420613 A    
O3    C1    1.306948 A    
C19   C21   1.388370 A    
C32   H19   1.110214 S    
C30   H12   1.106861 S    
C17   C20   1.411656 A    
C11   C30   1.518888 S    
O7    C3    1.307227 A    
C31   H15   1.111008 S    
O2    C2    1.300646 A    
O3    Zn2   1.918313 S    
C24   C26   1.340465 D    
C12   C29   1.519202 S    
O1    C1    1.297573 A    
O8    C4    1.306703 A    
O4    C2    1.304161 A    
C18   C19   1.413485 A    
C7    C9    1.401402 A    
C14   C16   1.423169 A    
O5    C3    1.300475 A    
Zn2   N1    2.039401 S    
C8    C10   1.400009 A    
C9    H4    1.083831 S    
C30   H13   1.110320 S    
C25   C26   1.439212 S    
C33   H21   1.109013 S    
O2    Zn2   1.895334 S    
C34   H26   1.106950 S    
C12   C14   1.403280 A    
C5    C11   1.394112 A    
C31   H16   1.109562 S    
O1    Zn1   1.895333 S    
C34   H25   1.110275 S    
C23   Br2   1.925565 S    
N2    C28   1.324410 D    
C14   C18   1.420500 A    
C27   Br4   1.914115 S    
O5    Zn1   1.938837 S    
C33   H23   1.111057 S    
N1    C27   1.322635 D    
C20   H6    1.078463 S    
N1    C34   1.460787 S    
C29   H9    1.110244 S    
C2    C24   1.452000 S    
C30   H14   1.111214 S    
C19   H5    1.076886 S    
C17   C18   1.411324 A    
C33   H22   1.110561 S    
C1    C23   1.451043 S    
Zn1   N2    2.039401 S    
N2    C33   1.452561 S    
C6    C12   1.395457 A    
O6    Zn2   1.938837 S    
C28   Br3   1.934949 S    
C5    C9    1.400283 A    
C10   H3    1.083817 S    
C3    C5    1.455623 S    
C11   C13   1.402514 A    
H8    C25   1.087771 S    
C4    C6    1.454269 S    
O4    Zn1   1.918314 S    
C7    C31   1.508340 S    
C31   H17   1.110205 S    
O8    Zn1   1.884628 S    
C22   H2    1.082052 S    
