data_mof_unit_47666.cif
_audit_creation_date              2012-12-11T14:10:59-0500
_audit_creation_method            fapswitch 2.2
_symmetry_space_group_name_H-M    P1
_symmetry_Int_Tables_number       1
_space_group_crystal_system       triclinic
_cell_length_a                    19.705586
_cell_length_b                    17.235269
_cell_length_c                    15.463516
_cell_angle_alpha                 90.001842
_cell_angle_beta                  52.440024
_cell_angle_gamma                 89.999492
_cell_volume                      4163.25593302

loop_
_atom_site_label
_atom_site_type_symbol
_atom_type_description
_atom_site_fract_x
_atom_site_fract_y
_atom_site_fract_z
_atom_type_partial_charge
C1    C     C_R   0.338688 0.174913 0.049611 -0.194454
C2    C     C_3   0.701470 0.759833 0.434243 -0.295604
C3    C     C_3   0.800363 0.186871 0.409363 -0.282831
C4    C     C_3   0.199404 0.813244 0.590761 -0.282713
C5    C     C_3   0.700200 0.687122 0.590351 -0.282890
C6    C     C_3   0.299710 0.312828 0.409703 -0.283043
C7    C     C_3   0.202185 0.739717 0.433986 -0.295620
C8    C     C_3   0.798018 0.260149 0.565934 -0.295699
C9    C     C_2   0.288075 0.686766 0.952620 -0.097944
C10   C     C_2   0.711924 0.313234 0.047379 -0.097955
C11   C     C_2   0.812377 0.744708 0.901949 -0.106700
C12   C     C_R   0.661313 0.825087 0.950387 -0.194437
C13   C     C_2   0.187622 0.255291 0.098052 -0.106762
C14   C     C_2   0.687634 0.244702 0.098038 -0.106879
C15   C     C_2   0.312363 0.755299 0.901965 -0.106838
C16   C     C_2   0.211916 0.186763 0.047387 -0.097880
C17   C     C_2   0.788084 0.813237 0.952612 -0.097860
C18   C     C_R   0.349592 0.826620 0.220426 -0.212327
C19   C     C_R   0.650424 0.173361 0.779575 -0.212398
C20   C     C_R   0.607127 0.801772 0.788439 -0.242754
C21   C     C_R   0.392862 0.198225 0.211568 -0.242797
C22   C     C_R   0.892947 0.301753 0.211515 -0.242560
C23   C     C_R   0.625241 0.197274 0.005327 -0.229964
C24   C     C_R   0.107024 0.698253 0.788504 -0.242450
C25   C     C_R   0.150485 0.326703 0.779579 -0.212623
C26   C     C_R   0.849521 0.673304 0.220421 -0.212564
C27   C     C_R   0.367468 0.888423 0.895132 0.825507
C28   C     C_R   0.632530 0.111578 0.104869 0.825506
C29   C     C_R   0.670463 0.912317 0.048011 0.755462
C30   C     C_R   0.329537 0.087683 0.951988 0.755468
C31   C     C_R   0.829539 0.412314 0.951987 0.755456
C32   C     C_R   0.170461 0.587685 0.048012 0.755449
C33   C     C_R   0.132525 0.388421 0.104877 0.825442
C34   C     C_R   0.374757 0.802727 0.994675 -0.229931
C35   C     C_R   0.867474 0.611579 0.895123 0.825434
C36   C     C_R   0.403964 0.108646 0.305614 0.913057
C37   C     C_R   0.596029 0.891351 0.694392 0.913027
C38   C     C_R   0.643696 0.081430 0.683269 0.773806
C39   C     C_R   0.356316 0.918553 0.316737 0.773694
C40   C     C_R   0.856259 0.581380 0.316713 0.774055
C41   C     C_R   0.143746 0.418628 0.683289 0.774158
C42   C     C_R   0.095970 0.608662 0.694430 0.912926
C43   C     C_R   0.904013 0.391342 0.305582 0.912968
C44   C     C_R   0.286429 0.148064 0.024493 -0.089190
C45   C     C_R   0.874767 0.697279 0.994661 -0.230113
C46   C     C_R   0.713571 0.851936 0.975506 -0.089188
C47   C     C_R   0.651253 0.186931 0.069227 -0.111243
C48   C     C_R   0.348745 0.813071 0.930776 -0.111259
C49   C     C_R   0.848759 0.686937 0.930756 -0.111261
C50   C     C_R   0.151239 0.313063 0.069246 -0.111247
C51   C     C_R   0.213567 0.648065 0.975508 -0.089187
C52   C     C_R   0.786433 0.351934 0.024490 -0.089198
C53   C     C_R   0.307572 0.858453 0.322898 -0.053318
C54   C     C_R   0.692458 0.141513 0.677109 -0.053419
C55   C     C_R   0.618084 0.816114 0.693610 -0.092726
C56   C     C_R   0.125232 0.302721 0.005340 -0.230110
C57   C     C_R   0.381897 0.183880 0.306402 -0.092775
C58   C     C_R   0.882032 0.316087 0.306315 -0.092454
C59   C     C_R   0.117922 0.683923 0.693717 -0.092357
C60   C     C_R   0.192563 0.358599 0.677130 -0.053685
C61   C     C_R   0.807449 0.641415 0.322872 -0.053663
C62   C     C_3   0.264151 0.207387 0.507191 0.906287
C63   C     C_3   0.735894 0.792595 0.492855 0.906091
C64   C     C_3   0.834311 0.153903 0.469029 0.933050
C65   C     C_3   0.165555 0.846025 0.530879 0.932674
C66   C     C_3   0.665977 0.653702 0.531217 0.933524
C67   C     C_R   0.161311 0.674911 0.950386 -0.194384
C68   C     C_3   0.333966 0.346321 0.468750 0.933730
C69   C     C_3   0.236241 0.707602 0.493321 0.905096
C70   C     C_3   0.763865 0.292454 0.506808 0.905490
C71   C     C_3   0.619738 0.730810 0.545384 -0.314427
C72   C     C_3   0.380277 0.269259 0.454544 -0.314624
C73   C     C_3   0.280619 0.783767 0.481297 -0.322099
C74   C     C_3   0.719300 0.216396 0.518924 -0.322540
C75   C     C_3   0.219065 0.283161 0.519558 -0.323554
C76   C     C_3   0.780908 0.716776 0.480528 -0.323342
C77   C     C_3   0.880096 0.231254 0.455068 -0.313814
C78   C     C_R   0.838690 0.325088 0.049611 -0.194420
C79   C     C_3   0.119957 0.768564 0.544749 -0.313445
C80   C     C_3   0.655965 0.764048 0.601976 -0.117292
C81   C     C_3   0.344017 0.235948 0.398037 -0.117176
C82   C     C_3   0.245876 0.816940 0.422768 -0.103213
C83   C     C_3   0.754140 0.183034 0.577239 -0.103159
C84   C     C_3   0.254205 0.317053 0.577260 -0.103070
C85   C     C_3   0.745800 0.682958 0.422741 -0.103124
C86   C     C_3   0.844138 0.264035 0.397947 -0.117504
C87   C     C_3   0.155819 0.735972 0.602086 -0.117613
C88   C     C_3   0.298608 0.240223 0.565720 -0.295698
F1    F     F_    0.372751 0.916465 0.809330 -0.607222
F2    F     F_    0.575829 0.920025 0.631053 -0.588728
F3    F     F_    0.656984 0.043562 0.597540 -0.607521
F4    F     F_    0.343020 0.956434 0.402462 -0.607621
F5    F     F_    0.842985 0.543544 0.402452 -0.607438
F6    F     F_    0.157018 0.456461 0.597551 -0.607457
F7    F     F_    0.075795 0.579957 0.631078 -0.589139
F8    F     F_    0.924197 0.420040 0.368928 -0.589017
F9    F     F_    0.227893 0.134649 0.525822 -0.619223
F10   F     F_    0.772204 0.865313 0.474267 -0.619142
F11   F     F_    0.869085 0.080841 0.453149 -0.625090
F12   F     F_    0.627247 0.083535 0.190671 -0.607224
F13   F     F_    0.130660 0.919021 0.546638 -0.625286
F14   F     F_    0.631470 0.580462 0.547410 -0.624595
F15   F     F_    0.368421 0.419582 0.452516 -0.624506
F16   F     F_    0.272938 0.635128 0.475168 -0.619517
F17   F     F_    0.727288 0.364994 0.525081 -0.619417
F18   F     F_    0.694959 0.950999 0.100979 -0.646650
F19   F     F_    0.305042 0.049001 0.899020 -0.646645
F20   F     F_    0.805046 0.450989 0.899013 -0.646674
F21   F     F_    0.194954 0.549012 0.100987 -0.646694
F22   F     F_    0.127245 0.416472 0.190676 -0.607295
F23   F     F_    0.872754 0.583528 0.809325 -0.607291
F24   F     F_    0.424168 0.079975 0.368949 -0.588689
H1    H     H_    0.328581 0.224113 0.099190 0.150979
H2    H     H_    0.668633 0.224332 0.801542 0.162827
H3    H     H_    0.609091 0.745796 0.818376 0.161540
H4    H     H_    0.390896 0.254201 0.181634 0.161557
H5    H     H_    0.890987 0.245781 0.181562 0.161459
H6    H     H_    0.108983 0.754223 0.818462 0.161413
H7    H     H_    0.168716 0.275732 0.801519 0.163011
H8    H     H_    0.831293 0.724275 0.198477 0.162984
H9    H     H_    0.552462 0.736742 0.575491 0.209782
H10   H     H_    0.447568 0.263381 0.424373 0.209746
H11   H     H_    0.347361 0.789120 0.453514 0.208128
H12   H     H_    0.671420 0.775889 0.900807 0.150983
H13   H     H_    0.652505 0.211181 0.546877 0.208022
H14   H     H_    0.152108 0.287996 0.547995 0.207698
H15   H     H_    0.847850 0.711889 0.452158 0.207739
H16   H     H_    0.947228 0.237520 0.425370 0.209997
H17   H     H_    0.052876 0.762158 0.574281 0.210081
H18   H     H_    0.296922 0.210708 0.630798 0.202852
H19   H     H_    0.703223 0.789393 0.369131 0.202850
H20   H     H_    0.802400 0.156824 0.344335 0.202641
H21   H     H_    0.197180 0.843393 0.655876 0.202609
H22   H     H_    0.698626 0.657306 0.655179 0.202642
H23   H     H_    0.617836 0.251727 0.977396 0.153200
H24   H     H_    0.301213 0.342601 0.344912 0.202647
H25   H     H_    0.204547 0.709794 0.368635 0.202887
H26   H     H_    0.795831 0.289963 0.631210 0.202890
H27   H     H_    0.310881 0.666108 0.996963 0.171464
H28   H     H_    0.689119 0.333892 0.003035 0.171479
H29   H     H_    0.791472 0.724917 0.855089 0.171139
H30   H     H_    0.208527 0.275082 0.144912 0.171140
H31   H     H_    0.708535 0.224912 0.144906 0.171203
H32   H     H_    0.291461 0.775091 0.855098 0.171212
H33   H     H_    0.189114 0.166107 0.003041 0.171470
H34   H     H_    0.382162 0.748274 0.022607 0.153179
H35   H     H_    0.810886 0.833893 0.996958 0.171457
H36   H     H_    0.882172 0.751733 0.022595 0.153233
H37   H     H_    0.117827 0.248267 0.977406 0.153242
H38   H     H_    0.171417 0.724106 0.900800 0.151030
H39   H     H_    0.828584 0.275891 0.099194 0.151021
H40   H     H_    0.331388 0.775649 0.198452 0.162761
N1    N     N_R   0.408680 0.130810 0.995780 -0.078982
N2    N     N_R   0.578590 0.132790 0.846380 -0.079871
N3    N     N_R   0.578590 0.867210 0.846380 -0.087632
N4    N     N_R   0.421410 0.132790 0.153620 -0.087625
N5    N     N_R   0.921410 0.367210 0.153620 -0.087642
N6    N     N_R   0.078590 0.632790 0.846380 -0.087646
N7    N     N_R   0.078590 0.367210 0.846380 -0.079858
N8    N     N_R   0.921410 0.632790 0.153620 -0.079860
N9    N     N_R   0.403840 0.921910 0.935760 -0.140200
N10   N     N_R   0.596160 0.078090 0.064240 -0.140198
N11   N     N_R   0.596160 0.921910 0.064240 -0.119944
N12   N     N_R   0.591320 0.869190 0.004220 -0.078986
N13   N     N_R   0.403840 0.078090 0.935760 -0.119944
N14   N     N_R   0.903840 0.421910 0.935760 -0.119936
N15   N     N_R   0.096160 0.578090 0.064240 -0.119933
N16   N     N_R   0.096160 0.421910 0.064240 -0.140192
N17   N     N_R   0.903840 0.578090 0.935760 -0.140199
N18   N     N_R   0.426250 0.076100 0.213650 -0.154400
N19   N     N_R   0.573750 0.923900 0.786350 -0.154406
N20   N     N_R   0.573750 0.076100 0.786350 -0.130818
N21   N     N_R   0.426250 0.923900 0.213650 -0.130802
N22   N     N_R   0.926250 0.576100 0.213650 -0.130823
N23   N     N_R   0.591320 0.130810 0.004220 -0.084969
N24   N     N_R   0.073750 0.423900 0.786350 -0.130829
N25   N     N_R   0.073750 0.576100 0.786350 -0.154354
N26   N     N_R   0.926250 0.423900 0.213650 -0.154381
N27   N     N_R   0.408680 0.869190 0.995780 -0.084971
N28   N     N_R   0.908680 0.630810 0.995780 -0.084971
N29   N     N_R   0.091320 0.369190 0.004220 -0.084964
N30   N     N_R   0.091320 0.630810 0.004220 -0.079004
N31   N     N_R   0.908680 0.369190 0.995780 -0.078998
N32   N     N_R   0.421410 0.867210 0.153620 -0.079873
Ni1   Ni    Ni4+2 0.500000 0.131570 0.000000 0.189700
Ni2   Ni    Ni4+2 0.500000 0.868430 0.000000 0.189697
Ni3   Ni    Ni4+2 1.000000 0.631570 0.000000 0.189650
Ni4   Ni    Ni4+2 0.000000 0.368430 0.000000 0.189654
Ni5   Ni    Ni4+2 0.488900 1.000000 0.862310 0.347119
Ni6   Ni    Ni4+2 0.511100 1.000000 0.137690 0.347121
Ni7   Ni    Ni4+2 0.988900 0.500000 0.862310 0.347088
Ni8   Ni    Ni4+2 0.011100 0.500000 0.137690 0.347087

loop_
_geom_bond_atom_site_label_1
_geom_bond_atom_site_label_2
_ccdc_geom_bond_type
C27   C48   A    
C22   H5    S    
C13   C50   S    
C28   C47   A    
C36   F24   S    
N25   Ni7   S    
C20   N3    A    
C30   F19   S    
C8    C83   S    
C60   C84   S    
C64   C77   S    
C29   N11   A    
N11   N12   A    
C9    C51   S    
C68   F15   S    
C65   F13   S    
C40   F5    S    
C39   N21   A    
C10   C52   S    
N6    Ni3   S    
C66   C85   S    
C79   C87   S    
C28   N10   A    
C6    C75   S    
C43   N26   A    
N27   Ni2   S    
C3    C64   S    
N15   Ni8   S    
C1    H1    S    
C37   F2    S    
C65   C79   S    
C67   N30   A    
C26   C61   A    
C26   H8    S    
C78   N31   A    
C63   F10   S    
N12   Ni2   S    
C20   C55   A    
C4    C65   S    
C24   N6    A    
C75   C84   S    
C69   F16   S    
C74   H13   S    
C12   N12   A    
C56   N29   A    
C42   N25   A    
C79   H17   S    
C58   C86   S    
N21   Ni6   S    
C8    C70   S    
N19   Ni5   S    
C2    C85   S    
C8    H26   S    
N14   Ni7   S    
C31   F20   S    
C3    C74   S    
C66   F14   S    
C70   C74   S    
C71   C80   S    
C6    H24   S    
C45   N28   A    
C64   F11   S    
C41   F6    S    
N21   N32   A    
C73   H11   S    
C12   H12   S    
C35   C49   A    
N13   Ni5   S    
N5    Ni4   S    
C26   N8    A    
C25   C60   A    
C88   H18   S    
N9    N27   A    
C74   C83   S    
N17   N28   A    
C72   C81   S    
C18   C53   A    
N5    N26   A    
N1    N13   A    
C28   F12   S    
C6    C68   S    
C18   N32   A    
C6    C81   S    
C3    C86   S    
C30   C44   A    
C34   N27   A    
C10   H28   S    
C15   C48   S    
C21   H4    S    
C18   H40   S    
C25   H7    S    
C45   H36   S    
C54   C83   S    
C72   C88   S    
N29   Ni4   S    
C71   H9    S    
C78   H39   S    
C2    H19   S    
C63   C80   S    
C5    H22   S    
N2    Ni1   S    
C23   C47   A    
C32   F21   S    
C3    H20   S    
C68   C84   S    
C17   C46   S    
C30   N13   A    
N9    Ni5   S    
C36   C57   A    
C10   C14   D    
C7    H25   S    
C25   N7    A    
N24   Ni7   S    
N10   N23   A    
C19   H2    S    
C33   C50   A    
N4    Ni1   S    
C62   C88   S    
C38   F3    S    
C70   F17   S    
C50   C56   A    
C40   C61   A    
C42   F7    S    
C4    C87   S    
C16   H33   S    
N7    Ni4   S    
C1    N1    A    
C64   C83   S    
C21   C57   A    
C11   C49   S    
N28   Ni3   S    
N15   N30   A    
N23   Ni1   S    
C62   F9    S    
N26   Ni8   S    
C1    C44   A    
C66   C71   S    
C38   C54   A    
C31   N14   A    
C45   C49   A    
C68   C72   S    
C43   F8    S    
N2    N20   A    
C51   C67   A    
C13   H30   S    
C5    C80   S    
C69   C73   S    
C11   H29   S    
C4    C73   S    
C77   H16   S    
C61   C85   S    
C19   C54   A    
C12   C46   A    
C62   C81   S    
C77   C86   S    
N7    N24   A    
C8    C77   S    
C52   C78   A    
C57   C81   S    
C29   F18   S    
C13   C16   D    
C33   N16   A    
C34   C48   A    
N17   Ni7   S    
C2    C71   S    
C70   C86   S    
C39   F4    S    
N10   Ni6   S    
C35   F23   S    
C2    C63   S    
C7    C79   S    
C22   C58   A    
C32   C51   A    
C76   H15   S    
C16   C44   S    
C14   H31   S    
C11   C17   D    
C72   H10   S    
N8    N22   A    
N6    N25   A    
N14   N31   A    
C84   C88   S    
C41   C60   A    
C5    C66   S    
N3    Ni2   S    
C69   C87   S    
C42   C59   A    
C37   N19   A    
C20   H3    S    
C38   N20   A    
C14   C47   S    
C22   N5    A    
N20   Ni5   S    
N18   Ni6   S    
C17   H35   S    
C36   N18   A    
N16   Ni8   S    
C31   C52   A    
C23   H23   S    
C29   C46   A    
C34   H34   S    
C75   H14   S    
C5    C76   S    
C7    C69   S    
C9    C15   D    
N31   Ni4   S    
C27   N9    A    
C40   N22   A    
C55   C80   S    
C9    H27   S    
C65   C82   S    
C39   C53   A    
N1    Ni1   S    
C24   C59   A    
C35   N17   A    
N4    N18   A    
C24   H6    S    
C21   N4    A    
N32   Ni2   S    
C73   C82   S    
C27   F1    S    
N11   Ni6   S    
N30   Ni3   S    
C62   C75   S    
C59   C87   S    
C41   N24   A    
C15   H32   S    
C37   C55   A    
N3    N19   A    
C7    C82   S    
C23   N23   A    
N16   N29   A    
C63   C76   S    
C32   N15   A    
C19   N2    A    
C43   C58   A    
C53   C82   S    
C33   F22   S    
N8    Ni3   S    
C56   H37   S    
C76   C85   S    
N22   Ni8   S    
C4    H21   S    
C67   H38   S    
