data_mof_unit_33055.cif
_audit_creation_date              2012-12-10T16:57:51-0500
_audit_creation_method            fapswitch 2.2
_symmetry_space_group_name_H-M    P1
_symmetry_Int_Tables_number       1
_space_group_crystal_system       triclinic
_cell_length_a                    10.627201
_cell_length_b                    10.951656
_cell_length_c                    9.723372
_cell_angle_alpha                 89.592052
_cell_angle_beta                  89.891581
_cell_angle_gamma                 90.266247
_cell_volume                      1131.6160217

loop_
_atom_site_label
_atom_site_type_symbol
_atom_type_description
_atom_site_fract_x
_atom_site_fract_y
_atom_site_fract_z
_atom_type_partial_charge
C1    C     C_R   0.493817 0.265403 0.500498 0.785480
C2    C     C_3   0.959736 0.500770 0.369061 -0.125919
C3    C     C_3   0.041709 0.400163 0.435369 -0.172294
C4    C     C_3   0.122443 0.500232 0.500833 0.022578
C5    C     C_2   0.457650 0.934998 0.393588 0.059788
C6    C     C_2   0.505939 0.866105 0.496040 -0.295579
C7    C     C_2   0.492919 0.065235 0.391574 0.341133
C8    C     C_2   0.466535 0.134191 0.502186 0.167899
C9    C     C_2   0.441634 0.419259 0.924798 0.120791
C10   C     C_2   0.459120 0.409207 0.078211 -0.013393
C11   C     C_R   0.259387 0.500083 0.500214 0.767066
C12   C     C_R   0.498184 0.734357 0.499194 0.817693
C13   C     C_R   0.740647 0.500197 0.499766 0.787238
C14   C     C_3   0.040406 0.499809 0.630802 -0.127263
C15   C     C_3   0.957411 0.399732 0.565203 -0.159345
C16   C     C_3   0.877670 0.500320 0.499053 0.017876
C17   C     C_3   0.958431 0.600411 0.564495 -0.166553
C18   C     C_3   0.042761 0.600848 0.434661 -0.170891
Cu1   Cu    Cu3+1 0.500030 0.500020 0.638630 0.967204
Cu2   Cu    Cu3+1 0.499970 0.499980 0.361370 0.961731
H1    H     H_    0.919396 0.317488 0.618524 0.138526
H2    H     H_    0.379513 0.353392 0.876680 0.061205
H3    H     H_    0.432613 0.323923 0.127786 0.152534
H4    H     H_    0.501373 0.584133 0.108945 0.252794
H5    H     H_    0.075979 0.499394 0.738090 0.141343
H6    H     H_    0.921219 0.682283 0.617244 0.131503
H7    H     H_    0.080931 0.683081 0.381425 0.128075
H8    H     H_    0.924231 0.501183 0.261752 0.153544
H9    H     H_    0.078973 0.318277 0.382658 0.131480
H10   H     H_    0.560906 0.908151 0.577365 0.159740
N1    N     N_2   0.498620 0.498660 0.846910 -0.021908
N2    N     N_2   0.498590 0.498630 0.153040 -0.261625
O1    O     O_R   0.500020 0.321960 0.617040 -0.602948
O2    O     O_R   0.499980 0.321920 0.382900 -0.534176
O3    O     O_R   0.316870 0.499990 0.617050 -0.595136
O4    O     O_R   0.316830 0.499950 0.382910 -0.592210
O5    O     O_R   0.500020 0.678080 0.617100 -0.580283
O6    O     O_R   0.499980 0.678040 0.382960 -0.594500
O7    O     O_R   0.683170 0.500050 0.617090 -0.580943
O8    O     O_R   0.683130 0.500010 0.382950 -0.561898
O9    O     O_3   0.404400 0.081468 0.613565 -0.768095
H11   H     H_    0.381825 0.145476 0.680558 0.330591
O10   O     O_3   0.596673 0.557449 0.903306 -0.659516
H12   H     H_    0.631139 0.610222 0.829355 0.370170
C19   C     C_3   0.372403 0.884414 0.281313 -0.370604
C20   C     C_3   0.275851 0.977959 0.229137 -0.369524
C21   C     C_3   0.185285 0.920359 0.126353 -0.842174
H13   H     H_    0.237974 0.884457 0.036620 0.263211
H14   H     H_    0.131479 0.844677 0.175836 0.248376
H15   H     H_    0.117730 0.990261 0.089331 0.245985
H16   H     H_    0.220833 0.013818 0.317366 0.228775
H17   H     H_    0.324668 0.055672 0.177470 0.233524
H18   H     H_    0.431577 0.853198 0.194090 0.199732
H19   H     H_    0.318060 0.805055 0.322171 0.210965
O11   O     O_3   0.553869 0.114763 0.278115 -0.754669
H20   H     H_    0.569350 0.048505 0.211282 0.322896

loop_
_geom_bond_atom_site_label_1
_geom_bond_atom_site_label_2
_ccdc_geom_bond_type
C19   H19   S    
O11   H20   S    
H4    N2    S    
C10   N2    D    
C10   H3    S    
C2    C18   S    
C1    C8    S    
Cu2   O6    S    
C9    C10   S    
C18   H7    S    
C21   H13   S    
C7    O11   S    
O10   H12   S    
C4    C18   S    
Cu1   Cu2   S    
C11   O3    A    
C2    C3    S    
Cu1   N1    S    
C7    C8    D    
C21   H14   S    
Cu1   O3    S    
C19   C20   S    
C4    C11   S    
C6    C12   S    
C14   C17   S    
N1    O10   S    
C17   H6    S    
Cu1   O7    S    
C11   O4    A    
C6    H10   S    
Cu2   N2    S    
C1    O2    A    
C17   C18   S    
C21   H15   S    
C14   H5    S    
C4    C14   S    
C5    C6    D    
Cu2   O8    S    
C9    H2    S    
C13   O7    A    
C9    N1    D    
C1    O1    A    
Cu2   O2    S    
Cu2   O4    S    
C12   O6    A    
C20   H17   S    
C15   H1    S    
C2    C16   S    
C8    O9    S    
C5    C7    S    
O9    H11   S    
C13   C16   S    
C12   O5    A    
C3    H9    S    
C14   C15   S    
C3    C15   S    
C2    H8    S    
Cu1   O5    S    
C20   C21   S    
C5    C19   S    
C20   H16   S    
C19   H18   S    
C3    C4    S    
C15   C16   S    
Cu1   O1    S    
C16   C17   S    
C13   O8    A    
