data_mof_unit_53624.cif
_audit_creation_date              2013-03-05T15:55:18-0500
_audit_creation_method            fapswitch 2.2
_symmetry_space_group_name_H-M    P1
_symmetry_Int_Tables_number       1
_space_group_crystal_system       triclinic
_cell_length_a                    14.735685
_cell_length_b                    14.75388
_cell_length_c                    33.27259
_cell_angle_alpha                 96.087772
_cell_angle_beta                  96.157761
_cell_angle_gamma                 61.258749
_cell_volume                      6293.63118811

loop_
_atom_site_label
_atom_site_type_symbol
_atom_site_description
_atom_site_fract_x
_atom_site_fract_y
_atom_site_fract_z
_atom_type_partial_charge
O1    O     O_R   0.679450 0.499830 0.463150 -0.502748
O2    O     O_R   0.480650 0.664000 0.464630 -0.534214
C1    C     C_R   0.391343 0.699089 0.445969 0.791713
O3    O     O_R   0.323930 0.675950 0.455370 -0.549749
O4    O     O_R   0.354700 0.475360 0.451930 -0.537036
C2    C     C_R   0.405914 0.386327 0.433978 0.806933
O5    O     O_R   0.494470 0.320860 0.448390 -0.545486
O6    O     O_R   0.662580 0.357570 0.460050 -0.546342
C3    C     C_R   0.701188 0.409810 0.447413 0.828925
O7    O     O_R   0.680900 0.502040 0.551870 -0.527091
O8    O     O_R   0.481990 0.666040 0.546870 -0.499449
C4    C     C_R   0.393373 0.701851 0.561233 0.829080
O9    O     O_R   0.325370 0.678160 0.544080 -0.558058
O10   O     O_R   0.356040 0.477400 0.534170 -0.537941
C5    C     C_R   0.407398 0.389014 0.549123 0.778021
O11   O     O_R   0.495910 0.323070 0.537100 -0.547773
O12   O     O_R   0.663920 0.359620 0.542290 -0.541909
C6    C     C_R   0.701365 0.413637 0.562661 0.805717
Cr1   Cr    Cr6+3 0.576280 0.580550 0.506370 1.037843
Cr2   Cr    Cr6+3 0.346780 0.572400 0.496520 0.951476
Cr3   Cr    Cr6+3 0.576960 0.347070 0.497150 0.952251
O13   O     O_3   0.500010 0.500010 0.500010 -0.347129
H1    H     H_    0.450192 0.171295 0.109067 0.165043
H2    H     H_    0.466349 0.203420 0.182460 0.171511
H3    H     H_    0.489555 0.206563 0.387331 0.190643
C7    C     C_R   0.369997 0.365847 0.392614 -0.114676
C8    C     C_R   0.287774 0.446901 0.371998 -0.136287
C9    C     C_R   0.268613 0.435172 0.330416 -0.170661
C10   C     C_R   0.330271 0.342119 0.308907 -0.011914
C11   C     C_R   0.407819 0.256661 0.329596 0.397900
C12   C     C_R   0.427190 0.270020 0.371470 -0.218947
C13   C     C_R   0.395024 0.253102 0.165652 -0.068259
C14   C     C_R   0.385686 0.235229 0.123792 -0.139525
C15   C     C_R   0.209463 0.376921 0.122089 -0.131130
C16   C     C_R   0.219010 0.394497 0.163989 -0.101791
C17   C     C_R   0.310600 0.330454 0.185863 0.088464
C18   C     C_1   0.315275 0.337626 0.229179 0.022223
C19   C     C_1   0.320620 0.340215 0.265515 0.074582
C20   C     C_R   0.291385 0.294412 0.101811 -0.066101
H4    H     H_    0.242434 0.521736 0.387436 0.155625
H5    H     H_    0.153399 0.454734 0.179496 0.140430
H6    H     H_    0.135818 0.423775 0.106048 0.150900
H7    H     H_    0.208916 0.500769 0.314665 0.153969
N1    N     N_R   0.770650 0.409746 0.221816 -0.275475
N2    N     N_R   0.766773 0.416251 0.261795 -0.246595
C21   C     C_R   0.753936 0.373966 0.408924 -0.174536
C22   C     C_R   0.789008 0.433628 0.390974 0.386317
C23   C     C_R   0.804494 0.417090 0.349451 -0.166413
C24   C     C_R   0.791875 0.338567 0.326164 -0.052004
C25   C     C_R   0.770031 0.271664 0.345069 -0.108322
C26   C     C_R   0.750512 0.289597 0.385970 -0.197805
N3    N     N_R   0.829474 0.237449 0.260690 -0.247638
N4    N     N_R   0.834390 0.230931 0.220687 -0.183730
C27   C     C_R   0.804418 0.317038 0.200335 0.554143
C28   C     C_R   0.796735 0.330190 0.281999 0.525506
C29   C     C_R   0.829871 0.390254 0.141587 -0.171338
C30   C     C_R   0.869607 0.377827 0.104215 -0.141597
C31   C     C_R   0.886216 0.205882 0.094082 -0.206532
C32   C     C_R   0.843857 0.218337 0.131413 0.399486
C33   C     C_R   0.821698 0.309238 0.156749 -0.099129
C34   C     C_R   0.902792 0.283824 0.081000 -0.111062
H8    H     H_    0.725688 0.241306 0.398823 0.173976
H9    H     H_    0.879838 0.440094 0.094660 0.160171
H10   H     H_    0.826645 0.465686 0.335242 0.192141
H11   H     H_    0.761273 0.209658 0.327682 0.177127
H12   H     H_    0.811862 0.461592 0.159701 0.174905
H13   H     H_    0.907854 0.134411 0.075588 0.182237
N5    N     N_R   0.340135 0.744111 0.216784 -0.211273
N6    N     N_R   0.346730 0.733209 0.256280 -0.261990
C35   C     C_R   0.374789 0.748389 0.407796 -0.113332
C36   C     C_R   0.291033 0.759398 0.380702 -0.139798
C37   C     C_R   0.290193 0.777419 0.340534 -0.169204
C38   C     C_R   0.372397 0.785597 0.326729 -0.106132
C39   C     C_R   0.453633 0.782365 0.354369 0.387505
C40   C     C_R   0.452959 0.765259 0.394929 -0.197418
N7    N     N_R   0.390728 0.866625 0.269619 -0.180747
N8    N     N_R   0.383822 0.877706 0.230081 -0.232951
C41   C     C_R   0.357245 0.817445 0.203018 0.559072
C42   C     C_R   0.371430 0.794680 0.283337 0.573671
C43   C     C_R   0.256731 0.833520 0.135613 0.397322
C44   C     C_R   0.237596 0.863892 0.095866 -0.190056
C45   C     C_R   0.383610 0.898521 0.103864 -0.135079
C46   C     C_R   0.404770 0.866552 0.143174 -0.160382
C47   C     C_R   0.340172 0.837064 0.159857 -0.111605
C48   C     C_R   0.297238 0.901568 0.080525 -0.115589
H14   H     H_    0.229471 0.747213 0.389766 0.155759
H15   H     H_    0.518336 0.756448 0.415589 0.192826
H16   H     H_    0.170368 0.866255 0.078208 0.187863
H17   H     H_    0.226548 0.781628 0.319772 0.170884
H18   H     H_    0.431366 0.926566 0.092697 0.160676
H19   H     H_    0.469584 0.868674 0.161183 0.176784
N9    N     N_R   0.253382 0.432909 0.769160 -0.285077
N10   N     N_R   0.255601 0.433123 0.729292 -0.286930
C49   C     C_R   0.371804 0.369995 0.585503 -0.046280
C50   C     C_R   0.286978 0.450694 0.604875 -0.148534
C51   C     C_R   0.268372 0.441816 0.644094 -0.126374
C52   C     C_R   0.334091 0.351994 0.664537 0.019912
C53   C     C_R   0.413057 0.267863 0.643756 -0.118959
C54   C     C_R   0.431791 0.276812 0.604592 -0.147567
N11   N     N_R   0.395268 0.265517 0.728561 -0.262375
N12   N     N_R   0.393079 0.265317 0.768379 -0.185353
C55   C     C_R   0.323039 0.349436 0.789535 0.596337
C56   C     C_R   0.326531 0.349333 0.708185 0.503981
C57   C     C_R   0.218048 0.394003 0.848510 -0.183663
C58   C     C_R   0.205002 0.372873 0.886480 -0.230979
C59   C     C_R   0.391509 0.265376 0.897574 0.320376
C60   C     C_R   0.404795 0.285089 0.858382 0.307626
C61   C     C_R   0.316444 0.345863 0.833167 -0.123721
C62   C     C_R   0.290316 0.304109 0.910248 -0.128274
H20   H     H_    0.238937 0.523325 0.590841 0.142510
H21   H     H_    0.497151 0.212922 0.590277 0.143421
H22   H     H_    0.126780 0.404957 0.895965 0.170984
H23   H     H_    0.205896 0.507456 0.659075 0.148732
H24   H     H_    0.464068 0.196906 0.658435 0.154359
H25   H     H_    0.149625 0.441630 0.829822 0.171966
H26   H     H_    0.871045 0.156798 0.803201 0.141129
H27   H     H_    0.750025 0.235300 0.596785 0.136433
C63   C     C_R   0.753702 0.380915 0.602931 -0.083456
C64   C     C_R   0.775777 0.449045 0.629728 -0.137064
C65   C     C_R   0.802943 0.429014 0.670499 -0.213053
C66   C     C_R   0.808876 0.340629 0.684998 0.083254
C67   C     C_R   0.793671 0.268176 0.658293 0.401022
C68   C     C_R   0.766454 0.288710 0.617143 -0.258607
C69   C     C_R   0.872512 0.219311 0.823076 -0.163594
C70   C     C_R   0.901412 0.205428 0.864646 0.370794
C71   C     C_R   0.878559 0.381107 0.873062 -0.208804
C72   C     C_R   0.850144 0.393575 0.831945 -0.112214
C73   C     C_R   0.850437 0.311687 0.806761 0.071084
C74   C     C_1   0.835087 0.320341 0.763794 0.013453
C75   C     C_1   0.823892 0.328543 0.727815 0.049722
C76   C     C_R   0.908701 0.285973 0.889664 -0.089243
H28   H     H_    0.766379 0.520772 0.619751 0.166807
H29   H     H_    0.832230 0.465741 0.819497 0.154415
H30   H     H_    0.882440 0.444487 0.891401 0.176359
H31   H     H_    0.815106 0.484792 0.691089 0.147430
H32   H     H_    0.504455 0.804422 0.686125 0.164200
C77   C     C_R   0.374997 0.758173 0.601663 -0.112457
C78   C     C_R   0.280119 0.789238 0.618625 -0.327269
C79   C     C_R   0.267211 0.821671 0.659789 0.391125
C80   C     C_R   0.350040 0.823922 0.683954 0.034274
C81   C     C_R   0.441807 0.800906 0.666922 -0.282641
C82   C     C_R   0.455364 0.768274 0.625724 0.364784
C83   C     C_R   0.407128 0.865413 0.833839 0.319258
C84   C     C_R   0.389194 0.886822 0.875582 0.281446
C85   C     C_R   0.214620 0.908741 0.860103 -0.192514
C86   C     C_R   0.232464 0.887751 0.819251 -0.175651
C87   C     C_R   0.326481 0.869582 0.805839 -0.068842
C88   C     C_1   0.337860 0.854355 0.763026 0.099766
C89   C     C_1   0.344153 0.841882 0.726990 0.095168
C90   C     C_R   0.290184 0.913399 0.888558 -0.212896
H33   H     H_    0.217541 0.783246 0.600384 0.156283
H34   H     H_    0.171144 0.888840 0.797815 0.167492
H35   H     H_    0.138521 0.927877 0.868965 0.190612
O14   O     O_R   0.170070 0.978950 0.027680 -0.545548
O15   O     O_R   0.001760 0.175230 0.026640 -0.534757
C91   C     C_R   0.963377 0.264288 0.045599 0.803472
O16   O     O_R   0.984760 0.333570 0.037150 -0.547585
O17   O     O_R   0.183410 0.309240 0.041890 -0.539769
C92   C     C_R   0.272739 0.259523 0.060037 0.777060
O18   O     O_R   0.340240 0.172500 0.045430 -0.541346
O19   O     O_R   0.309670 0.000990 0.032050 -0.533315
C93   C     C_R   0.259311 0.959393 0.043670 0.804237
O20   O     O_R   0.168330 0.982130 0.939200 -0.539820
O21   O     O_R   0.000140 0.178170 0.944610 -0.499423
C94   C     C_R   0.962372 0.267593 0.930670 0.815173
O22   O     O_R   0.983010 0.336750 0.948660 -0.556634
O23   O     O_R   0.181800 0.312190 0.959860 -0.552831
C95   C     C_R   0.271141 0.264257 0.945478 0.848047
O24   O     O_R   0.338500 0.175680 0.956950 -0.487963
O25   O     O_R   0.308050 0.003930 0.950020 -0.502579
C96   C     C_R   0.256770 0.963959 0.929127 0.852256
Cr4   Cr    Cr6+3 0.087320 0.083240 0.984860 1.006004
Cr5   Cr    Cr6+3 0.087720 0.316210 0.996740 0.956386
Cr6   Cr    Cr6+3 0.317350 0.090340 0.995890 1.059311
O26   O     O_3   0.164130 0.163270 0.992500 -0.357765
N13   N     N_R   0.823422 0.138933 0.142794 0.122516
O27   O     O_R   0.883875 0.042201 0.132139 -0.318246
O28   O     O_R   0.735936 0.164082 0.157955 -0.347888
N14   N     N_R   0.541244 0.787026 0.341436 0.137529
O29   O     O_R   0.587012 0.830329 0.365484 -0.307696
O30   O     O_R   0.585626 0.733953 0.308885 -0.330638
N15   N     N_R   0.184500 0.809941 0.151771 0.122086
O31   O     O_R   0.149947 0.753025 0.129977 -0.342436
O32   O     O_R   0.137829 0.861509 0.184140 -0.322707
N16   N     N_R   0.469800 0.158128 0.308601 0.112758
O33   O     O_R   0.560718 0.093915 0.324135 -0.330707
O34   O     O_R   0.432286 0.127676 0.275960 -0.344824
O35   O     O_3   0.474776 0.208648 0.923936 -0.591137
H36   H     H_    0.538311 0.206021 0.915419 0.349977
N17   N     N_R   0.506738 0.241011 0.843847 0.095697
O36   O     O_R   0.536727 0.299622 0.828969 -0.354237
O37   O     O_R   0.567759 0.141487 0.843492 -0.309480
O38   O     O_3   0.926742 0.112969 0.880729 -0.619500
H37   H     H_    0.918390 0.065408 0.859072 0.303551
O39   O     O_3   0.801694 0.180585 0.673252 -0.630031
H38   H     H_    0.788077 0.138375 0.650619 0.293976
N18   N     N_R   0.469933 0.885282 0.904240 0.150945
O40   O     O_R   0.497881 0.829641 0.935553 -0.351865
O41   O     O_R   0.515886 0.939236 0.899094 -0.287543
N19   N     N_R   0.506908 0.838525 0.820206 0.137271
O42   O     O_R   0.591143 0.768716 0.837973 -0.316093
O43   O     O_R   0.514107 0.882961 0.789826 -0.348112
O44   O     O_3   0.547611 0.741908 0.609151 -0.623181
H39   H     H_    0.595231 0.752392 0.630220 0.293830
O45   O     O_3   0.176386 0.847192 0.677328 -0.635253
H40   H     H_    0.126321 0.841119 0.656247 0.297442
N20   N     N_R   0.808336 0.511248 0.414098 0.110467
O46   O     O_R   0.788738 0.595617 0.397730 -0.324228
O47   O     O_R   0.860459 0.490702 0.449054 -0.358655

loop_
_geom_bond_atom_site_label_1
_geom_bond_atom_site_label_2
_geom_bond_distance
_ccdc_geom_bond_type
H3    C12   1.082996 S    
N8    C41   1.357956 A    
C77   C82   1.416556 A    
N17   O36   1.301285 A    
C37   H17   1.083854 S    
C43   C44   1.397657 A    
C8    H4    1.083130 S    
C38   C39   1.413938 A    
C50   C51   1.393802 A    
C15   H6    1.083031 S    
N7    C42   1.355284 A    
C66   C75   1.434789 S    
C43   C47   1.416103 A    
C73   C74   1.432756 S    
N10   C56   1.358163 A    
C5    C49   1.472683 S    
H2    C13   1.083806 S    
C52   C53   1.405114 A    
C94   O22   1.273444 A    
C27   C33   1.482206 S    
N4    C27   1.358775 A    
N3    N4    1.331513 A    
C83   C87   1.410089 A    
C83   N19   1.438394 S    
O8    Cr1   1.921728 S    
C7    C8    1.403871 A    
N12   C55   1.356359 A    
C46   C47   1.402276 A    
C4    C77   1.482589 S    
O4    C2    1.276216 A    
C13   C17   1.397716 A    
O21   C94   1.278183 A    
C74   C75   1.201717 T    
C23   H10   1.083604 S    
C92   O18   1.271702 A    
C85   C86   1.386241 A    
C11   C12   1.404320 A    
Cr6   O26   1.975575 S    
C29   H12   1.082858 S    
C53   H24   1.082800 S    
O25   C96   1.277085 A    
C83   C84   1.415648 A    
C36   H14   1.083156 S    
C71   C76   1.408808 A    
C29   C30   1.388251 A    
C15   C16   1.395344 A    
C7    C12   1.405129 A    
N18   O41   1.301408 A    
C63   C64   1.404755 A    
N11   N12   1.329049 A    
C84   C90   1.420505 A    
C79   O45   1.381972 S    
C87   C88   1.433500 S    
N15   O31   1.301194 A    
O15   Cr4   1.922047 S    
C39   N14   1.437862 S    
C16   C17   1.397410 A    
N19   O42   1.301242 A    
H1    C14   1.083020 S    
C10   C19   1.434126 S    
O24   Cr6   2.042336 S    
C30   H9    1.083159 S    
C35   C36   1.400686 A    
C43   N15   1.435791 S    
C10   C11   1.413879 A    
O20   C96   1.273288 A    
C6    C63   1.476681 S    
C85   C90   1.405194 A    
N3    C28   1.356623 A    
N9    C55   1.357204 A    
O23   Cr5   1.923962 S    
C85   H35   1.083030 S    
C31   C34   1.403766 A    
N13   O28   1.301496 A    
C3    C21   1.482714 S    
Cr3   O13   1.975694 S    
C48   C93   1.469776 S    
C49   C50   1.405104 A    
C26   H8    1.083116 S    
C71   H30   1.083011 S    
C57   C58   1.386901 A    
O14   C93   1.270110 A    
O19   C93   1.275401 A    
Cr5   O26   1.975462 S    
N5    C41   1.355071 A    
O1    Cr1   2.040119 S    
C39   C40   1.400938 A    
C84   N18   1.435424 S    
C15   C20   1.407698 A    
C22   C23   1.401029 A    
O10   Cr2   1.924644 S    
C1    C35   1.469907 S    
O1    C3    1.272822 A    
N7    N8    1.329883 A    
C32   N13   1.436775 S    
O23   C95   1.276823 A    
O4    Cr2   1.921067 S    
O6    C3    1.279145 A    
C25   C26   1.392546 A    
C31   C32   1.404950 A    
O45   H40   0.991704 S    
C21   C26   1.409183 A    
C45   C46   1.390087 A    
C67   O39   1.381537 S    
O12   Cr3   1.920520 S    
C1    O3    1.271463 A    
N20   O46   1.301471 A    
O35   H36   0.988968 S    
C91   O16   1.269975 A    
C11   N16   1.442248 S    
C18   C19   1.200821 T    
C62   C95   1.475333 S    
C41   C47   1.466299 S    
C57   H25   1.083434 S    
C70   C76   1.417884 A    
O17   Cr5   1.922108 S    
C90   C96   1.482126 S    
C70   O38   1.381610 S    
O7    Cr1   2.040632 S    
C23   C24   1.401060 A    
C54   H21   1.083103 S    
C51   C52   1.404392 A    
Cr1   O13   1.974821 S    
O12   C6    1.275578 A    
C38   C42   1.461993 S    
O14   Cr4   2.042589 S    
C14   C20   1.406718 A    
C88   C89   1.200312 T    
C64   C65   1.393759 A    
C55   C61   1.473507 S    
O20   Cr4   2.038183 S    
C76   C94   1.483694 S    
C66   C67   1.403054 A    
C52   C56   1.474486 S    
N14   O29   1.301325 A    
C86   H34   1.084272 S    
C40   H15   1.083489 S    
C95   O24   1.271148 A    
C58   H22   1.083462 S    
Cr2   O13   1.975687 S    
O38   H37   0.991754 S    
O17   C92   1.276789 A    
C24   C25   1.397971 A    
C51   H23   1.082819 S    
N6    C42   1.356273 A    
N16   O34   1.301365 A    
C60   C61   1.416112 A    
C72   C73   1.393869 A    
C34   C91   1.474328 S    
C57   C61   1.399596 A    
N1    N2    1.328857 A    
C86   C87   1.392998 A    
O25   Cr6   1.919344 S    
C64   H28   1.083041 S    
C58   C62   1.401929 A    
C21   C22   1.419113 A    
C9    C10   1.397857 A    
O22   Cr5   2.038476 S    
N17   O37   1.301373 A    
H26   C69   1.084054 S    
O9    Cr2   2.036751 S    
C20   C92   1.474685 S    
O2    Cr1   1.924754 S    
O10   C5    1.276129 A    
O18   Cr6   2.037220 S    
N5    N6    1.328410 A    
C72   H29   1.083821 S    
C37   C38   1.401625 A    
C50   H20   1.083126 S    
O6    Cr3   1.924121 S    
C79   C80   1.400048 A    
Cr4   O26   1.974778 S    
O11   Cr3   2.041027 S    
C30   C34   1.400317 A    
C2    O5    1.271840 A    
C22   N20   1.436781 S    
C78   H33   1.083246 S    
C45   C48   1.401890 A    
C46   H19   1.083616 S    
C77   C78   1.407623 A    
C9    H7    1.084011 S    
C45   H18   1.083145 S    
C69   C73   1.396672 A    
C65   H31   1.083788 S    
C82   O44   1.382002 S    
N13   O27   1.301474 A    
O2    C1    1.273993 A    
H27   C68   1.083273 S    
C59   O35   1.382964 S    
C36   C37   1.387676 A    
C24   C28   1.468097 S    
C81   C82   1.406036 A    
C13   C14   1.394346 A    
O5    Cr3   2.038405 S    
O19   Cr6   1.925424 S    
N16   O33   1.301620 A    
C2    C7    1.474757 S    
C49   C54   1.403903 A    
O7    C6    1.272345 A    
C71   C72   1.391831 A    
C80   C81   1.395362 A    
C60   N17   1.436324 S    
N9    N10   1.330780 A    
H32   C81   1.084291 S    
C63   C68   1.407519 A    
N11   C56   1.356709 A    
N18   O40   1.301224 A    
C16   H5    1.083611 S    
C25   H11   1.083283 S    
N15   O32   1.301385 A    
C44   H16   1.083542 S    
O21   Cr4   1.924545 S    
C78   C79   1.403709 A    
O39   H38   0.991715 S    
O3    Cr2   2.042577 S    
N1    C27   1.357831 A    
C31   H13   1.083213 S    
C32   C33   1.419151 A    
C29   C33   1.406083 A    
C4    O9    1.274323 A    
N2    C28   1.355476 A    
C17   C18   1.430537 S    
C53   C54   1.392975 A    
C59   C60   1.418945 A    
O15   C91   1.276841 A    
N20   O47   1.301462 A    
C65   C66   1.398429 A    
C35   C40   1.405769 A    
O44   H39   0.991778 S    
N14   O30   1.301336 A    
C67   C68   1.407326 A    
C80   C89   1.432520 S    
N19   O43   1.301264 A    
C44   C48   1.402923 A    
C5    O11   1.271529 A    
O8    C4    1.276539 A    
O16   Cr5   2.041110 S    
C69   C70   1.409333 A    
C8    C9    1.391481 A    
C59   C62   1.411455 A    
