data_mof_unit_61274.cif
_audit_creation_date              2012-12-10T17:40:20-0500
_audit_creation_method            fapswitch 2.2
_symmetry_space_group_name_H-M    P1
_symmetry_Int_Tables_number       1
_space_group_crystal_system       triclinic
_cell_length_a                    37.272184
_cell_length_b                    30.387821
_cell_length_c                    21.911868
_cell_angle_alpha                 90.252363
_cell_angle_beta                  125.413863
_cell_angle_gamma                 89.768042
_cell_volume                      20225.9936623

loop_
_atom_site_label
_atom_site_type_symbol
_atom_type_description
_atom_site_fract_x
_atom_site_fract_y
_atom_site_fract_z
_atom_type_partial_charge
C1    C     C_R   0.414881 0.500029 0.914812 0.783919
C2    C     C_R   0.585119 0.499964 0.085209 0.783279
C3    C     C_R   0.914881 0.000030 0.914808 0.783688
C4    C     C_R   0.085119 0.999964 0.085209 0.783590
C5    C     C_2   0.504350 0.497861 0.820584 -0.318313
C6    C     C_2   0.495662 0.502144 0.179427 -0.308734
C7    C     C_2   0.004351 0.997861 0.820584 -0.318295
C8    C     C_2   0.995820 0.998319 0.179596 -0.318074
C9    C     C_R   0.297292 0.462424 0.814896 -0.163165
C10   C     C_R   0.702803 0.462045 0.185268 -0.162912
C11   C     C_R   0.797286 0.962405 0.814759 -0.163264
C12   C     C_R   0.202803 0.962048 0.185262 -0.162956
C13   C     C_R   0.343159 0.462365 0.860718 -0.181216
C14   C     C_R   0.656929 0.462042 0.139434 -0.178343
C15   C     C_R   0.843152 0.962341 0.860579 -0.179268
C16   C     C_R   0.156929 0.962044 0.139428 -0.179348
C17   C     C_R   0.366538 0.500045 0.866165 -0.028596
C18   C     C_R   0.633464 0.499861 0.133929 -0.029148
C19   C     C_R   0.866535 0.000050 0.866151 -0.029813
C20   C     C_R   0.133464 0.999861 0.133929 -0.029764
C21   C     C_R   0.343353 0.537650 0.824583 -0.174263
C22   C     C_R   0.656566 0.537535 0.175493 -0.177630
C23   C     C_R   0.843352 0.037686 0.824687 -0.176486
C24   C     C_R   0.156565 0.037534 0.175500 -0.176380
C25   C     C_R   0.297477 0.537444 0.777842 -0.164039
C26   C     C_R   0.702437 0.537275 0.222247 -0.164613
C27   C     C_R   0.797475 0.037486 0.777945 -0.164557
C28   C     C_R   0.202436 0.037274 0.222254 -0.164735
C29   C     C_R   0.274200 0.499902 0.773017 0.098239
C30   C     C_R   0.725803 0.499603 0.227112 0.098072
C31   C     C_R   0.774197 0.999916 0.773003 0.098016
C32   C     C_R   0.225803 0.999605 0.227112 0.097920
C33   C     C_R   0.202888 0.513279 0.649811 -0.162587
C34   C     C_R   0.797064 0.513186 0.350312 -0.162343
C35   C     C_R   0.702884 0.013347 0.649829 -0.162480
C36   C     C_R   0.297064 0.013184 0.350313 -0.162432
C37   C     C_R   0.156994 0.512927 0.603929 -0.175751
C38   C     C_R   0.842959 0.512932 0.396148 -0.175854
C39   C     C_R   0.656990 0.012989 0.603947 -0.175872
C40   C     C_R   0.342959 0.012930 0.396149 -0.175875
C41   C     C_R   0.133485 0.499867 0.632763 -0.031147
C42   C     C_R   0.866517 0.499754 0.367262 -0.031045
C43   C     C_R   0.633484 0.999875 0.632761 -0.031118
C44   C     C_R   0.366517 0.999755 0.367262 -0.031074
C45   C     C_R   0.501368 0.499751 0.883841 0.850376
C46   C     C_R   0.498634 0.500250 0.116160 0.849134
C47   C     C_R   0.001368 0.999751 0.883841 0.850620
C48   C     C_R   0.998660 0.999915 0.116190 0.850530
C49   C     C_R   0.156544 0.486786 0.707916 -0.173985
C50   C     C_R   0.843509 0.486429 0.292113 -0.173824
C51   C     C_R   0.656544 0.986748 0.707891 -0.173978
C52   C     C_R   0.343509 0.986433 0.292111 -0.173821
C53   C     C_R   0.202402 0.486480 0.753396 -0.162520
C54   C     C_R   0.797648 0.486015 0.246679 -0.162769
C55   C     C_R   0.702403 0.986446 0.753368 -0.162886
C56   C     C_R   0.297648 0.986020 0.246677 -0.162726
C57   C     C_R   0.225831 0.499892 0.724707 0.097745
C58   C     C_R   0.774171 0.499573 0.275413 0.097605
C59   C     C_R   0.725829 0.999910 0.724699 0.097659
C60   C     C_R   0.274171 0.999575 0.275413 0.097555
C61   C     C_R   0.500031 0.414876 0.500046 0.782014
C62   C     C_R   0.000031 0.914876 0.500061 0.786506
C63   C     C_R   0.499630 0.501416 0.617147 0.851782
C64   C     C_R   0.500369 0.498590 0.382852 0.852081
C65   C     C_R   0.999630 0.001417 0.617147 0.852000
C66   C     C_R   0.000368 0.001478 0.382872 0.851778
C67   C     C_R   0.499968 0.585154 0.499923 0.803999
C68   C     C_R   0.999967 0.085155 0.499912 0.799448
C69   C     C_R   0.999988 0.414824 0.499876 0.855517
C70   C     C_R   0.499990 0.914825 0.499879 0.855560
C71   C     C_R   0.085139 0.499975 0.584886 0.788168
C72   C     C_R   0.914861 0.499954 0.415116 0.788025
C73   C     C_R   0.585139 0.999977 0.584885 0.788157
C74   C     C_R   0.414861 0.999955 0.415116 0.788040
C75   C     C_R   0.999996 0.585141 0.500107 0.784751
C76   C     C_R   0.499991 0.085141 0.500102 0.784695
C77   C     C_R   0.462604 0.297370 0.444379 -0.166091
C78   C     C_R   0.537502 0.297395 0.556450 -0.165992
C79   C     C_R   0.962566 0.797359 0.444580 -0.166064
C80   C     C_R   0.037547 0.797393 0.556419 -0.165686
C81   C     C_R   0.999797 0.273948 0.499211 -0.201933
C82   C     C_R   0.499813 0.773951 0.499268 -0.201848
C83   C     C_R   0.462486 0.343233 0.444546 -0.181695
C84   C     C_R   0.537653 0.343264 0.555974 -0.178301
C85   C     C_R   0.962443 0.843221 0.444738 -0.179419
C86   C     C_R   0.037692 0.843263 0.555928 -0.179497
C87   C     C_R   0.500075 0.366532 0.500179 -0.027302
C88   C     C_R   0.000073 0.866528 0.500235 -0.029904
C89   C     C_R   0.500044 0.274195 0.500482 0.099033
C90   C     C_R   0.000052 0.774189 0.500564 0.098691
C91   C     C_R   0.013391 0.702718 0.565781 -0.165433
C92   C     C_R   0.986698 0.702551 0.435189 -0.165723
C93   C     C_R   0.513301 0.202732 0.565687 -0.165573
C94   C     C_R   0.486749 0.202543 0.435166 -0.165817
C95   C     C_R   0.013017 0.656843 0.565515 -0.180044
C96   C     C_R   0.986987 0.656692 0.435212 -0.179801
C97   C     C_R   0.512931 0.156857 0.565442 -0.180168
C98   C     C_R   0.487038 0.156684 0.435211 -0.179852
C99   C     C_R   0.999985 0.633484 0.500297 -0.030457
C100  C     C_R   0.499970 0.133486 0.500272 -0.030409
C101  C     C_R   0.000060 0.725821 0.500536 0.099279
C102  C     C_R   0.500042 0.225826 0.500469 0.099451
C103  C     C_R   0.539705 0.702696 0.541630 -0.016944
C104  C     C_R   0.460008 0.702751 0.456956 -0.016751
C105  C     C_R   0.039692 0.202698 0.541633 -0.017322
C106  C     C_R   0.960002 0.202743 0.456804 -0.016863
C107  C     C_R   0.539786 0.656865 0.541874 -0.185127
C108  C     C_R   0.459996 0.656913 0.457195 -0.181026
C109  C     C_R   0.039777 0.156867 0.541886 -0.183659
C110  C     C_R   0.959994 0.156906 0.457049 -0.184233
C111  C     C_R   0.499909 0.633553 0.499679 -0.053422
C112  C     C_R   0.999906 0.133551 0.499627 -0.051674
C113  C     C_R   0.997446 0.297092 0.441156 0.417948
C114  C     C_R   0.002199 0.297261 0.557448 0.417446
C115  C     C_R   0.497493 0.797086 0.441234 0.417543
C116  C     C_R   0.502185 0.797271 0.557470 0.417468
C117  C     C_R   0.499841 0.725685 0.499201 0.215523
C118  C     C_R   0.999828 0.225683 0.499132 0.216010
C119  C     C_R   0.999932 0.366369 0.499610 -0.186105
C120  C     C_R   0.499939 0.866371 0.499629 -0.186058
C121  C     C_R   0.997416 0.343077 0.441927 -0.243946
C122  C     C_R   0.002367 0.343230 0.557071 -0.243493
C123  C     C_R   0.497460 0.843070 0.441987 -0.243920
C124  C     C_R   0.502346 0.843239 0.557072 -0.243432
C125  C     C_2   0.528607 0.524853 0.744964 -0.147277
C126  C     C_2   0.471361 0.475194 0.255003 -0.152074
C127  C     C_2   0.028607 0.024853 0.744964 -0.147178
C128  C     C_2   0.971551 0.025389 0.255522 -0.146745
C129  C     C_2   0.497517 0.504572 0.681241 -0.314413
C130  C     C_2   0.502478 0.495434 0.318754 -0.307789
C131  C     C_2   0.997517 0.004573 0.681240 -0.314431
C132  C     C_2   0.002512 0.004770 0.318858 -0.314389
C133  C     C_2   0.524268 0.529172 0.807457 -0.147386
C134  C     C_2   0.475691 0.470868 0.192501 -0.154148
C135  C     C_2   0.024268 0.029173 0.807457 -0.147451
C136  C     C_2   0.975930 0.029736 0.193100 -0.147648
Cu1   Cu    Cu3+1 0.500000 0.544050 0.000000 0.970970
Cu2   Cu    Cu3+1 0.000000 0.044050 0.000000 0.968440
Cu3   Cu    Cu3+1 0.500000 0.455950 0.000000 0.952692
Cu4   Cu    Cu3+1 0.000000 0.955950 0.000000 0.954054
Cu5   Cu    Cu3+1 0.544050 0.500000 0.544060 0.959752
Cu6   Cu    Cu3+1 0.455950 0.500000 0.455940 0.960735
Cu7   Cu    Cu3+1 0.044050 0.000000 0.544060 0.959803
Cu8   Cu    Cu3+1 0.955950 0.000000 0.455940 0.959719
Cu9   Cu    Cu3+1 0.000010 0.500010 0.438990 0.967071
Cu10  Cu    Cu3+1 0.999990 0.500010 0.561010 0.967186
Cu11  Cu    Cu3+1 0.500010 0.000010 0.438990 0.967053
Cu12  Cu    Cu3+1 0.499990 0.000010 0.561010 0.967113
H1    H     H_    0.556370 0.540509 0.750016 0.167419
H2    H     H_    0.443578 0.459574 0.249931 0.161787
H3    H     H_    0.056370 0.040509 0.750016 0.167431
H4    H     H_    0.943831 0.041209 0.250722 0.167268
H5    H     H_    0.139930 0.523293 0.546209 0.153755
H6    H     H_    0.859984 0.523478 0.453870 0.153607
H7    H     H_    0.639923 0.023393 0.546245 0.153723
H8    H     H_    0.359984 0.023474 0.453872 0.153623
H9    H     H_    0.139151 0.476426 0.731379 0.156785
H10   H     H_    0.860947 0.475962 0.268624 0.156763
H11   H     H_    0.639153 0.976345 0.731335 0.156805
H12   H     H_    0.360946 0.975968 0.268621 0.156808
H13   H     H_    0.219630 0.476302 0.811252 0.135033
H14   H     H_    0.780454 0.475662 0.188819 0.135191
H15   H     H_    0.719634 0.976227 0.811205 0.135171
H16   H     H_    0.280454 0.975669 0.188816 0.135257
H17   H     H_    0.433313 0.279945 0.400988 0.133045
H18   H     H_    0.566785 0.279980 0.599921 0.133629
H19   H     H_    0.933246 0.779929 0.401286 0.133577
H20   H     H_    0.066862 0.779981 0.599801 0.133709
H21   H     H_    0.433153 0.360436 0.400775 0.151368
H22   H     H_    0.566989 0.360501 0.599627 0.153451
H23   H     H_    0.933072 0.860417 0.401058 0.153514
H24   H     H_    0.067060 0.860502 0.599484 0.153504
H25   H     H_    0.023562 0.720209 0.616602 0.133003
H26   H     H_    0.976558 0.719901 0.384449 0.133020
H27   H     H_    0.523416 0.220231 0.616473 0.132882
H28   H     H_    0.476666 0.219883 0.384447 0.132661
H29   H     H_    0.023327 0.639676 0.616476 0.152730
H30   H     H_    0.976657 0.639418 0.384146 0.152911
H31   H     H_    0.523187 0.139699 0.616385 0.152665
H32   H     H_    0.476764 0.139403 0.384178 0.152841
H33   H     H_    0.995363 0.360817 0.397275 0.210078
H34   H     H_    0.004472 0.361081 0.601891 0.210361
H35   H     H_    0.495435 0.860806 0.397355 0.210091
H36   H     H_    0.504423 0.861097 0.601862 0.210377
H37   H     H_    0.570638 0.720315 0.574330 0.150059
H38   H     H_    0.429048 0.720414 0.424154 0.150503
H39   H     H_    0.070621 0.220319 0.574388 0.150062
H40   H     H_    0.929041 0.220403 0.423941 0.150286
H41   H     H_    0.467395 0.493232 0.673029 0.156113
H42   H     H_    0.532613 0.506741 0.326978 0.155790
H43   H     H_    0.967395 0.993233 0.673029 0.156102
H44   H     H_    0.032625 0.993276 0.326946 0.155949
H45   H     H_    0.571029 0.639755 0.575132 0.159420
H46   H     H_    0.428783 0.639835 0.424127 0.160631
H47   H     H_    0.071019 0.139759 0.575209 0.159606
H48   H     H_    0.928786 0.139824 0.423919 0.159542
H49   H     H_    0.539723 0.557038 0.845272 0.169290
H50   H     H_    0.460187 0.443030 0.154635 0.161664
H51   H     H_    0.039723 0.057039 0.845273 0.169263
H52   H     H_    0.960455 0.057631 0.155569 0.169182
H53   H     H_    0.493221 0.467692 0.787818 0.155467
H54   H     H_    0.506838 0.532297 0.212235 0.158850
H55   H     H_    0.993222 0.967693 0.787818 0.155477
H56   H     H_    0.006940 0.968135 0.212058 0.155645
H57   H     H_    0.279800 0.433075 0.811469 0.135607
H58   H     H_    0.720372 0.432601 0.188722 0.136290
H59   H     H_    0.779791 0.933035 0.811238 0.136164
H60   H     H_    0.220373 0.932606 0.188712 0.136371
H61   H     H_    0.360299 0.433005 0.892409 0.151576
H62   H     H_    0.639851 0.432626 0.107762 0.153409
H63   H     H_    0.860289 0.932954 0.892169 0.153549
H64   H     H_    0.139852 0.932629 0.107751 0.153452
H65   H     H_    0.360662 0.567049 0.827635 0.156161
H66   H     H_    0.639193 0.567043 0.172405 0.155179
H67   H     H_    0.860662 0.067108 0.827833 0.156060
H68   H     H_    0.139192 0.067041 0.172417 0.156045
H69   H     H_    0.280114 0.566754 0.746207 0.134901
H70   H     H_    0.719728 0.566645 0.253855 0.134532
H71   H     H_    0.780113 0.066820 0.746401 0.134773
H72   H     H_    0.219727 0.066643 0.253866 0.134713
H73   H     H_    0.220518 0.523493 0.626696 0.134470
H74   H     H_    0.779396 0.523524 0.373453 0.134458
H75   H     H_    0.720513 0.023603 0.626732 0.134529
H76   H     H_    0.279396 0.023520 0.373456 0.134577
O1    O     O_R   0.435730 0.537200 0.935720 -0.584551
O2    O     O_R   0.564270 0.537200 0.064280 -0.588934
O3    O     O_R   0.935730 0.037200 0.935720 -0.587733
O4    O     O_R   0.064270 0.037200 0.064280 -0.587804
O5    O     O_R   0.064280 0.500010 0.512760 -0.584655
O6    O     O_R   0.935720 0.500010 0.487240 -0.584604
O7    O     O_R   0.564280 0.000010 0.512760 -0.584631
O8    O     O_R   0.435720 0.000010 0.487240 -0.584610
O9    O     O_R   0.064270 0.500010 0.615800 -0.588035
O10   O     O_R   0.935730 0.500010 0.384200 -0.588048
O11   O     O_R   0.564270 0.000010 0.615800 -0.588058
O12   O     O_R   0.435730 0.000010 0.384200 -0.588047
O13   O     O_R   0.000010 0.564280 0.448470 -0.588211
O14   O     O_R   0.999990 0.564280 0.551530 -0.588216
O15   O     O_R   0.500010 0.064280 0.448470 -0.588257
O16   O     O_R   0.499990 0.064280 0.551530 -0.588252
O17   O     O_R   0.435730 0.462800 0.935730 -0.592039
O18   O     O_R   0.564270 0.462800 0.064270 -0.588061
O19   O     O_R   0.935730 0.962800 0.935730 -0.589243
O20   O     O_R   0.064270 0.962800 0.064270 -0.589176
O21   O     O_R   0.500010 0.537200 0.910980 -0.575909
O22   O     O_R   0.499990 0.537200 0.089020 -0.581093
O23   O     O_R   0.000010 0.037200 0.910980 -0.575936
O24   O     O_R   0.999990 0.037200 0.089020 -0.575933
O25   O     O_R   0.500010 0.462800 0.910980 -0.586326
O26   O     O_R   0.499990 0.462800 0.089020 -0.580304
O27   O     O_R   0.000010 0.962800 0.910980 -0.586160
O28   O     O_R   0.999990 0.962800 0.089020 -0.586127
O29   O     O_R   0.537200 0.435730 0.537210 -0.587839
O30   O     O_R   0.462800 0.435730 0.462790 -0.591775
O31   O     O_R   0.037200 0.935730 0.537210 -0.588039
O32   O     O_R   0.962800 0.935730 0.462790 -0.588125
O33   O     O_R   0.537190 0.500000 0.626220 -0.580266
O34   O     O_R   0.462810 0.500000 0.373780 -0.578902
O35   O     O_R   0.037190 0.000000 0.626220 -0.580251
O36   O     O_R   0.962810 0.000000 0.373780 -0.580181
O37   O     O_R   0.462790 0.500000 0.551820 -0.583208
O38   O     O_R   0.537210 0.500000 0.448180 -0.583838
O39   O     O_R   0.962790 0.000000 0.551820 -0.583124
O40   O     O_R   0.037210 0.000000 0.448180 -0.583121
O41   O     O_R   0.537200 0.564270 0.537200 -0.590952
O42   O     O_R   0.462800 0.564270 0.462800 -0.586746
O43   O     O_R   0.037200 0.064270 0.537200 -0.590619
O44   O     O_R   0.962800 0.064270 0.462800 -0.590686
O45   O     O_R   1.000000 0.435740 0.448480 -0.583179
O46   O     O_R   0.000000 0.435740 0.551520 -0.583120
O47   O     O_R   0.500000 0.935740 0.448480 -0.583148
O48   O     O_R   0.500000 0.935740 0.551520 -0.583122
S1    S     S_3+6 0.994425 0.269398 0.366894 -0.000597
O49   O     O_2   0.950817 0.246340 0.319247 -0.302786
O50   O     O_2   0.998673 0.301397 0.319291 -0.273488
O51   O     O_3   0.035163 0.232007 0.402156 -0.541400
H77   H     H_    0.027974 0.213996 0.358639 0.378460
S2    S     S_3+6 0.005151 0.269813 0.631512 -0.000547
O52   O     O_2   0.048764 0.246630 0.679139 -0.302997
O53   O     O_2   0.000839 0.302016 0.679210 -0.273339
O54   O     O_3   0.964422 0.232575 0.596004 -0.541177
H78   H     H_    0.971623 0.214631 0.639397 0.378469
S3    S     S_3+6 0.494525 0.769380 0.367030 0.000281
O55   O     O_2   0.450983 0.746195 0.319475 -0.300322
O56   O     O_2   0.498667 0.801385 0.319314 -0.273413
O57   O     O_3   0.535369 0.732106 0.402389 -0.542043
H79   H     H_    0.528283 0.714143 0.358891 0.378289
S4    S     S_3+6 0.505109 0.769832 0.631515 -0.000439
O58   O     O_2   0.548676 0.746560 0.679076 -0.302818
O59   O     O_2   0.500879 0.802051 0.679287 -0.273230
O60   O     O_3   0.464305 0.732678 0.595970 -0.541290
H80   H     H_    0.471479 0.714728 0.639340 0.378492

loop_
_geom_bond_atom_site_label_1
_geom_bond_atom_site_label_2
_ccdc_geom_bond_type
C83   H21   S    
C52   H12   S    
C61   O29   A    
C83   C87   A    
C43   C73   S    
C61   O30   A    
C3    O3    A    
C89   C102  S    
C8    C136  D    
Cu6   O42   S    
Cu5   O38   S    
Cu12  O48   S    
C25   H69   S    
O60   H80   S    
C103  H37   S    
C84   C87   A    
C104  C108  A    
C43   C51   A    
C136  H52   S    
C47   O23   A    
Cu9   Cu10  S    
C23   H67   S    
C50   H10   S    
C15   C19   A    
Cu8   O32   S    
C77   C89   A    
C50   C54   A    
C21   C25   A    
C76   O15   A    
C86   H24   S    
C12   H60   S    
Cu10  O46   S    
Cu9   O45   S    
C65   O35   A    
C127  C135  S    
C82   C115  A    
C124  H36   S    
C84   H22   S    
C69   O45   A    
C63   O33   A    
C135  H51   S    
O57   H79   S    
C67   O41   A    
C98   H32   S    
C64   O38   A    
C119  C122  A    
Cu9   O5    S    
C26   H70   S    
C126  C130  D    
C95   C99   A    
C1    O1    A    
Cu7   Cu8   S    
C96   C99   A    
C63   O37   A    
C92   C96   A    
S1    O51   S    
C9    C13   A    
C91   H25   S    
C35   C59   A    
C68   C112  S    
C31   C59   S    
Cu3   O18   S    
C14   C18   A    
C46   O26   A    
C68   O43   A    
Cu1   O1    S    
Cu2   O23   S    
C61   C87   S    
Cu11  Cu12  S    
C45   O25   A    
C69   O46   A    
C122  H34   S    
Cu11  O7    S    
C128  H4    S    
C12   C16   A    
C70   C120  S    
C79   C90   A    
S2    O54   S    
Cu9   O13   S    
C81   C114  A    
C24   H68   S    
C15   H63   S    
C4    O20   A    
C3    C19   S    
Cu12  O8    S    
Cu6   O37   S    
C23   C27   A    
C6    C46   S    
C36   H76   S    
C7    H55   S    
C120  C123  A    
C9    C29   A    
C41   C71   S    
C127  H3    S    
Cu11  O12   S    
C44   C52   A    
S4    O59   D    
C63   C129  S    
Cu10  O9    S    
C11   C31   A    
C28   H72   S    
C18   C22   A    
Cu9   O10   S    
C106  C118  A    
S3    O57   S    
C37   C41   A    
C79   H19   S    
C49   H9    S    
C65   O39   A    
Cu4   O27   S    
C11   H59   S    
C91   C101  A    
C66   O40   A    
C27   H71   S    
C128  C132  D    
C41   C49   A    
C105  C109  A    
C65   C131  S    
C64   O34   A    
C62   O32   A    
C66   C132  S    
C119  C121  A    
C78   C89   A    
C25   C29   A    
C62   O31   A    
Cu8   O44   S    
O51   H77   S    
C78   H18   S    
C115  C123  A    
C14   H62   S    
C86   C88   A    
C27   C31   A    
S4    O60   S    
C13   H61   S    
C28   C32   A    
Cu7   O35   S    
C46   O22   A    
C74   O8    A    
C10   C14   A    
C109  C112  A    
C113  S1    S    
C67   O42   A    
C53   C57   A    
C19   C23   A    
C34   C38   A    
C16   H64   S    
C39   C43   A    
C51   C55   A    
C92   H26   S    
O54   H78   S    
C5    C45   S    
C81   C118  S    
C69   C119  S    
C77   C83   A    
C33   C37   A    
C71   O9    A    
C56   C60   A    
C68   O44   A    
C129  H41   S    
Cu4   O20   S    
C7    C47   S    
C48   O28   A    
C5    C133  D    
C17   C21   A    
C8    C48   S    
C90   C101  S    
C7    C135  D    
Cu1   O2    S    
C35   H75   S    
C125  H1    S    
C73   O7    A    
Cu1   Cu3   S    
C107  C111  A    
C10   C30   A    
C70   O48   A    
C6    C134  D    
C8    H56   S    
C110  C112  A    
C16   C20   A    
C33   H73   S    
C42   C72   S    
S1    O49   D    
C71   O5    A    
C113  C121  A    
C3    O19   A    
C108  H46   S    
C54   H14   S    
C40   H8    S    
C44   C74   S    
C2    O18   A    
C75   C99   S    
C126  C134  S    
Cu2   Cu4   S    
C92   C101  A    
C42   C50   A    
C105  C118  A    
C1    O17   A    
C131  H43   S    
C67   C111  S    
C38   H6    S    
C64   C130  S    
Cu10  O14   S    
C26   C30   A    
C11   C15   A    
C22   H66   S    
C110  H48   S    
Cu3   O25   S    
S2    O53   D    
C36   C40   A    
C75   O13   A    
Cu3   O26   S    
C32   C60   S    
C62   C88   S    
C45   O21   A    
C93   C97   A    
C107  H45   S    
C97   C100  A    
C104  H38   S    
C55   C59   A    
C2    O2    A    
C121  H33   S    
C104  C117  A    
Cu10  O6    S    
C85   C88   A    
C125  C133  S    
C134  H50   S    
C132  H44   S    
C133  H49   S    
Cu11  O15   S    
C116  C124  A    
Cu2   O4    S    
Cu12  O16   S    
C52   C56   A    
C1    C17   S    
Cu2   O24   S    
Cu5   O33   S    
C24   C28   A    
C105  H39   S    
C29   C57   S    
C2    C18   S    
C36   C60   A    
C93   C102  A    
C103  C107  A    
Cu8   O39   S    
C6    H54   S    
C75   O14   A    
C4    C20   S    
C33   C57   A    
C76   C100  S    
C72   O6    A    
C130  H42   S    
C56   H16   S    
C77   H17   S    
C80   C86   A    
C54   C58   A    
Cu6   O30   S    
C108  C111  A    
C13   C17   A    
C76   O16   A    
Cu12  O11   S    
C115  S3    S    
S4    O58   D    
Cu4   O19   S    
C37   H5    S    
C128  C136  S    
C10   H58   S    
C55   H15   S    
C81   C113  A    
C9    H57   S    
Cu5   Cu6   S    
C106  H40   S    
C20   C24   A    
C5    H53   S    
Cu1   O22   S    
C126  H2    S    
C53   H13   S    
C70   O47   A    
Cu11  O47   S    
C49   C53   A    
C35   C39   A    
C30   C58   S    
C51   H11   S    
S1    O50   D    
C79   C85   A    
C72   O10   A    
Cu6   O34   S    
C116  S4    S    
C109  H47   S    
Cu7   O43   S    
C4    O4    A    
C80   C90   A    
Cu2   O3    S    
Cu3   O17   S    
C98   C100  A    
C127  C131  D    
C78   C84   A    
C73   O11   A    
C97   H31   S    
C120  C124  A    
C114  S2    S    
Cu8   O36   S    
C82   C116  A    
C114  C122  A    
C38   C42   A    
C125  C129  D    
C40   C44   A    
C85   H23   S    
C47   O27   A    
Cu4   O28   S    
C94   C102  A    
C91   C95   A    
C106  C110  A    
Cu1   O21   S    
C22   C26   A    
C123  H35   S    
C39   H7    S    
S3    O55   D    
C34   C58   A    
C94   C98   A    
S2    O52   D    
C48   O24   A    
C103  C117  A    
Cu7   O31   S    
Cu7   O40   S    
C93   H27   S    
C82   C117  S    
C96   H30   S    
C21   H65   S    
Cu5   O41   S    
C66   O36   A    
C74   O12   A    
C80   H20   S    
C12   C32   A    
C34   H74   S    
Cu5   O29   S    
C94   H28   S    
S3    O56   D    
C95   H29   S    
