data_mof_unit_32555.cif
_audit_creation_date              2012-12-11T15:19:32-0500
_audit_creation_method            fapswitch 2.2
_symmetry_space_group_name_H-M    P1
_symmetry_Int_Tables_number       1
_space_group_crystal_system       triclinic
_cell_length_a                    20.013019
_cell_length_b                    6.872974
_cell_length_c                    18.200342
_cell_angle_alpha                 89.981437
_cell_angle_beta                  104.210631
_cell_angle_gamma                 90.024626
_cell_volume                      2426.83215133

loop_
_atom_site_label
_atom_site_type_symbol
_atom_type_description
_atom_site_fract_x
_atom_site_fract_y
_atom_site_fract_z
_atom_type_partial_charge
O1    O     O_R   0.312200 0.620210 0.189560 -0.534869
O2    O     O_R   0.687800 0.379790 0.810440 -0.529836
O3    O     O_R   0.187800 0.120210 0.310440 -0.534995
O4    O     O_R   0.812200 0.879790 0.689560 -0.531432
O5    O     O_R   0.171590 0.286140 0.165000 -0.536578
O6    O     O_R   0.828410 0.713860 0.835000 -0.540220
O7    O     O_R   0.328410 0.786140 0.335000 -0.536202
O8    O     O_R   0.671590 0.213860 0.665000 -0.540106
C1    C     C_R   0.145668 0.459526 0.143772 0.708012
C2    C     C_R   0.854329 0.540471 0.856231 0.702639
C3    C     C_R   0.354332 0.959543 0.356228 0.710453
C4    C     C_R   0.645670 0.040453 0.643770 0.701812
O9    O     O_R   0.310670 0.290220 0.180540 -0.553073
O10   O     O_R   0.689330 0.709780 0.819460 -0.540953
O11   O     O_R   0.189330 0.790220 0.319460 -0.553814
O12   O     O_R   0.810670 0.209780 0.680540 -0.540013
O13   O     O_R   0.327870 0.124170 0.326080 -0.529606
O14   O     O_R   0.672130 0.875830 0.673920 -0.531378
O15   O     O_R   0.172130 0.624170 0.173920 -0.529783
O16   O     O_R   0.827870 0.375830 0.826080 -0.530338
C5    C     C_R   0.330472 0.459452 0.163373 0.689924
C6    C     C_R   0.669971 0.540585 0.837469 0.691545
C7    C     C_R   0.169642 0.959334 0.336691 0.693358
C8    C     C_R   0.830019 0.040707 0.662552 0.684253
O17   O     O_3   0.255480 0.455050 0.297740 -0.365139
O18   O     O_3   0.744520 0.544950 0.702260 -0.360520
O19   O     O_3   0.244520 0.955050 0.202260 -0.365581
O20   O     O_3   0.755480 0.044950 0.797740 -0.358496
V1    V     V_3+5 0.248980 0.178550 0.241140 1.436718
V2    V     V_3+5 0.751020 0.821450 0.758860 1.487707
V3    V     V_3+5 0.251020 0.678550 0.258860 1.436956
V4    V     V_3+5 0.748980 0.321450 0.741140 1.491992
C9    C     C_R   0.924037 0.879865 0.618876 -0.097563
C10   C     C_R   0.066120 0.100321 0.367270 -0.193527
C11   C     C_R   0.576541 0.378894 0.882257 -0.102189
C12   C     C_R   0.434549 0.600695 0.133612 -0.195170
C13   C     C_R   0.876041 0.030299 0.608989 -0.111804
C14   C     C_R   0.120418 0.968125 0.385848 -0.128292
C15   C     C_R   0.624435 0.529752 0.891624 -0.119025
C16   C     C_R   0.380119 0.468490 0.114621 -0.133874
C17   C     C_R   0.873328 0.167382 0.550080 -0.046052
C18   C     C_R   0.127085 0.849433 0.450469 -0.094595
C19   C     C_R   0.628026 0.666031 0.951040 -0.084746
C20   C     C_R   0.374392 0.348181 0.050557 -0.089866
C21   C     C_R   0.917975 0.146811 0.499369 0.033858
C22   C     C_R   0.071837 0.840378 0.487605 0.018578
C23   C     C_R   0.583404 0.646544 0.001942 -0.003546
C24   C     C_R   0.430745 0.337079 0.015291 0.016758
C25   C     C_R   0.969719 0.998585 0.514789 0.097917
C26   C     C_R   0.019500 0.985722 0.471185 0.070835
C27   C     C_R   0.532463 0.495968 0.987677 0.088255
C28   C     C_R   0.482493 0.483856 0.031054 0.088271
C29   C     C_R   0.971915 0.862875 0.574107 0.050710
C30   C     C_R   0.017408 0.118430 0.411167 0.012190
C31   C     C_R   0.530574 0.358335 0.929105 0.037851
C32   C     C_R   0.483882 0.617969 0.090335 0.025437
C33   C     C_R   0.913386 0.268957 0.434406 -0.081585
C34   C     C_R   0.067253 0.689783 0.539866 -0.068436
C35   C     C_R   0.587335 0.770839 0.066259 -0.090223
C36   C     C_R   0.437489 0.181003 0.966423 -0.022040
C37   C     C_R   0.964463 0.259153 0.392672 -0.083618
C38   C     C_R   0.019598 0.706266 0.585633 -0.063980
C39   C     C_R   0.536513 0.759789 0.108409 -0.088291
C40   C     C_R   0.483442 0.200214 0.918712 -0.052279
H1    H     H_    0.924214 0.777021 0.663856 0.112356
H2    H     H_    0.062700 0.189705 0.317546 0.112781
H3    H     H_    0.574649 0.278936 0.835913 0.113553
H4    H     H_    0.437470 0.691018 0.182961 0.112321
C41   C     C_1   0.583182 0.027431 0.581553 -0.172191
C42   C     C_1   0.416829 0.972552 0.418431 -0.166159
C43   C     C_1   0.916818 0.527471 0.918449 -0.178073
C44   C     C_1   0.083169 0.472515 0.081568 -0.171147
C45   C     C_1   0.530865 0.010862 0.530161 0.037287
C46   C     C_1   0.469151 0.989112 0.469815 0.040885
C47   C     C_1   0.969133 0.510884 0.969840 0.030089
C48   C     C_1   0.030847 0.489095 0.030186 0.034673
C49   C     C_2   0.825819 0.334488 0.545880 0.381185
H5    H     H_    0.770868 0.309457 0.537135 0.031206
O21   O     O_2   0.848255 0.500028 0.555854 -0.516299
C50   C     C_2   0.196306 0.766734 0.486004 0.387329
H6    H     H_    0.228265 0.704129 0.452020 0.055299
O22   O     O_2   0.219697 0.776045 0.554519 -0.465946
C51   C     C_2   0.677697 0.828446 0.956420 0.354595
H7    H     H_    0.732422 0.797793 0.966802 0.048895
O23   O     O_2   0.657486 0.995886 0.945246 -0.531337
C52   C     C_2   0.305532 0.264014 0.013519 0.391100
H8    H     H_    0.268361 0.229290 0.045845 0.050017
O24   O     O_2   0.288018 0.241931 0.944877 -0.473382
C53   C     C_2   0.853010 0.397631 0.405365 0.561561
H9    H     H_    0.801260 0.338370 0.394968 0.022537
O25   O     O_2   0.860662 0.570981 0.394977 -0.498783
C54   C     C_2   0.107507 0.506882 0.540771 0.580061
H10   H     H_    0.112938 0.445050 0.487673 -0.027745
O26   O     O_2   0.137504 0.429746 0.600153 -0.458415
C55   C     C_2   0.646281 0.905224 0.093911 0.564527
H11   H     H_    0.698620 0.849809 0.106065 0.033841
O27   O     O_2   0.636749 0.078795 0.101631 -0.503639
C56   C     C_2   0.405706 0.988137 0.976590 0.511917
H12   H     H_    0.388787 0.960222 0.027855 -0.008141
O28   O     O_2   0.398880 0.857491 0.929992 -0.479958
C57   C     C_2   0.962395 0.395679 0.328479 0.467594
H13   H     H_    0.007703 0.480880 0.326859 0.009717
O29   O     O_2   0.911080 0.408750 0.276097 -0.499045
C58   C     C_2   0.018931 0.558785 0.645437 0.528584
H14   H     H_    0.023036 0.604913 0.703382 0.025608
O30   O     O_2   0.011950 0.386004 0.630098 -0.510149
C59   C     C_2   0.538209 0.897372 0.172170 0.461006
H15   H     H_    0.492499 0.980402 0.173951 0.006156
O31   O     O_2   0.589823 0.914229 0.223962 -0.498960
C60   C     C_2   0.482815 0.054693 0.858178 0.517378
H16   H     H_    0.529709 0.979184 0.855486 0.046888
O32   O     O_2   0.430074 0.023883 0.809240 -0.453974

loop_
_geom_bond_atom_site_label_1
_geom_bond_atom_site_label_2
_ccdc_geom_bond_type
C34   C38   A    
C4    C41   S    
O18   V4    S    
C57   H13   S    
O19   V1    S    
O13   V1    S    
C45   C46   S    
O3    C7    A    
C55   H11   S    
C1    C44   S    
C44   C48   T    
O15   V3    S    
C10   H2    S    
C58   O30   D    
C3    C42   S    
C9    H1    S    
C49   H5    S    
O1    C5    A    
C21   C33   A    
O5    C1    A    
C26   C30   A    
C33   C53   S    
O9    V1    S    
C14   C18   A    
C36   C56   S    
C17   C49   S    
C11   C15   A    
O4    C8    A    
C52   O24   D    
O1    V3    S    
C19   C51   S    
O2    V4    S    
C18   C22   A    
O3    V1    S    
C60   H16   S    
C12   C16   A    
C40   C60   S    
C1    O15   A    
C2    O16   A    
O2    C6    A    
C59   H15   S    
C41   C45   T    
O14   V2    S    
C21   C25   A    
C53   O25   D    
C16   C20   A    
C38   C58   S    
C2    C43   S    
O11   C7    A    
O12   C8    A    
C22   C34   A    
O17   V1    S    
C59   O31   D    
C35   C55   S    
O10   V2    S    
C20   C52   S    
C58   H14   S    
C24   C36   A    
O5    V1    S    
C49   O21   D    
C9    C29   A    
O7    V3    S    
C11   C31   A    
C27   C28   A    
O8    V4    S    
O20   V4    S    
C50   O22   D    
C52   H8    S    
C15   C19   A    
O19   V3    S    
C9    C13   A    
C37   C57   S    
C47   C48   S    
C42   C46   T    
C12   C32   A    
C29   C38   A    
O7    C3    A    
C51   H7    S    
C11   H3    S    
O8    C4    A    
C31   C40   A    
C54   O26   D    
C8    C13   S    
C32   C39   A    
O9    C5    A    
C33   C37   A    
C51   O23   D    
C10   C30   A    
C56   O28   D    
C25   C26   A    
C39   C59   S    
O16   V4    S    
C55   O27   D    
C3    O13   A    
O6    V2    S    
C10   C14   A    
O17   V3    S    
C50   H6    S    
O6    C2    A    
C23   C27   A    
C12   H4    S    
O11   V3    S    
C30   C37   A    
O12   V4    S    
C7    C14   S    
C22   C26   A    
C35   C39   A    
C36   C40   A    
O10   C6    A    
O20   V2    S    
C43   C47   T    
C5    C16   S    
C34   C54   S    
C25   C29   A    
C6    C15   S    
C54   H10   S    
C27   C31   A    
C13   C17   A    
C60   O32   D    
C23   C35   A    
C20   C24   A    
C24   C28   A    
C57   O29   D    
C56   H12   S    
C4    O14   A    
C18   C50   S    
C17   C21   A    
C53   H9    S    
C19   C23   A    
O4    V2    S    
C28   C32   A    
O18   V2    S    
