data_mof_unit_27089.cif
_audit_creation_date              2012-12-10T16:56:30-0500
_audit_creation_method            fapswitch 2.2
_symmetry_space_group_name_H-M    P1
_symmetry_Int_Tables_number       1
_space_group_crystal_system       triclinic
_cell_length_a                    7.816473
_cell_length_b                    8.566908
_cell_length_c                    15.724729
_cell_angle_alpha                 91.546057
_cell_angle_beta                  84.941289
_cell_angle_gamma                 93.781523
_cell_volume                      1046.35269828

loop_
_atom_site_label
_atom_site_type_symbol
_atom_type_description
_atom_site_fract_x
_atom_site_fract_y
_atom_site_fract_z
_atom_type_partial_charge
C1    C     C_R   0.545713 0.794597 0.497924 0.952801
C2    C     C_3   0.371209 0.402075 0.031776 0.492345
C3    C     C_1   0.502364 0.500169 0.750418 -0.142503
C4    C     C_1   0.497636 0.499831 0.249582 -0.142502
C5    C     C_3   0.349945 0.546785 0.978598 0.496977
C6    C     C_3   0.650055 0.453215 0.021402 0.496977
C7    C     C_3   0.501457 0.499875 0.916261 -0.506522
C8    C     C_3   0.498543 0.500125 0.083739 -0.506523
C9    C     C_1   0.502533 0.500007 0.825580 0.284172
C10   C     C_1   0.497467 0.499993 0.174420 0.284173
C11   C     C_3   0.955037 0.305823 0.360077 0.164406
C12   C     C_R   0.454287 0.205403 0.502075 0.952800
C13   C     C_3   0.063593 0.192502 0.306340 -0.724490
C14   C     C_3   0.044965 0.694178 0.639923 0.164405
C15   C     C_3   0.936408 0.807497 0.693661 -0.724498
C16   C     C_R   0.500856 0.500365 0.661777 0.857349
C17   C     C_R   0.499144 0.499635 0.338223 0.857345
C18   C     C_2   0.569639 0.958255 0.496684 -0.359815
C19   C     C_2   0.430361 0.041745 0.503316 -0.359813
C20   C     C_3   0.477309 0.644845 0.030947 0.486928
C21   C     C_3   0.522691 0.355155 0.969053 0.486928
C22   C     C_3   0.628791 0.597925 0.968224 0.492345
F1    F     F_    0.761341 0.698502 0.934164 -0.518047
F2    F     F_    0.238658 0.301498 0.065836 -0.518049
F3    F     F_    0.453897 0.793830 0.064054 -0.514723
F4    F     F_    0.546103 0.206170 0.935946 -0.514723
F5    F     F_    0.804465 0.405179 0.044716 -0.502312
F6    F     F_    0.195535 0.594820 0.955284 -0.502311
H1    H     H_    0.701139 0.009457 0.490305 0.192670
H2    H     H_    0.803719 0.754642 0.707873 0.258882
H3    H     H_    0.994166 0.834807 0.754801 0.270104
H4    H     H_    0.930602 0.917818 0.658774 0.243207
H5    H     H_    0.298861 0.990543 0.509695 0.192671
H6    H     H_    0.951797 0.414265 0.322858 0.174506
H7    H     H_    0.824011 0.249164 0.372210 0.172469
H8    H     H_    0.069375 0.082171 0.341223 0.243203
H9    H     H_    0.005849 0.165210 0.245194 0.270109
H10   H     H_    0.196292 0.245346 0.292139 0.258879
H11   H     H_    0.175990 0.750840 0.627788 0.172469
H12   H     H_    0.048211 0.585738 0.677142 0.174510
N1    N     N_2   0.950320 0.457950 0.477300 0.169150
N2    N     N_2   0.049680 0.542050 0.522700 0.169150
O1    O     O_R   0.389250 0.738570 0.505570 -0.639151
O2    O     O_3   0.970302 0.661557 0.562941 -0.533115
O3    O     O_R   0.610750 0.261430 0.494430 -0.639149
O4    O     O_R   0.678390 0.711630 0.491020 -0.570274
O5    O     O_R   0.321610 0.288370 0.508980 -0.570274
O6    O     O_R   0.355460 0.513480 0.630490 -0.657130
O7    O     O_R   0.644540 0.486520 0.369510 -0.657129
O8    O     O_R   0.644600 0.486540 0.615950 -0.583703
O9    O     O_R   0.355400 0.513460 0.384050 -0.583706
O10   O     O_3   0.029696 0.338441 0.437060 -0.533115
Zn1   Zn    Zn3+2 0.306940 0.517990 0.509710 1.035822
Zn2   Zn    Zn3+2 0.693060 0.482010 0.490290 1.035824

loop_
_geom_bond_atom_site_label_1
_geom_bond_atom_site_label_2
_ccdc_geom_bond_type
C21   F4    S    
C15   H3    S    
C3    C9    T    
C5    F6    S    
N1    N2    D    
N1    O10   S    
C13   H9    S    
C6    F5    S    
O1    Zn1   S    
O5    Zn1   S    
C17   O9    A    
C2    C21   S    
C11   H7    S    
C1    C18   S    
C15   H4    S    
C18   H1    S    
O8    Zn2   S    
C7    C21   S    
C11   C13   S    
C16   O6    A    
C13   H10   S    
C8    C20   S    
N2    O2    S    
C13   H8    S    
C12   O5    A    
C4    C17   S    
C12   C19   S    
C8    C10   S    
O4    Zn2   S    
C20   C22   S    
O3    Zn2   S    
C5    C7    S    
N2    Zn1   S    
C2    F2    S    
O6    Zn1   S    
C1    O4    A    
N1    Zn2   S    
C2    C5    S    
C20   F3    S    
C14   H12   S    
O7    Zn2   S    
C7    C22   S    
C7    C9    S    
C15   H2    S    
C14   O2    S    
C18   C19   D    
C19   H5    S    
C17   O7    A    
C5    C20   S    
C22   F1    S    
C6    C8    S    
C11   O10   S    
C14   H11   S    
C14   C15   S    
C6    C21   S    
C4    C10   T    
C1    O1    A    
C11   H6    S    
C2    C8    S    
C3    C16   S    
C16   O8    A    
C12   O3    A    
O9    Zn1   S    
C6    C22   S    
