data_mof_unit_43690.cif
_audit_creation_date              2012-12-10T16:49:24-0500
_audit_creation_method            fapswitch 2.2
_symmetry_space_group_name_H-M    P1
_symmetry_Int_Tables_number       1
_space_group_crystal_system       triclinic
_cell_length_a                    19.271499
_cell_length_b                    8.689222
_cell_length_c                    7.466127
_cell_angle_alpha                 103.214923
_cell_angle_beta                  94.369853
_cell_angle_gamma                 92.678832
_cell_volume                      1210.93655859

loop_
_atom_site_label
_atom_site_type_symbol
_atom_type_description
_atom_site_fract_x
_atom_site_fract_y
_atom_site_fract_z
_atom_type_partial_charge
C1    C     C_R   0.497885 0.199656 0.453055 0.854805
C2    C     C_R   0.502115 0.800344 0.546945 0.854806
C3    C     C_2   0.496903 0.031550 0.426891 -0.330754
C4    C     C_2   0.503097 0.968450 0.573109 -0.330763
C5    C     C_R   0.367508 0.500693 0.502293 0.775455
C6    C     C_R   0.632492 0.499309 0.497708 0.775467
C7    C     C_R   0.262992 0.566067 0.674776 -0.190731
C8    C     C_R   0.737013 0.434043 0.325208 -0.190747
C9    C     C_R   0.190797 0.578126 0.680373 -0.018447
C10   C     C_R   0.809208 0.421969 0.319618 -0.018366
C11   C     C_R   0.146731 0.521802 0.514660 -0.031494
C12   C     C_R   0.853270 0.478156 0.485353 -0.031540
C13   C     C_R   0.175974 0.462812 0.348322 -0.148289
C14   C     C_R   0.824023 0.537060 0.651703 -0.148300
C15   C     C_R   0.247668 0.455789 0.344498 -0.122998
C16   C     C_R   0.752329 0.544104 0.655522 -0.122957
C17   C     C_R   0.291656 0.506007 0.507666 -0.064909
C18   C     C_R   0.708344 0.493995 0.492337 -0.064984
C19   C     C_R   0.929575 0.485767 0.490018 0.454555
C20   C     C_R   0.070427 0.514172 0.509997 0.454530
Cu1   Cu    Cu3+1 0.507710 0.517380 0.684380 1.120712
Cu2   Cu    Cu3+1 0.492290 0.482620 0.315620 1.120718
H1    H     H_    0.297337 0.609269 0.799950 0.200081
H2    H     H_    0.702669 0.390934 0.200015 0.200080
H3    H     H_    0.143004 0.419197 0.220744 0.183485
H4    H     H_    0.856992 0.580595 0.779291 0.183572
H5    H     H_    0.268567 0.409133 0.213764 0.192486
H6    H     H_    0.731426 0.590689 0.786263 0.192573
H7    H     H_    0.491090 0.959402 0.286232 0.202726
H8    H     H_    0.508909 0.040598 0.713768 0.202723
N1    N     N_R   0.031709 0.555505 0.370980 -0.200205
N2    N     N_R   0.968293 0.444436 0.629038 -0.200217
N3    N     N_R   0.962443 0.542749 0.361992 -0.183551
N4    N     N_R   0.037560 0.457194 0.638027 -0.183546
N5    N     N_2   0.480680 0.456420 0.038530 0.230105
N6    N     N_2   0.519320 0.543580 0.961470 0.230099
O1    O     O_R   0.505010 0.286130 0.619770 -0.545708
O2    O     O_R   0.494990 0.713870 0.380230 -0.545702
O3    O     O_R   0.491990 0.256780 0.308370 -0.576984
O4    O     O_R   0.508010 0.743220 0.691630 -0.576983
O5    O     O_R   0.406650 0.514660 0.655750 -0.547524
O6    O     O_R   0.593350 0.485340 0.344250 -0.547535
O7    O     O_R   0.393640 0.485310 0.344340 -0.571221
O8    O     O_R   0.606360 0.514690 0.655660 -0.571243
C21   C     C_2   0.164579 0.658056 0.858289 0.856896
O9    O     O_2   0.110703 0.727133 0.859931 -0.556380
O10   O     O_R   0.203468 0.660343 0.024973 -0.774127
H9    H     H_    0.181142 0.720758 0.136344 0.347901
C22   C     C_2   0.835430 0.342082 0.141707 0.856907
O11   O     O_2   0.889278 0.272904 0.140076 -0.556391
O12   O     O_R   0.796581 0.339952 0.975021 -0.774219
H10   H     H_    0.818883 0.279440 0.863661 0.347888
F1    F     F_    0.431290 0.360803 0.926553 -0.555872
F2    F     F_    0.568710 0.639196 0.073447 -0.555884

loop_
_geom_bond_atom_site_label_1
_geom_bond_atom_site_label_2
_ccdc_geom_bond_type
C16   H6    S    
C2    C4    S    
N1    N3    A    
C9    C21   S    
N5    F1    S    
Cu1   O8    S    
C11   C13   A    
C2    O2    A    
C15   H5    S    
Cu2   O7    S    
C1    O1    A    
C20   N4    A    
C13   C15   A    
C5    O7    A    
Cu1   O1    S    
O12   H10   S    
Cu1   N6    S    
C6    O8    A    
Cu1   Cu2   S    
C14   H4    S    
C15   C17   A    
Cu2   N5    S    
C9    C11   A    
C13   H3    S    
Cu2   O6    S    
Cu1   O4    S    
C10   C12   A    
C7    H1    S    
C19   N2    A    
C12   C19   S    
C8    C10   A    
C8    H2    S    
C12   C14   A    
C8    C18   A    
C14   C16   A    
C21   O10   S    
C6    O6    A    
C6    C18   S    
Cu1   O5    S    
C11   C20   S    
N6    F2    S    
Cu2   O3    S    
C3    C4    D    
Cu2   O2    S    
C2    O4    A    
C3    H7    S    
C5    C17   S    
C16   C18   A    
C22   O11   D    
C19   N3    A    
C1    C3    S    
C7    C9    A    
C1    O3    A    
C5    O5    A    
C22   O12   S    
C21   O9    D    
C10   C22   S    
C20   N1    A    
C4    H8    S    
O10   H9    S    
C7    C17   A    
N5    N6    D    
N2    N4    A    
