data_mof_unit_21219.cif
_audit_creation_date              2012-12-11T15:08:33-0500
_audit_creation_method            fapswitch 2.2
_symmetry_space_group_name_H-M    P1
_symmetry_Int_Tables_number       1
_space_group_crystal_system       triclinic
_cell_length_a                    27.01033
_cell_length_b                    7.176072
_cell_length_c                    11.702256
_cell_angle_alpha                 89.999705
_cell_angle_beta                  101.920124
_cell_angle_gamma                 89.998776
_cell_volume                      2219.31484125

loop_
_atom_site_label
_atom_site_type_symbol
_atom_type_description
_atom_site_fract_x
_atom_site_fract_y
_atom_site_fract_z
_atom_type_partial_charge
O1    O     O_R   0.437360 0.505910 0.042120 -0.536122
O2    O     O_R   0.562640 0.005910 0.957880 -0.536138
O3    O     O_R   0.542480 0.176660 0.157100 -0.534048
O4    O     O_R   0.457520 0.676660 0.842900 -0.534021
C1    C     C_R   0.557378 0.343901 0.196921 0.730849
C2    C     C_R   0.442623 0.843906 0.803079 0.730858
O5    O     O_R   0.436520 0.176250 0.054800 -0.532594
O6    O     O_R   0.563480 0.676250 0.945200 -0.532577
O7    O     O_R   0.455920 0.005040 0.854840 -0.539412
O8    O     O_R   0.544080 0.505040 0.145160 -0.539392
C3    C     C_R   0.416926 0.344154 0.061400 0.737018
C4    C     C_R   0.583074 0.844150 0.938600 0.737016
O9    O     O_3   0.506490 0.338900 0.934520 -0.380238
O10   O     O_3   0.493510 0.838900 0.065480 -0.380255
V1    V     V_3+5 0.498800 0.064400 0.012150 1.443053
V2    V     V_3+5 0.501200 0.564400 0.987850 1.443134
C5    C     C_R   0.681875 0.831497 0.753289 -0.166564
C6    C     C_R   0.318123 0.331628 0.246713 -0.166557
H1    H     H_    0.769490 0.848305 0.705075 0.144041
H2    H     H_    0.230507 0.348388 0.294921 0.144045
H3    H     H_    0.682900 0.816121 0.661588 0.153524
H4    H     H_    0.317098 0.316321 0.338417 0.153532
C7    C     C_R   0.632491 0.850492 0.903025 -0.075382
C8    C     C_R   0.367508 0.350511 0.096973 -0.075368
C9    C     C_R   0.865072 0.873817 0.205580 -0.106009
C10   C     C_R   0.134926 0.373771 0.794414 -0.106019
C11   C     C_R   0.819567 0.882609 0.241660 -0.058926
C12   C     C_R   0.180431 0.382542 0.758333 -0.058919
C13   C     C_R   0.774323 0.883476 0.160258 -0.099744
C14   C     C_R   0.225674 0.383411 0.839735 -0.099747
C15   C     C_R   0.773096 0.874754 0.038683 0.071223
C16   C     C_R   0.226902 0.374710 0.961309 0.071216
C17   C     C_R   0.820454 0.867981 0.999124 -0.000351
C18   C     C_R   0.179543 0.367957 0.000869 -0.000344
C19   C     C_R   0.725893 0.867525 0.956272 0.081952
C20   C     C_R   0.274105 0.367501 0.043720 0.081951
C21   C     C_R   0.726702 0.852635 0.836617 0.032270
C22   C     C_R   0.273295 0.352683 0.163378 0.032275
C23   C     C_R   0.771918 0.855220 0.798329 -0.230438
C24   C     C_R   0.228079 0.355263 0.201665 -0.230398
C25   C     C_R   0.819200 0.860236 0.875028 0.238831
C26   C     C_R   0.180797 0.360234 0.124965 0.238817
C27   C     C_R   0.677515 0.870397 0.987691 -0.239815
C28   C     C_R   0.322482 0.370336 0.012300 -0.239800
C29   C     C_R   0.635417 0.828123 0.785764 0.143687
C30   C     C_R   0.364582 0.328259 0.214241 0.143629
C31   C     C_R   0.866466 0.865838 0.086904 -0.038137
C32   C     C_R   0.133532 0.365817 0.913090 -0.038122
H5    H     H_    0.673196 0.884726 0.076688 0.105052
H6    H     H_    0.326802 0.384582 0.923299 0.105044
H7    H     H_    0.899848 0.874614 0.271391 0.105549
H8    H     H_    0.100150 0.374566 0.728603 0.105533
H9    H     H_    0.740825 0.889908 0.196307 0.106005
H10   H     H_    0.259173 0.389840 0.803688 0.106007
H11   H     H_    0.819329 0.889171 0.334025 0.121568
H12   H     H_    0.180669 0.389089 0.665968 0.121569
C33   C     C_R   0.092638 0.859759 0.311892 -0.156696
C34   C     C_R   0.907364 0.359757 0.688106 -0.156699
C35   C     C_R   0.408062 0.848318 0.687812 -0.093156
C36   C     C_R   0.591938 0.348291 0.312192 -0.093171
C37   C     C_R   0.108508 0.883148 0.521800 -0.179524
C38   C     C_R   0.891496 0.383099 0.478195 -0.179511
C39   C     C_R   0.074313 0.890744 0.414475 0.231433
C40   C     C_R   0.925691 0.390703 0.585521 0.231461
C41   C     C_R   0.144861 0.822444 0.317071 0.196748
C42   C     C_R   0.855141 0.322450 0.682927 0.196758
C43   C     C_R   0.180605 0.823908 0.428187 -0.010913
C44   C     C_R   0.819397 0.323915 0.571809 -0.010927
C45   C     C_R   0.160538 0.855117 0.530370 -0.020416
C46   C     C_R   0.839464 0.355119 0.469626 -0.020425
C47   C     C_R   0.235153 0.801614 0.443805 0.077784
C48   C     C_R   0.764850 0.301614 0.556190 0.077778
C49   C     C_R   0.267407 0.829026 0.556503 0.033034
C50   C     C_R   0.732595 0.329060 0.443497 0.033034
C51   C     C_R   0.244634 0.852838 0.653051 -0.215829
C52   C     C_R   0.755366 0.352886 0.346948 -0.215827
C53   C     C_R   0.192701 0.860224 0.641565 0.155145
C54   C     C_R   0.807300 0.360255 0.358432 0.155149
C55   C     C_R   0.259351 0.750889 0.352730 -0.196124
C56   C     C_R   0.740657 0.250826 0.647258 -0.196104
C57   C     C_R   0.311119 0.758548 0.363488 -0.215484
C58   C     C_R   0.688889 0.258413 0.636498 -0.215501
C59   C     C_R   0.343021 0.802816 0.469332 0.081299
C60   C     C_R   0.656983 0.302702 0.530663 0.081282
C61   C     C_R   0.321691 0.828406 0.569683 0.060638
C62   C     C_R   0.678311 0.328418 0.430319 0.060643
C63   C     C_R   0.396086 0.811235 0.476963 0.342840
C64   C     C_R   0.603916 0.311011 0.523031 0.342830
C65   C     C_R   0.427694 0.834414 0.587252 -0.180474
C66   C     C_R   0.572307 0.334184 0.412744 -0.180483
C67   C     C_R   0.355659 0.849311 0.679239 -0.229410
C68   C     C_R   0.644341 0.349416 0.320771 -0.229405
H13   H     H_    0.343145 0.861419 0.760457 0.109457
H14   H     H_    0.656854 0.361688 0.239559 0.109462
H15   H     H_    0.467868 0.840591 0.596251 0.151083
H16   H     H_    0.532133 0.340205 0.403737 0.151127
H17   H     H_    0.325869 0.722021 0.287255 0.162770
H18   H     H_    0.674143 0.221813 0.712726 0.162744
H19   H     H_    0.094454 0.905709 0.600120 0.176401
H20   H     H_    0.905552 0.405603 0.399873 0.176400
H21   H     H_    0.266185 0.865112 0.740773 0.151700
H22   H     H_    0.733814 0.365151 0.259226 0.151696
H23   H     H_    0.240444 0.697471 0.270963 0.206492
H24   H     H_    0.759568 0.197392 0.729017 0.206494
O11   O     O_R   0.955980 0.206520 0.854760 -0.549978
O12   O     O_R   0.044020 0.706520 0.145240 -0.549977
O13   O     O_R   0.063490 0.536770 0.945200 -0.545153
O14   O     O_R   0.936510 0.036770 0.054800 -0.545157
C69   C     C_R   0.082746 0.369020 0.938420 0.679508
C70   C     C_R   0.917253 0.869025 0.061577 0.679540
O15   O     O_R   0.957530 0.536190 0.842880 -0.536535
O16   O     O_R   0.042470 0.036190 0.157120 -0.536550
O17   O     O_R   0.937350 0.707210 0.042130 -0.521633
O18   O     O_R   0.062650 0.207210 0.957870 -0.521643
C71   C     C_R   0.942900 0.367945 0.802883 0.725048
C72   C     C_R   0.057100 0.867944 0.197118 0.725099
O19   O     O_3   0.993540 0.373870 0.065440 -0.372173
O20   O     O_3   0.006460 0.873870 0.934560 -0.372170
V3    V     V_3+5 0.001200 0.648440 0.987860 1.429198
V4    V     V_3+5 0.998800 0.148440 0.012140 1.429170
I1    I     I_    0.572210 0.787711 0.650862 -0.556678
I2    I     I_    0.427786 0.288056 0.349168 -0.556748
N1    N     N_2   0.021298 0.924784 0.407994 -0.541361
H25   H     H_    0.002650 0.998738 0.336503 0.250997
C73   C     C_3   0.002016 0.957090 0.513189 -0.558714
H26   H     H_    0.960414 0.978699 0.490010 0.202549
H27   H     H_    0.019904 0.082441 0.559592 0.230601
H28   H     H_    0.009497 0.834976 0.572356 0.213079
N2    N     N_2   0.978708 0.424691 0.591998 -0.541367
H29   H     H_    0.997374 0.498497 0.663534 0.250966
C74   C     C_3   0.997983 0.457144 0.486809 -0.558686
H30   H     H_    0.039581 0.478849 0.509989 0.202544
H31   H     H_    0.980071 0.582484 0.440433 0.230572
H32   H     H_    0.990524 0.335059 0.427615 0.213065
N3    N     N_2   0.159729 0.776706 0.210323 -0.553974
H33   H     H_    0.134506 0.698285 0.153045 0.275122
C75   C     C_3   0.177540 0.926516 0.148056 -0.523427
H34   H     H_    0.144980 0.010439 0.102678 0.244804
H35   H     H_    0.196798 0.867664 0.081091 0.222742
H36   H     H_    0.205610 0.010264 0.208626 0.220468
N4    N     N_2   0.840273 0.276717 0.789675 -0.553979
H37   H     H_    0.865498 0.198311 0.846964 0.275121
C76   C     C_3   0.822450 0.426521 0.851927 -0.523420
H38   H     H_    0.855004 0.510457 0.897312 0.244803
H39   H     H_    0.803189 0.367663 0.918885 0.222739
H40   H     H_    0.794379 0.510253 0.791343 0.220468
N5    N     N_2   0.416466 0.794537 0.373250 -0.517071
H41   H     H_    0.398440 0.873023 0.303133 0.271929
C77   C     C_3   0.470416 0.776166 0.380704 -0.439386
H42   H     H_    0.477714 0.744055 0.292864 0.213937
H43   H     H_    0.485760 0.659613 0.439630 0.220224
H44   H     H_    0.490023 0.908223 0.411673 0.211791
N6    N     N_2   0.583536 0.294203 0.626741 -0.517047
H45   H     H_    0.601562 0.372637 0.696882 0.271932
C78   C     C_3   0.529585 0.275876 0.619283 -0.439457
H46   H     H_    0.522283 0.243761 0.707119 0.213918
H47   H     H_    0.514237 0.159340 0.560352 0.220111
H48   H     H_    0.509984 0.407950 0.588315 0.211916
N7    N     N_2   0.864203 0.840523 0.826964 -0.517187
H49   H     H_    0.893922 0.925988 0.859417 0.265731
C79   C     C_3   0.860952 0.814031 0.702555 -0.531293
H50   H     H_    0.899333 0.788733 0.685411 0.203485
H51   H     H_    0.845287 0.940138 0.653403 0.196552
H52   H     H_    0.837205 0.692151 0.669922 0.203148
N8    N     N_2   0.135795 0.340511 0.173031 -0.517195
H53   H     H_    0.106075 0.425974 0.140581 0.265738
C80   C     C_3   0.139048 0.314014 0.297441 -0.531314
H54   H     H_    0.100670 0.288687 0.314586 0.203485
H55   H     H_    0.154705 0.440130 0.346591 0.196551
H56   H     H_    0.162804 0.192150 0.330076 0.203152
I3    I     I_    0.167136 0.881563 0.802290 -0.531974
I4    I     I_    0.832864 0.381617 0.197707 -0.531970

loop_
_geom_bond_atom_site_label_1
_geom_bond_atom_site_label_2
_ccdc_geom_bond_type
C76   H40   S    
C59   C63   A    
O4    V2    S    
N8    H53   S    
C7    C29   A    
O12   V3    S    
C11   C13   A    
O13   C69   A    
O14   V4    S    
C42   C44   A    
N5    H41   S    
O1    C3    A    
C74   H32   S    
O2    C4    A    
C2    O7    A    
C47   C55   A    
C79   H50   S    
C12   H12   S    
N3    H33   S    
C23   C25   A    
C42   N4    S    
O5    C3    A    
C75   H35   S    
C4    C7    S    
C50   C52   A    
C56   H24   S    
C16   C20   A    
N5    C77   S    
C5    C29   A    
O19   V3    S    
H2    C24   S    
C11   H11   S    
N1    C73   S    
C46   C54   A    
C37   C45   A    
C76   H38   S    
C76   H39   S    
C3    C8    S    
C7    C27   A    
C38   C46   A    
O15   V3    S    
C35   C65   A    
C37   C39   A    
O20   V3    S    
C38   C40   A    
C57   C59   A    
C25   N7    S    
C45   C53   A    
C34   C42   A    
C41   C43   A    
C18   C26   A    
C73   H28   S    
C15   C17   A    
O11   V4    S    
N6    C78   S    
C19   C27   A    
C9    C31   A    
C26   N8    S    
O6    C4    A    
C24   C26   A    
C32   C69   S    
O6    V2    S    
C22   C24   A    
O17   V3    S    
C78   H48   S    
C34   C40   A    
C58   H18   S    
C55   H23   S    
C37   H19   S    
C13   C15   A    
C6    C30   A    
O13   V3    S    
C79   H51   S    
C33   C39   A    
C80   H56   S    
C36   C68   A    
C52   H22   S    
C33   C72   S    
C75   H36   S    
N1    H25   S    
C10   C32   A    
C56   C58   A    
O19   V4    S    
C33   C41   A    
C80   H54   S    
O16   V4    S    
C27   H5    S    
C35   C67   A    
C29   I1    S    
C5    H3    S    
C48   C56   A    
C80   H55   S    
O12   C72   A    
C44   C48   A    
C43   C45   A    
N4    C76   S    
C16   C18   A    
C65   H15   S    
C9    H7    S    
O2    V1    S    
C10   H8    S    
C67   H13   S    
C14   H10   S    
N7    H49   S    
C53   I3    S    
C68   H14   S    
O1    V2    S    
C5    C21   A    
C50   C62   A    
C73   H27   S    
C78   H47   S    
C51   C53   A    
C70   O17   A    
C49   C61   A    
C41   N3    S    
H1    C23   S    
C69   O18   A    
C38   H20   S    
O15   C71   A    
C48   C50   A    
C59   C61   A    
C64   C66   A    
C58   C60   A    
C63   C65   A    
C34   C71   S    
C17   C31   A    
C15   C19   A    
C77   H44   S    
O4    C2    A    
C18   C32   A    
C49   C51   A    
C74   H30   S    
C61   C67   A    
O3    C1    A    
O16   C72   A    
C79   H52   S    
O3    V1    S    
C55   C57   A    
N2    H29   S    
C28   H6    S    
N3    C75   S    
C1    C36   S    
C19   C21   A    
C6    H4    S    
C2    C35   S    
O11   C71   A    
C30   I2    S    
C60   C64   A    
C52   C54   A    
C74   H31   S    
C39   N1    S    
C66   H16   S    
C36   C66   A    
C9    C11   A    
C31   C70   S    
C75   H34   S    
C10   C12   A    
C8    C30   A    
C64   N6    S    
C77   H43   S    
N7    C79   S    
C6    C22   A    
C17   C25   A    
C12   C14   A    
C21   C23   A    
C62   C68   A    
C77   H42   S    
C20   C22   A    
C14   C16   A    
C73   H26   S    
C13   H9    S    
C8    C28   A    
O5    V1    S    
C57   H17   S    
O14   C70   A    
C43   C47   A    
O7    V1    S    
O20   V4    S    
C20   C28   A    
C1    O8    A    
C40   N2    S    
N8    C80   S    
C63   N5    S    
O9    V2    S    
C47   C49   A    
C78   H46   S    
C51   H21   S    
C44   C46   A    
O10   V1    S    
C60   C62   A    
O8    V2    S    
N2    C74   S    
C54   I4    S    
N4    H37   S    
O18   V4    S    
N6    H45   S    
