data_mof_unit_64098.cif
_audit_creation_date              2012-12-10T17:40:22-0500
_audit_creation_method            fapswitch 2.2
_symmetry_space_group_name_H-M    P1
_symmetry_Int_Tables_number       1
_space_group_crystal_system       triclinic
_cell_length_a                    37.409127
_cell_length_b                    30.376411
_cell_length_c                    21.928371
_cell_angle_alpha                 89.999752
_cell_angle_beta                  125.712615
_cell_angle_gamma                 89.999979
_cell_volume                      20232.6318359

loop_
_atom_site_label
_atom_site_type_symbol
_atom_type_description
_atom_site_fract_x
_atom_site_fract_y
_atom_site_fract_z
_atom_type_partial_charge
C1    C     C_R   0.414821 0.500033 0.914819 0.814744
C2    C     C_R   0.585179 0.500032 0.085181 0.814742
C3    C     C_R   0.914821 0.000033 0.914819 0.814744
C4    C     C_R   0.085179 0.000032 0.085180 0.814742
C5    C     C_2   0.505716 0.501348 0.822023 -0.384906
C6    C     C_2   0.494284 0.501348 0.177977 -0.384904
C7    C     C_2   0.005716 0.001348 0.822023 -0.384906
C8    C     C_2   0.994285 0.001348 0.177979 -0.384898
C9    C     C_R   0.296939 0.461532 0.788772 -0.225233
C10   C     C_R   0.703061 0.461531 0.211226 -0.225235
C11   C     C_R   0.796940 0.961534 0.788752 -0.225233
C12   C     C_R   0.203061 0.961530 0.211221 -0.225240
C13   C     C_R   0.342759 0.461038 0.835010 -0.154970
C14   C     C_R   0.657241 0.461037 0.164988 -0.154968
C15   C     C_R   0.842759 0.961040 0.834990 -0.154973
C16   C     C_R   0.157241 0.961037 0.164983 -0.154968
C17   C     C_R   0.366363 0.500319 0.866211 -0.102392
C18   C     C_R   0.633637 0.500318 0.133790 -0.102396
C19   C     C_R   0.866363 0.000319 0.866210 -0.102393
C20   C     C_R   0.133637 0.000318 0.133788 -0.102392
C21   C     C_R   0.343372 0.540125 0.850356 -0.235158
C22   C     C_R   0.656628 0.540125 0.149648 -0.235150
C23   C     C_R   0.843373 0.040123 0.850374 -0.235126
C24   C     C_R   0.156628 0.040125 0.149647 -0.235179
C25   C     C_R   0.297321 0.541012 0.803902 0.458036
C26   C     C_R   0.702678 0.541012 0.196103 0.458033
C27   C     C_R   0.797322 0.041010 0.803920 0.458017
C28   C     C_R   0.202679 0.041011 0.196100 0.458057
C29   C     C_R   0.274010 0.501164 0.773338 -0.046737
C30   C     C_R   0.725990 0.501163 0.226664 -0.046742
C31   C     C_R   0.774010 0.001164 0.773337 -0.046740
C32   C     C_R   0.225990 0.001163 0.226660 -0.046739
C33   C     C_R   0.202920 0.494231 0.647868 -0.098116
C34   C     C_R   0.797081 0.494220 0.352131 -0.098125
C35   C     C_R   0.702919 0.994221 0.647870 -0.098165
C36   C     C_R   0.297080 0.994243 0.352134 -0.098080
C37   C     C_R   0.157032 0.494261 0.601978 -0.169305
C38   C     C_R   0.842968 0.494249 0.398020 -0.169294
C39   C     C_R   0.657032 0.994251 0.601980 -0.169284
C40   C     C_R   0.342968 0.994272 0.398024 -0.169317
C41   C     C_R   0.133604 0.499509 0.633450 -0.046845
C42   C     C_R   0.866396 0.499509 0.366551 -0.046837
C43   C     C_R   0.633604 0.999509 0.633450 -0.046832
C44   C     C_R   0.366395 0.999509 0.366550 -0.046852
C45   C     C_R   0.501361 0.500116 0.883816 0.883973
C46   C     C_R   0.498639 0.500116 0.116184 0.883974
C47   C     C_R   0.001361 0.000116 0.883816 0.883971
C48   C     C_R   0.998639 0.000116 0.116184 0.883973
C49   C     C_R   0.156882 0.504391 0.711616 -0.174332
C50   C     C_R   0.843118 0.504401 0.288386 -0.174331
C51   C     C_R   0.656882 0.004400 0.711615 -0.174353
C52   C     C_R   0.343118 0.004378 0.288381 -0.174307
C53   C     C_R   0.202745 0.504572 0.757327 -0.076577
C54   C     C_R   0.797255 0.504582 0.242675 -0.076560
C55   C     C_R   0.702745 0.004581 0.757325 -0.076558
C56   C     C_R   0.297255 0.004559 0.242671 -0.076577
C57   C     C_R   0.225822 0.499921 0.725474 0.146453
C58   C     C_R   0.774178 0.499920 0.274526 0.146471
C59   C     C_R   0.725822 0.999921 0.725474 0.146486
C60   C     C_R   0.274178 0.999921 0.274525 0.146441
C61   C     C_R   0.500000 0.414845 0.500000 0.857815
C62   C     C_R   0.000000 0.914845 0.500000 0.857789
C63   C     C_R   0.499858 0.497795 0.617317 0.887814
C64   C     C_R   0.500141 0.497795 0.382683 0.887814
C65   C     C_R   0.999858 0.997795 0.617317 0.887815
C66   C     C_R   0.000141 0.997794 0.382683 0.887795
C67   C     C_R   0.500000 0.584993 0.500000 0.701538
C68   C     C_R   1.000000 0.084993 0.500000 0.701538
C69   C     C_R   0.000000 0.414941 0.500000 0.803912
C70   C     C_R   0.500000 0.914941 0.500000 0.803915
C71   C     C_R   0.085174 0.499841 0.585111 0.795133
C72   C     C_R   0.914826 0.499841 0.414889 0.795130
C73   C     C_R   0.585174 0.999841 0.585111 0.795126
C74   C     C_R   0.414826 0.999841 0.414889 0.795139
C75   C     C_R   0.000000 0.585116 0.500000 0.792306
C76   C     C_R   0.500000 0.085116 0.500000 0.792307
C77   C     C_R   0.461399 0.297236 0.447536 -0.157989
C78   C     C_R   0.538602 0.297235 0.552464 -0.157989
C79   C     C_R   0.961399 0.797236 0.447535 -0.157986
C80   C     C_R   0.038602 0.797235 0.552463 -0.157992
C81   C     C_R   1.000000 0.274228 0.500000 -0.065770
C82   C     C_R   0.500000 0.774227 0.500000 -0.065766
C83   C     C_R   0.461272 0.343109 0.447981 -0.117086
C84   C     C_R   0.538728 0.343109 0.552019 -0.117087
C85   C     C_R   0.961272 0.843109 0.447980 -0.117105
C86   C     C_R   0.038728 0.843109 0.552018 -0.117088
C87   C     C_R   0.500000 0.366438 0.500000 -0.023446
C88   C     C_R   0.000000 0.866438 0.499999 -0.023464
C89   C     C_R   0.500000 0.274077 0.500000 0.085060
C90   C     C_R   0.000000 0.774076 0.499999 0.085060
C91   C     C_R   0.015514 0.702578 0.566396 -0.149497
C92   C     C_R   0.984487 0.702579 0.433603 -0.149500
C93   C     C_R   0.515515 0.202578 0.566397 -0.149502
C94   C     C_R   0.484486 0.202579 0.433603 -0.149496
C95   C     C_R   0.015138 0.656698 0.566259 -0.167211
C96   C     C_R   0.984863 0.656698 0.433740 -0.167212
C97   C     C_R   0.515138 0.156697 0.566260 -0.167221
C98   C     C_R   0.484862 0.156698 0.433740 -0.167202
C99   C     C_R   0.000000 0.633434 0.500000 -0.034307
C100  C     C_R   0.500000 0.133434 0.500000 -0.034307
C101  C     C_R   0.000000 0.725741 0.499999 0.095030
C102  C     C_R   0.500000 0.225740 0.500000 0.095031
C103  C     C_R   0.524413 0.702819 0.567895 -0.136683
C104  C     C_R   0.475587 0.702820 0.432105 -0.136683
C105  C     C_R   0.024411 0.202819 0.567895 -0.136684
C106  C     C_R   0.975588 0.202820 0.432105 -0.136682
C107  C     C_R   0.524050 0.656728 0.569095 -0.014934
C108  C     C_R   0.475949 0.656728 0.430906 -0.014934
C109  C     C_R   0.024049 0.156728 0.569094 -0.014931
C110  C     C_R   0.975950 0.156728 0.430905 -0.014938
C111  C     C_R   0.500000 0.633363 0.500000 -0.171928
C112  C     C_R   1.000000 0.133363 0.500000 -0.171927
C113  C     C_R   0.020250 0.297549 0.471623 0.019627
C114  C     C_R   0.979750 0.297549 0.528378 0.019627
C115  C     C_R   0.520245 0.797549 0.471614 0.019624
C116  C     C_R   0.479755 0.797549 0.528387 0.019625
C117  C     C_R   0.500000 0.725708 0.500000 -0.058250
C118  C     C_R   1.000000 0.225708 0.500000 -0.058252
C119  C     C_R   0.000000 0.366683 0.500000 -0.123922
C120  C     C_R   0.500000 0.866683 0.500000 -0.123927
C121  C     C_R   0.019232 0.343657 0.470842 -0.146830
C122  C     C_R   0.980768 0.343657 0.529158 -0.146832
C123  C     C_R   0.519226 0.843657 0.470833 -0.146832
C124  C     C_R   0.480774 0.843657 0.529168 -0.146831
C125  C     C_2   0.525051 0.468265 0.742495 0.477662
C126  C     C_2   0.474949 0.468265 0.257505 0.477661
C127  C     C_2   0.025051 0.968265 0.742495 0.477662
C128  C     C_2   0.974942 0.968269 0.257498 0.477661
C129  C     C_2   0.498409 0.494266 0.682177 -0.440403
C130  C     C_2   0.501591 0.494266 0.317823 -0.440402
C131  C     C_2   0.998409 0.994266 0.682177 -0.440403
C132  C     C_2   0.001591 0.994263 0.317823 -0.440417
C133  C     C_2   0.518730 0.466139 0.802888 -0.201564
C134  C     C_2   0.481270 0.466139 0.197113 -0.201563
C135  C     C_2   0.018730 0.966139 0.802888 -0.201565
C136  C     C_2   0.981264 0.966141 0.197106 -0.201566
Cu1   Cu    Cu3+1 0.500000 0.544050 0.000000 1.022057
Cu2   Cu    Cu3+1 0.000000 0.044050 0.000000 1.022057
Cu3   Cu    Cu3+1 0.500000 0.455950 0.000000 0.989072
Cu4   Cu    Cu3+1 0.000000 0.955950 0.000000 0.989070
Cu5   Cu    Cu3+1 0.544050 0.500000 0.544060 1.056339
Cu6   Cu    Cu3+1 0.455950 0.500000 0.455940 1.056337
Cu7   Cu    Cu3+1 0.044050 1.000000 0.544060 1.056331
Cu8   Cu    Cu3+1 0.955950 0.000000 0.455940 1.056352
Cu9   Cu    Cu3+1 0.000010 0.500010 0.438990 0.985407
Cu10  Cu    Cu3+1 0.999990 0.500010 0.561010 0.985409
Cu11  Cu    Cu3+1 0.500010 0.000010 0.438990 0.985412
Cu12  Cu    Cu3+1 0.499990 0.000010 0.561010 0.985405
H1    H     H_    0.139958 0.490171 0.541999 0.162630
H2    H     H_    0.860042 0.490151 0.457998 0.162625
H3    H     H_    0.639958 0.990153 0.542002 0.162624
H4    H     H_    0.360041 0.990192 0.458005 0.162632
H5    H     H_    0.139711 0.508377 0.737438 0.165104
H6    H     H_    0.860289 0.508396 0.262565 0.165100
H7    H     H_    0.639711 0.008393 0.737436 0.165103
H8    H     H_    0.360288 0.008355 0.262557 0.165105
H9    H     H_    0.220293 0.508542 0.817454 0.161105
H10   H     H_    0.779706 0.508561 0.182549 0.161106
H11   H     H_    0.720293 0.008559 0.817451 0.161122
H12   H     H_    0.279706 0.008520 0.182541 0.161092
H13   H     H_    0.431258 0.279776 0.406915 0.146775
H14   H     H_    0.568743 0.279776 0.593085 0.146773
H15   H     H_    0.931258 0.779776 0.406913 0.146777
H16   H     H_    0.068743 0.779776 0.593085 0.146774
H17   H     H_    0.430977 0.360274 0.407202 0.184404
H18   H     H_    0.569024 0.360274 0.592798 0.184403
H19   H     H_    0.930977 0.860274 0.407200 0.184412
H20   H     H_    0.069023 0.860274 0.592798 0.184404
H21   H     H_    0.027399 0.720039 0.618038 0.146464
H22   H     H_    0.972601 0.720039 0.381961 0.146463
H23   H     H_    0.527400 0.220038 0.618039 0.146463
H24   H     H_    0.472601 0.220039 0.381961 0.146465
H25   H     H_    0.027132 0.639435 0.618101 0.158961
H26   H     H_    0.972868 0.639435 0.381899 0.158960
H27   H     H_    0.527133 0.139435 0.618101 0.158959
H28   H     H_    0.472868 0.139436 0.381899 0.158964
H29   H     H_    0.034575 0.361876 0.449323 0.192994
H30   H     H_    0.965424 0.361877 0.550677 0.192993
H31   H     H_    0.534567 0.861876 0.449307 0.192997
H32   H     H_    0.465433 0.861876 0.550693 0.192998
H33   H     H_    0.542825 0.721296 0.619969 0.187818
H34   H     H_    0.457175 0.721297 0.380031 0.187818
H35   H     H_    0.042822 0.221296 0.619970 0.187818
H36   H     H_    0.957178 0.221297 0.380031 0.187819
H37   H     H_    0.470956 0.511019 0.676491 0.132256
H38   H     H_    0.529045 0.511019 0.323509 0.132256
H39   H     H_    0.970956 0.011020 0.676491 0.132255
H40   H     H_    0.029050 0.011008 0.323514 0.132266
H41   H     H_    0.526843 0.435723 0.834434 0.220628
H42   H     H_    0.473157 0.435723 0.165567 0.220628
H43   H     H_    0.026843 0.935723 0.834434 0.220628
H44   H     H_    0.973145 0.935727 0.165554 0.220623
H45   H     H_    0.501091 0.532989 0.795242 0.169537
H46   H     H_    0.498909 0.532989 0.204758 0.169537
H47   H     H_    0.001091 0.032989 0.795242 0.169538
H48   H     H_    0.998915 0.032988 0.204765 0.169537
H49   H     H_    0.279218 0.430859 0.765282 0.164959
H50   H     H_    0.720782 0.430858 0.234714 0.164959
H51   H     H_    0.779218 0.930863 0.765247 0.164956
H52   H     H_    0.220783 0.930857 0.234707 0.164961
H53   H     H_    0.359660 0.429922 0.846108 0.172084
H54   H     H_    0.640340 0.429921 0.153888 0.172085
H55   H     H_    0.859660 0.929926 0.846073 0.172080
H56   H     H_    0.140341 0.929921 0.153882 0.172084
H57   H     H_    0.361337 0.570580 0.874392 0.204244
H58   H     H_    0.638662 0.570581 0.125615 0.204244
H59   H     H_    0.861338 0.070577 0.874425 0.204238
H60   H     H_    0.138662 0.070581 0.125616 0.204248
H61   H     H_    0.220612 0.490406 0.622919 0.145290
H62   H     H_    0.779389 0.490386 0.377078 0.145282
H63   H     H_    0.720611 0.990389 0.622922 0.145271
H64   H     H_    0.279388 0.990427 0.377084 0.145299
O1    O     O_R   0.435730 0.537200 0.935720 -0.582414
O2    O     O_R   0.564270 0.537200 0.064280 -0.582414
O3    O     O_R   0.935730 0.037200 0.935720 -0.582412
O4    O     O_R   0.064270 0.037200 0.064280 -0.582415
O5    O     O_R   0.064280 0.500010 0.512760 -0.584650
O6    O     O_R   0.935720 0.500010 0.487240 -0.584647
O7    O     O_R   0.564280 0.000010 0.512760 -0.584647
O8    O     O_R   0.435720 0.000010 0.487240 -0.584651
O9    O     O_R   0.064270 0.500010 0.615800 -0.585694
O10   O     O_R   0.935730 0.500010 0.384200 -0.585693
O11   O     O_R   0.564270 0.000010 0.615800 -0.585694
O12   O     O_R   0.435730 0.000010 0.384200 -0.585692
O13   O     O_R   0.000010 0.564280 0.448470 -0.583348
O14   O     O_R   0.999990 0.564280 0.551530 -0.583345
O15   O     O_R   0.500010 0.064280 0.448470 -0.583343
O16   O     O_R   0.499990 0.064280 0.551530 -0.583349
O17   O     O_R   0.435730 0.462800 0.935730 -0.589463
O18   O     O_R   0.564270 0.462800 0.064270 -0.589463
O19   O     O_R   0.935730 0.962800 0.935730 -0.589462
O20   O     O_R   0.064270 0.962800 0.064270 -0.589464
O21   O     O_R   0.500010 0.537200 0.910980 -0.575168
O22   O     O_R   0.499990 0.537200 0.089020 -0.575168
O23   O     O_R   0.000010 0.037200 0.910980 -0.575167
O24   O     O_R   0.999990 0.037200 0.089020 -0.575167
O25   O     O_R   0.500010 0.462800 0.910980 -0.581707
O26   O     O_R   0.499990 0.462800 0.089020 -0.581706
O27   O     O_R   0.000010 0.962800 0.910980 -0.581708
O28   O     O_R   0.999990 0.962800 0.089020 -0.581705
O29   O     O_R   0.537200 0.435730 0.537210 -0.570958
O30   O     O_R   0.462800 0.435730 0.462790 -0.570958
O31   O     O_R   0.037200 0.935730 0.537210 -0.570960
O32   O     O_R   0.962800 0.935730 0.462790 -0.570952
O33   O     O_R   0.537190 0.500000 0.626220 -0.520614
O34   O     O_R   0.462810 0.500000 0.373780 -0.520614
O35   O     O_R   0.037190 1.000000 0.626220 -0.520613
O36   O     O_R   0.962810 1.000000 0.373780 -0.520596
O37   O     O_R   0.462790 0.500000 0.551820 -0.593761
O38   O     O_R   0.537210 0.500000 0.448180 -0.593760
O39   O     O_R   0.962790 0.000000 0.551820 -0.593760
O40   O     O_R   0.037210 0.000000 0.448180 -0.593767
O41   O     O_R   0.537200 0.564270 0.537200 -0.587646
O42   O     O_R   0.462800 0.564270 0.462800 -0.587647
O43   O     O_R   0.037200 0.064270 0.537200 -0.587644
O44   O     O_R   0.962800 0.064270 0.462800 -0.587644
O45   O     O_R   0.000000 0.435740 0.448480 -0.580071
O46   O     O_R   0.000000 0.435740 0.551520 -0.580074
O47   O     O_R   0.500000 0.935740 0.448480 -0.580076
O48   O     O_R   0.500000 0.935740 0.551520 -0.580073
S1    S     S_3+6 0.564613 0.432374 0.749310 0.018931
O49   O     O_2   0.543483 0.405782 0.678479 -0.331286
O50   O     O_2   0.601846 0.458954 0.760269 -0.253180
O51   O     O_3   0.584701 0.398105 0.822755 -0.537277
H65   H     H_    0.605856 0.379026 0.821833 0.381445
S2    S     S_3+6 0.435387 0.432374 0.250690 0.018931
O52   O     O_2   0.456517 0.405782 0.321521 -0.331287
O53   O     O_2   0.398154 0.458955 0.239731 -0.253179
O54   O     O_3   0.415298 0.398106 0.177245 -0.537276
H66   H     H_    0.394144 0.379027 0.178169 0.381445
S3    S     S_3+6 0.064613 0.932374 0.749310 0.018931
O55   O     O_2   0.043483 0.905782 0.678480 -0.331284
O56   O     O_2   0.101846 0.958954 0.760269 -0.253178
O57   O     O_3   0.084701 0.898105 0.822755 -0.537277
H67   H     H_    0.105854 0.879024 0.821830 0.381444
S4    S     S_3+6 0.935367 0.932392 0.250667 0.018945
O58   O     O_2   0.956484 0.905795 0.321491 -0.331261
O59   O     O_2   0.898141 0.958986 0.239706 -0.253177
O60   O     O_3   0.915272 0.898127 0.177216 -0.537276
H68   H     H_    0.894104 0.879061 0.178122 0.381448
C137  C     C_2   0.043652 0.274366 0.444647 0.379302
H69   H     H_    0.048734 0.239064 0.451220 0.094998
O61   O     O_2   0.057946 0.294564 0.414978 -0.522874
C138  C     C_2   0.956348 0.274366 0.555354 0.379304
H70   H     H_    0.951266 0.239064 0.548781 0.094999
O62   O     O_2   0.942053 0.294564 0.585022 -0.522874
C139  C     C_2   0.543642 0.774366 0.444628 0.379300
H71   H     H_    0.548728 0.739065 0.451207 0.094998
O63   O     O_2   0.557927 0.794563 0.414944 -0.522871
C140  C     C_2   0.456358 0.774366 0.555373 0.379299
H72   H     H_    0.451272 0.739065 0.548794 0.094997
O64   O     O_2   0.442073 0.794564 0.585057 -0.522870
C141  C     C_2   0.547379 0.633794 0.642889 0.398233
H73   H     H_    0.542520 0.598942 0.646161 0.081882
O65   O     O_2   0.572132 0.653810 0.701570 -0.517222
C142  C     C_2   0.452620 0.633795 0.357111 0.398232
H74   H     H_    0.457479 0.598943 0.353839 0.081883
O66   O     O_2   0.427868 0.653811 0.298430 -0.517222
C143  C     C_2   0.047376 0.133794 0.642889 0.398228
H75   H     H_    0.042518 0.098942 0.646160 0.081882
O67   O     O_2   0.072127 0.153810 0.701570 -0.517223
C144  C     C_2   0.952623 0.133795 0.357111 0.398237
H76   H     H_    0.957481 0.098943 0.353839 0.081887
O68   O     O_2   0.927873 0.153811 0.298429 -0.517216
S5    S     S_3+6 0.269977 0.592200 0.784745 0.011877
O69   O     O_2   0.251801 0.595507 0.830224 -0.289320
O70   O     O_2   0.301430 0.629617 0.805326 -0.260918
O71   O     O_3   0.228395 0.595604 0.692908 -0.528786
H77   H     H_    0.211327 0.621861 0.688488 0.381424
S6    S     S_3+6 0.730021 0.592201 0.215264 0.011866
O72   O     O_2   0.748182 0.595518 0.169761 -0.289307
O73   O     O_2   0.698571 0.629616 0.194712 -0.260933
O74   O     O_3   0.771616 0.595595 0.307094 -0.528790
H78   H     H_    0.788674 0.621862 0.311514 0.381427
S7    S     S_3+6 0.769980 0.092198 0.784793 0.011861
O75   O     O_2   0.751850 0.095507 0.830342 -0.289332
O76   O     O_2   0.801425 0.129615 0.805318 -0.260898
O77   O     O_3   0.728363 0.095599 0.692978 -0.528779
H79   H     H_    0.711298 0.121850 0.688593 0.381422
S8    S     S_3+6 0.230024 0.092199 0.215267 0.011878
O78   O     O_2   0.248230 0.095497 0.169833 -0.289290
O79   O     O_2   0.198566 0.129617 0.194643 -0.260958
O80   O     O_3   0.271583 0.095609 0.307116 -0.528801
H80   H     H_    0.288640 0.121881 0.311555 0.381435

loop_
_geom_bond_atom_site_label_1
_geom_bond_atom_site_label_2
_ccdc_geom_bond_type
C71   O9    A    
C129  H37   S    
C76   O16   A    
C104  H34   S    
C79   C85   A    
C132  H40   S    
Cu9   Cu10  S    
C133  H41   S    
C66   O36   A    
C77   C89   A    
C136  H44   S    
C28   S8    S    
C49   H5    S    
C138  H70   S    
C55   C59   A    
C86   C88   A    
Cu3   O25   S    
C3    O3    A    
S3    O55   D    
C96   C99   A    
C10   H50   S    
Cu4   O28   S    
C73   O7    A    
O57   H67   S    
C31   C59   S    
C9    C13   A    
C79   C90   A    
C80   C86   A    
C94   H24   S    
C11   C15   A    
C12   C16   A    
C92   H22   S    
Cu6   O34   S    
C139  O63   D    
C3    C19   S    
C106  C118  A    
Cu2   O23   S    
C103  C117  A    
Cu12  O48   S    
C41   C49   A    
C47   O23   A    
C78   C89   A    
C25   C29   A    
S6    O73   D    
Cu2   O3    S    
C115  C123  A    
Cu9   O45   S    
O80   H80   S    
S8    O80   S    
C28   C32   A    
Cu10  O9    S    
C73   O11   A    
Cu9   O13   S    
C69   C119  S    
C17   C21   A    
C19   C23   A    
Cu1   Cu3   S    
C10   C30   A    
C16   C20   A    
C42   C72   S    
C44   C74   S    
Cu2   Cu4   S    
C36   H64   S    
C64   O38   A    
C70   O47   A    
C2    O2    A    
C105  C118  A    
C4    O20   A    
C6    H46   S    
C104  C117  A    
C23   H59   S    
C103  H33   S    
C45   O21   A    
C15   H55   S    
C76   C100  S    
C72   O6    A    
C108  C111  A    
C95   H25   S    
C52   C56   A    
C49   C53   A    
Cu8   O32   S    
C116  C140  S    
C51   C55   A    
C45   O25   A    
Cu10  O6    S    
C66   O40   A    
C125  C129  D    
C64   O34   A    
C94   C102  A    
Cu4   O19   S    
C74   O8    A    
C34   C58   A    
C126  C130  D    
C103  C107  A    
C16   H56   S    
Cu11  O12   S    
Cu7   Cu8   S    
C131  H39   S    
C43   C73   S    
C97   H27   S    
Cu11  Cu12  S    
Cu12  O16   S    
C62   O31   A    
C5    C133  D    
C51   H7    S    
C46   O22   A    
C82   C115  A    
C62   C88   S    
S1    O49   D    
C39   H3    S    
C92   C96   A    
C22   H58   S    
C68   C112  S    
C34   H62   S    
C70   C120  S    
O51   H65   S    
S5    O70   D    
C81   C114  A    
Cu5   O33   S    
C41   C71   S    
C44   C52   A    
C72   O10   A    
Cu6   O37   S    
C27   S7    S    
C91   C101  A    
C9    H49   S    
C127  C131  D    
C119  C121  A    
C63   O33   A    
C144  O68   D    
C91   H21   S    
C85   H19   S    
C109  C143  S    
C75   O13   A    
C86   H20   S    
C123  H31   S    
C10   C14   A    
C3    O19   A    
Cu11  O15   S    
C121  H29   S    
Cu6   O30   S    
S8    O79   D    
C141  H73   S    
C55   H11   S    
C75   C99   S    
C12   H52   S    
Cu3   O17   S    
C126  C134  S    
S2    O53   D    
C42   C50   A    
C47   O27   A    
Cu8   O39   S    
C64   C130  S    
C26   C30   A    
Cu7   O31   S    
Cu10  O46   S    
C93   C97   A    
C97   C100  A    
C69   O45   A    
C85   C88   A    
C21   C25   A    
S7    O77   S    
C18   C22   A    
C107  C111  A    
C24   C28   A    
S2    O54   S    
S1    O51   S    
C137  O61   D    
C1    C17   S    
Cu6   O42   S    
C13   C17   A    
C65   O39   A    
C68   O43   A    
C14   H54   S    
C142  O66   D    
Cu11  O47   S    
C110  C112  A    
C2    O18   A    
C91   C95   A    
C40   C44   A    
C113  C121  A    
S4    O58   D    
C125  S1    S    
C126  S2    S    
Cu1   O22   S    
C76   O15   A    
S3    O57   S    
C83   C87   A    
Cu1   O2    S    
C8    C136  D    
Cu2   O24   S    
C15   C19   A    
Cu8   O44   S    
Cu2   O4    S    
C50   C54   A    
C96   H26   S    
C4    O4    A    
Cu12  O11   S    
C127  C135  S    
C128  C136  S    
C54   C58   A    
C67   O42   A    
C94   C98   A    
C95   C99   A    
C74   O12   A    
C35   C59   A    
C140  H72   S    
C80   H16   S    
C105  C109  A    
O60   H68   S    
C120  C123  A    
C70   O48   A    
S7    O75   D    
O54   H66   S    
Cu3   O26   S    
C61   O29   A    
Cu5   O38   S    
C48   O28   A    
C25   S5    S    
C77   H13   S    
Cu7   O40   S    
C53   C57   A    
Cu9   O10   S    
Cu10  O14   S    
C27   C31   A    
C81   C118  S    
C24   H60   S    
Cu4   O27   S    
Cu5   O29   S    
C56   C60   A    
C7    C47   S    
C35   C39   A    
C143  H75   S    
C8    C48   S    
C98   H28   S    
C139  H71   S    
S4    O60   S    
C105  H35   S    
Cu12  O8    S    
C106  H36   S    
C92   C101  A    
C67   C111  S    
C63   O37   A    
C29   C57   S    
Cu4   O20   S    
C98   C100  A    
C1    O1    A    
C32   C60   S    
C7    H47   S    
C104  C108  A    
C5    H45   S    
C83   H17   S    
C61   O30   A    
C122  H30   S    
S6    O72   D    
C93   H23   S    
C116  C124  A    
C37   H1    S    
C93   C102  A    
C107  C141  S    
C62   O32   A    
C71   O5    A    
Cu5   O41   S    
C82   C116  A    
C43   C51   A    
O74   H78   S    
C5    C45   S    
C26   S6    S    
C138  O62   D    
Cu7   O35   S    
C8    H48   S    
C63   C129  S    
C11   H51   S    
Cu9   O5    S    
C141  O65   D    
S5    O69   D    
C22   C26   A    
C81   C113  A    
C82   C117  S    
C113  C137  S    
S6    O74   S    
C89   C102  S    
C2    C18   S    
C14   C18   A    
C84   C87   A    
C108  C142  S    
C40   H4    S    
C38   C42   A    
C77   C83   A    
C21   H57   S    
C35   H63   S    
C128  S4    S    
C33   H61   S    
C20   C24   A    
C23   C27   A    
C61   C87   S    
C9    C29   A    
C65   O35   A    
C11   C31   A    
C12   C32   A    
C37   C41   A    
C127  S3    S    
C128  C132  D    
C65   C131  S    
C66   C132  S    
C67   O41   A    
S7    O76   D    
C36   C40   A    
C84   H18   S    
C109  C112  A    
S1    O50   D    
C39   C43   A    
C137  H69   S    
C90   C101  S    
C7    C135  D    
O77   H79   S    
C78   C84   A    
C54   H10   S    
C68   O44   A    
S5    O71   S    
C135  H43   S    
C143  O67   D    
C48   O24   A    
C114  C138  S    
S4    O59   D    
C78   H14   S    
C110  C144  S    
Cu1   O21   S    
Cu8   O36   S    
O71   H77   S    
C33   C37   A    
C106  C110  A    
C119  C122  A    
C125  C133  S    
S3    O56   D    
C144  H76   S    
C142  H74   S    
C33   C57   A    
C6    C46   S    
Cu1   O1    S    
C34   C38   A    
C115  C139  S    
C75   O14   A    
C79   H15   S    
C36   C60   A    
C130  H38   S    
C4    C20   S    
C52   H8    S    
C53   H9    S    
S8    O78   D    
C134  H42   S    
C56   H12   S    
Cu5   Cu6   S    
C50   H6    S    
C30   C58   S    
C13   H53   S    
Cu3   O18   S    
C140  O64   D    
C46   O26   A    
C80   C90   A    
C124  H32   S    
Cu11  O7    S    
S2    O52   D    
C114  C122  A    
C1    O17   A    
C6    C134  D    
Cu7   O43   S    
C38   H2    S    
C120  C124  A    
C69   O46   A    
