data_mof_unit_25013.cif
_audit_creation_date              2012-12-10T18:16:23-0500
_audit_creation_method            fapswitch 2.2
_symmetry_space_group_name_H-M    P1
_symmetry_Int_Tables_number       1
_space_group_crystal_system       triclinic
_cell_length_a                    12.598602
_cell_length_b                    13.268429
_cell_length_c                    27.758343
_cell_angle_alpha                 91.236984
_cell_angle_beta                  102.683906
_cell_angle_gamma                 83.100776
_cell_volume                      4494.11351457

loop_
_atom_site_label
_atom_site_type_symbol
_atom_type_description
_atom_site_fract_x
_atom_site_fract_y
_atom_site_fract_z
_atom_type_partial_charge
C1    C     C_R   0.438914 0.690998 0.496317 0.931051
C2    C     C_R   0.412946 0.525151 0.715903 -0.201111
C3    C     C_R   0.512303 0.491779 0.747982 0.314659
C4    C     C_R   0.511801 0.487709 0.899086 -0.057018
C5    C     C_R   0.496515 0.580361 0.873546 -0.080764
C6    C     C_R   0.471906 0.671061 0.897363 -0.260386
C7    C     C_R   0.530584 0.396056 0.874003 -0.001960
C8    C     C_R   0.501934 0.504129 0.646684 -0.048007
C9    C     C_R   0.498252 0.497143 0.352897 -0.157262
C10   C     C_R   0.505208 0.575800 0.026768 0.067486
C11   C     C_R   0.499820 0.391347 0.023048 0.008933
C12   C     C_R   0.500056 0.502421 0.593750 0.944775
C13   C     C_R   0.500624 0.482684 0.050050 0.070420
C14   C     C_R   0.526615 0.661273 0.056587 -0.142611
C15   C     C_R   0.526030 0.659896 0.106299 -0.159087
C16   C     C_R   0.508477 0.571591 0.128374 -0.013429
C17   C     C_R   0.498512 0.481249 0.100860 -0.049323
C18   C     C_R   0.487273 0.390211 0.124195 -0.111632
C19   C     C_R   0.478986 0.395561 0.174298 0.506813
C20   C     C_R   0.504321 0.571247 0.178052 0.521994
C21   C     C_R   0.589195 0.504436 0.284764 -0.222387
C22   C     C_R   0.591878 0.514105 0.335199 0.447717
C23   C     C_R   0.560046 0.308890 0.507057 0.864353
C24   C     C_R   0.402209 0.477389 0.319109 -0.277777
C25   C     C_R   0.399388 0.472643 0.268782 -0.076235
C26   C     C_R   0.493054 0.485671 0.251627 0.251172
C27   C     C_R   0.494090 0.579525 0.974912 -0.054997
C28   C     C_R   0.506829 0.486519 0.949408 0.015719
C29   C     C_R   0.513858 0.392111 0.973768 0.083524
C30   C     C_R   0.469227 0.672585 0.947713 0.459888
C31   C     C_R   0.544455 0.303741 0.899106 -0.135967
C32   C     C_R   0.486771 0.301792 0.046349 -0.203444
C33   C     C_R   0.482704 0.299146 0.096252 0.008686
C34   C     C_R   0.499273 0.499734 0.406014 0.874648
C35   C     C_R   0.536043 0.301568 0.948063 -0.215640
C36   C     C_R   0.726149 0.058854 0.550974 -0.181535
C37   C     C_R   0.593152 0.200211 0.515693 -0.162087
C38   C     C_R   0.300924 0.836145 0.460053 -0.021144
C39   C     C_R   0.292707 0.930590 0.437943 -0.289708
C40   C     C_R   0.375372 0.991773 0.452150 -0.107145
C41   C     C_R   0.463481 0.964097 0.492407 0.068893
C42   C     C_R   0.475386 0.868289 0.514640 0.041502
C43   C     C_R   0.541080 0.030523 0.510624 -0.034798
C44   C     C_R   0.643653 0.994193 0.540081 0.118066
C45   C     C_R   0.500591 0.579915 0.823570 0.539399
C46   C     C_R   0.654921 0.900000 0.563292 -0.315365
C47   C     C_R   0.564888 0.844021 0.555853 -0.021487
C48   C     C_R   0.511234 0.134641 0.507193 0.377208
C49   C     C_R   0.702167 0.160874 0.536092 -0.273349
C50   C     C_R   0.399839 0.799838 0.493934 -0.059842
C51   C     C_R   0.081823 0.350289 0.429365 0.408314
C52   C     C_R   0.801735 0.629416 0.558684 0.010336
C53   C     C_R   0.907056 0.657350 0.571019 -0.255426
C54   C     C_R   0.988002 0.607574 0.549225 -0.162651
C55   C     C_R   0.963641 0.528719 0.515073 0.043764
C56   C     C_R   0.533475 0.399026 0.823926 0.500682
C57   C     C_R   0.854468 0.503491 0.503840 0.207396
C58   C     C_R   0.041992 0.475437 0.490939 -0.086657
C59   C     C_R   0.008163 0.400770 0.455338 -0.002678
C60   C     C_R   0.900592 0.377367 0.445581 -0.201739
C61   C     C_R   0.825842 0.426992 0.469949 -0.150142
C62   C     C_R   0.152609 0.493400 0.500418 -0.047525
C63   C     C_R   0.188322 0.377278 0.437506 -0.012749
C64   C     C_R   0.606441 0.464509 0.729776 -0.091798
C65   C     C_R   0.601195 0.470168 0.679401 -0.272311
C66   C     C_R   0.406749 0.534466 0.665400 -0.009614
H1    H     H_    0.683574 0.439148 0.754707 0.148215
H2    H     H_    0.561067 0.232395 0.880886 0.188552
H3    H     H_    0.479416 0.231704 0.026170 0.172126
H4    H     H_    0.328713 0.466206 0.331446 0.214282
H5    H     H_    0.324418 0.459099 0.243083 0.173130
H6    H     H_    0.550650 0.227625 0.965238 0.138549
H7    H     H_    0.766194 0.210301 0.544379 0.181370
H8    H     H_    0.727464 0.877094 0.591690 0.137189
H9    H     H_    0.807179 0.031610 0.572063 0.155043
H10   H     H_    0.341210 0.547552 0.730969 0.136474
H11   H     H_    0.368916 0.061808 0.431838 0.181762
H12   H     H_    0.222478 0.956757 0.409089 0.150318
H13   H     H_    0.872887 0.320494 0.418667 0.198308
H14   H     H_    0.185493 0.546217 0.527836 0.207654
H15   H     H_    0.739244 0.667147 0.575679 0.120388
H16   H     H_    0.450205 0.740465 0.875971 0.188601
H17   H     H_    0.067937 0.632953 0.559454 0.184417
H18   H     H_    0.925795 0.717606 0.597310 0.156295
H19   H     H_    0.745336 0.404844 0.460740 0.218303
H20   H     H_    0.661672 0.513126 0.271011 0.154404
H21   H     H_    0.540452 0.728406 0.127458 0.195568
H22   H     H_    0.549054 0.728840 0.042573 0.181044
H23   H     H_    0.674719 0.446612 0.665900 0.166512
N1    N     N_R   0.517671 0.490085 0.799849 -0.352067
N2    N     N_R   0.490380 0.484222 0.199886 -0.334410
N3    N     N_R   0.222180 0.444690 0.474320 -0.169626
N4    N     N_R   0.776980 0.554780 0.525420 -0.137327
O1    O     O_R   0.366730 0.627160 0.487740 -0.551412
O2    O     O_2   0.513158 0.657663 0.204516 -0.572221
O3    O     O_2   0.549759 0.311816 0.799216 -0.564979
O4    O     O_2   0.458740 0.314178 0.197513 -0.575067
O5    O     O_R   0.544830 0.662520 0.504140 -0.640022
O6    O     O_R   0.410970 0.482310 0.563040 -0.603915
O7    O     O_R   0.589070 0.517670 0.579450 -0.634244
O8    O     O_R   0.455170 0.337480 0.495860 -0.598037
O9    O     O_R   0.633270 0.372840 0.512260 -0.653343
O10   O     O_R   0.410930 0.482330 0.420550 -0.659767
O11   O     O_R   0.589030 0.517690 0.436960 -0.582739
O12   O     O_2   0.487451 0.668505 0.798701 -0.552203
Zn1   Zn    Zn3+2 0.381080 0.476390 0.489050 0.984350
Zn2   Zn    Zn3+2 0.618920 0.523610 0.510950 0.941034
C67   C     C_2   0.301113 0.581180 0.635067 0.419142
H24   H     H_    0.225075 0.571247 0.645713 0.027282
O13   O     O_2   0.297884 0.636289 0.600044 -0.507904
C68   C     C_2   0.481577 0.197805 0.117791 0.474057
H25   H     H_    0.529399 0.177273 0.154399 0.119989
O14   O     O_2   0.429820 0.134347 0.093888 -0.574118
O15   O     O_3   0.401270 0.171080 0.502511 -0.632722
C69   C     C_3   0.376150 0.172031 0.549845 0.159080
H26   H     H_    0.415392 0.232740 0.572977 0.148424
H27   H     H_    0.403709 0.097765 0.569375 0.145108
C70   C     C_3   0.252851 0.192754 0.544573 -0.847791
H28   H     H_    0.211967 0.132795 0.521764 0.246815
H29   H     H_    0.232797 0.192818 0.581576 0.218567
H30   H     H_    0.221798 0.267806 0.526998 0.245114
C71   C     C_2   0.205251 0.778673 0.445391 0.439129
H31   H     H_    0.157119 0.783972 0.407760 0.039252
O16   O     O_2   0.174314 0.731390 0.475912 -0.538742
C72   C     C_2   0.559834 0.773778 0.595961 0.428031
H32   H     H_    0.632644 0.750459 0.624168 0.044273
O17   O     O_2   0.473040 0.746916 0.600090 -0.529756
C73   C     C_2   0.261748 0.332256 0.405611 0.464040
H33   H     H_    0.348654 0.317112 0.418971 0.128698
O18   O     O_2   0.224768 0.310703 0.362694 -0.549630
O19   O     O_3   0.048037 0.277909 0.394422 -0.561368
C74   C     C_3   0.070380 0.181515 0.417531 0.093206
H34   H     H_    0.036256 0.181100 0.451348 0.122246
H35   H     H_    0.160293 0.157927 0.427601 0.166692
C75   C     C_3   0.017377 0.104098 0.381873 -0.782899
H36   H     H_    0.054090 0.097806 0.348873 0.271086
H37   H     H_    0.030303 0.028755 0.400255 0.194234
H38   H     H_    0.927898 0.127706 0.370054 0.256812
O20   O     O_3   0.687400 0.535075 0.367318 -0.598519
C76   C     C_3   0.706252 0.635677 0.359301 0.117700
H39   H     H_    0.630804 0.690293 0.357433 0.140026
H40   H     H_    0.735749 0.640687 0.324586 0.152800
C77   C     C_3   0.794133 0.667439 0.401808 -0.756023
H41   H     H_    0.869992 0.613296 0.405812 0.265360
H42   H     H_    0.813279 0.744494 0.394595 0.202712
H43   H     H_    0.764411 0.669238 0.436644 0.259030
O21   O     O_3   0.423063 0.759183 0.968411 -0.603725
C78   C     C_3   0.465011 0.848138 0.957224 0.029182
H44   H     H_    0.421143 0.877388 0.920086 0.167173
H45   H     H_    0.554881 0.834586 0.958954 0.136858
C79   C     C_3   0.444951 0.930503 0.994348 -0.716086
H46   H     H_    0.489369 0.906541 0.032200 0.248057
H47   H     H_    0.474546 0.001528 0.984904 0.202727
H48   H     H_    0.355960 0.945948 0.993552 0.275260

loop_
_geom_bond_atom_site_label_1
_geom_bond_atom_site_label_2
_ccdc_geom_bond_type
C10   C27   A    
C58   C62   A    
C75   H38   S    
C21   C26   A    
C60   H13   S    
C8    C66   A    
C6    H16   S    
C77   H43   S    
C41   C42   A    
O21   C78   S    
C78   C79   S    
C73   H33   S    
O15   C69   S    
C19   O4    S    
C24   H4    S    
C75   H36   S    
C53   C54   A    
C65   H23   S    
C3    N1    S    
C62   H14   S    
C28   C29   A    
C78   H45   S    
C5    C6    A    
C9    C22   A    
C23   O9    A    
C16   C17   A    
C15   C16   A    
C77   H42   S    
C67   H24   S    
C75   H37   S    
C18   C19   A    
C79   H48   S    
C77   H41   S    
C70   H28   S    
C12   O6    A    
C46   C47   A    
C68   H25   S    
C45   O12   S    
C1    O1    A    
C69   H27   S    
C62   N3    A    
C63   N3    A    
C79   H46   S    
C76   C77   S    
C25   H5    S    
C43   C48   A    
C63   C73   S    
C8    C12   S    
C56   N1    A    
C59   C60   A    
C57   N4    A    
C21   C22   A    
C27   C30   A    
C41   C43   A    
C31   H2    S    
C7    C56   A    
C4    C7    A    
C54   H17   S    
C4    C28   A    
C44   C46   A    
C47   C72   S    
C70   H29   S    
C38   C39   A    
C20   N2    A    
C7    C31   A    
C38   C50   A    
C64   H1    S    
C30   O21   S    
C51   C63   A    
C76   H39   S    
C10   C14   A    
C39   C40   A    
C51   O19   S    
C74   H34   S    
C26   N2    S    
C23   C37   S    
C5    C45   A    
C22   O20   S    
C34   O11   A    
O5    Zn2   S    
C60   C61   A    
C70   H30   S    
C43   C44   A    
C39   H12   S    
C36   H9    S    
C37   C49   A    
C16   C20   A    
C69   C70   S    
C17   C18   A    
O9    Zn2   S    
C68   O14   D    
C24   C25   A    
C37   C48   A    
C45   N1    A    
C38   C71   S    
C61   H19   S    
C42   C50   A    
C33   C68   S    
N3    Zn1   S    
C40   C41   A    
C6    C30   A    
C20   O2    S    
C35   H6    S    
C53   H18   S    
C72   H32   S    
C31   C35   A    
C36   C44   A    
C51   C59   A    
C71   O16   D    
O19   C74   S    
C46   H8    S    
C2    H10   S    
C52   C53   A    
C48   O15   S    
C1    C50   S    
O8    Zn1   S    
C56   O3    S    
O6    Zn1   S    
C54   C55   A    
O1    Zn1   S    
O7    Zn2   S    
C14   C15   A    
C66   C67   S    
C4    C5    A    
C2    C66   A    
C10   C13   A    
C73   O18   D    
C1    O5    A    
C21   H20   S    
O20   C76   S    
C9    C24   A    
C57   C61   A    
C32   H3    S    
C76   H40   S    
C29   C35   A    
C34   O10   A    
C13   C17   A    
C32   C33   A    
C52   N4    A    
C55   C57   A    
C2    C3    A    
C25   C26   A    
C14   H22   S    
C64   C65   A    
C11   C13   A    
C15   H21   S    
C23   O8    A    
C74   C75   S    
C67   O13   D    
C9    C34   S    
O10   Zn1   S    
C49   H7    S    
C42   C47   A    
C79   H47   S    
C3    C64   A    
C52   H15   S    
C18   C33   A    
C58   C59   A    
C12   O7    A    
C19   N2    A    
C8    C65   A    
C11   C29   A    
C74   H35   S    
C55   C58   A    
C27   C28   A    
C72   O17   D    
C40   H11   S    
C71   H31   S    
C78   H44   S    
O11   Zn2   S    
N4    Zn2   S    
C36   C49   A    
C69   H26   S    
C11   C32   A    
