data_mof_unit_9320.cif
_audit_creation_date              2012-12-10T16:48:40-0500
_audit_creation_method            fapswitch 2.2
_symmetry_space_group_name_H-M    P1
_symmetry_Int_Tables_number       1
_space_group_crystal_system       triclinic
_cell_length_a                    7.802544
_cell_length_b                    8.68468
_cell_length_c                    10.848328
_cell_angle_alpha                 90.479021
_cell_angle_beta                  99.110157
_cell_angle_gamma                 92.984984
_cell_volume                      724.750420954

loop_
_atom_site_label
_atom_site_type_symbol
_atom_type_description
_atom_site_fract_x
_atom_site_fract_y
_atom_site_fract_z
_atom_type_partial_charge
C1    C     C_R   0.546847 0.794526 0.504348 0.864307
C2    C     C_2   0.444721 0.046005 0.537283 0.203933
C3    C     C_3   0.110698 0.627440 0.119091 0.141450
C4    C     C_3   0.973324 0.703680 0.028529 -0.855903
C5    C     C_3   0.755361 0.237865 0.851325 0.166760
C6    C     C_3   0.843948 0.115925 0.934513 -0.894027
C7    C     C_3   0.839985 0.990139 0.443946 -0.154354
C8    C     C_3   0.264694 0.028318 0.683240 -0.304809
C9    C     C_3   0.884789 0.326758 0.287332 -0.220452
C10   C     C_3   0.106899 0.667249 0.714306 -0.121518
C11   C     C_R   0.460138 0.206858 0.513068 0.840253
C12   C     C_R   0.572331 0.488986 0.735208 0.732447
C13   C     C_R   0.427247 0.511204 0.264324 0.769357
C14   C     C_2   0.611037 0.462996 0.868641 0.269590
C15   C     C_2   0.387754 0.536117 0.130065 0.265756
C16   C     C_2   0.505037 0.526076 0.937109 -0.194558
C17   C     C_2   0.499256 0.478150 0.063239 -0.206985
C18   C     C_2   0.578729 0.958052 0.521741 0.166990
H1    H     H_    0.588905 0.393481 0.103088 0.168470
H2    H     H_    0.766393 0.085050 0.009080 0.250563
H3    H     H_    0.855181 0.011168 0.877539 0.224941
H4    H     H_    0.976104 0.159915 0.978067 0.252560
H5    H     H_    0.755051 0.988215 0.351058 0.089039
H6    H     H_    0.909551 0.882361 0.458673 0.232365
H7    H     H_    0.944056 0.081171 0.444221 0.239622
H8    H     H_    0.279764 0.154737 0.701460 0.168457
H9    H     H_    0.358378 0.969662 0.753078 0.133138
H10   H     H_    0.130836 0.993125 0.697492 0.213862
H11   H     H_    0.856898 0.435619 0.237219 0.165993
H12   H     H_    0.411337 0.606756 0.895847 0.173829
H13   H     H_    0.764681 0.265442 0.307409 0.186221
H14   H     H_    0.943220 0.250726 0.224526 0.144755
H15   H     H_    0.234639 0.718800 0.700711 0.196521
H16   H     H_    0.118653 0.556122 0.764502 0.153207
H17   H     H_    0.050149 0.749298 0.773026 0.133301
H18   H     H_    0.117556 0.687242 0.210837 0.176951
H19   H     H_    0.068400 0.503660 0.124253 0.163154
H20   H     H_    0.850754 0.706018 0.068309 0.226268
H21   H     H_    0.018517 0.823637 0.011148 0.252588
H22   H     H_    0.946808 0.637138 0.939444 0.271547
H23   H     H_    0.836372 0.264549 0.777920 0.193563
H24   H     H_    0.625169 0.187810 0.807527 0.106837
N1    N     N_2   0.940600 0.458860 0.467170 0.195476
N2    N     N_2   0.059400 0.541140 0.532830 0.187792
O1    O     O_R   0.391630 0.738350 0.508060 -0.585584
O2    O     O_3   0.743126 0.371588 0.924051 -0.637806
O3    O     O_3   0.749846 0.020676 0.543972 -0.625555
O4    O     O_3   0.284698 0.985594 0.560315 -0.598294
O5    O     O_3   0.004768 0.354947 0.396354 -0.530896
O6    O     O_3   0.995836 0.648698 0.600392 -0.528339
O7    O     O_R   0.608370 0.261650 0.491940 -0.605422
O8    O     O_R   0.674540 0.711990 0.487010 -0.579697
O9    O     O_R   0.325460 0.288010 0.512990 -0.555226
O10   O     O_R   0.411370 0.508250 0.688780 -0.681557
O11   O     O_R   0.588630 0.491750 0.311220 -0.664703
O12   O     O_R   0.694270 0.481880 0.667740 -0.583916
O13   O     O_R   0.305730 0.518120 0.332260 -0.600387
O14   O     O_3   0.272717 0.644540 0.077184 -0.635606
Zn1   Zn    Zn3+2 0.311100 0.517600 0.514050 1.024150
Zn2   Zn    Zn3+2 0.688900 0.482400 0.485950 1.019580

loop_
_geom_bond_atom_site_label_1
_geom_bond_atom_site_label_2
_ccdc_geom_bond_type
C5    H24   S    
C8    O4    S    
C10   H17   S    
C2    C18   D    
C6    H2    S    
C5    O2    S    
C11   O9    A    
C4    H21   S    
C9    H11   S    
N1    N2    D    
C2    O4    S    
C18   O3    S    
C6    H4    S    
O9    Zn1   S    
C10   H16   S    
O11   Zn2   S    
O12   Zn2   S    
C5    C6    S    
C1    O1    A    
C1    C18   S    
C12   O12   A    
N1    Zn2   S    
C7    H5    S    
C2    C11   S    
C3    H18   S    
C1    O8    A    
O1    Zn1   S    
C12   C14   S    
C10   H15   S    
O10   Zn1   S    
C13   C15   S    
C11   O7    A    
C8    H8    S    
C8    H10   S    
C15   O14   S    
C14   C16   D    
O13   Zn1   S    
C13   O13   A    
C9    H13   S    
N2    Zn1   S    
C16   H12   S    
C7    H6    S    
C10   O6    S    
C3    O14   S    
C4    H22   S    
C9    O5    S    
C3    H19   S    
C14   O2    S    
N2    O6    S    
C15   C17   D    
C8    H9    S    
C5    H23   S    
N1    O5    S    
O7    Zn2   S    
O8    Zn2   S    
C9    H14   S    
C17   H1    S    
C4    H20   S    
C6    H3    S    
C12   O10   A    
C3    C4    S    
C7    O3    S    
C16   C17   S    
C13   O11   A    
C7    H7    S    
