data_mof_unit_52694.cif
_audit_creation_date              2012-12-10T18:53:00-0500
_audit_creation_method            fapswitch 2.2
_symmetry_space_group_name_H-M    P1
_symmetry_Int_Tables_number       1
_space_group_crystal_system       triclinic
_cell_length_a                    9.985899
_cell_length_b                    10.580422
_cell_length_c                    16.687907
_cell_angle_alpha                 90.391242
_cell_angle_beta                  84.00545
_cell_angle_gamma                 92.045905
_cell_volume                      1752.39366556

loop_
_atom_site_label
_atom_site_type_symbol
_atom_type_description
_atom_site_fract_x
_atom_site_fract_y
_atom_site_fract_z
_atom_type_partial_charge
C1    C     C_R   0.501776 0.739261 0.501277 0.889106
C2    C     C_R   0.498704 0.260828 0.496778 0.895669
C3    C     C_R   0.571773 0.933947 0.435563 -0.249682
C4    C     C_R   0.430056 0.065897 0.561168 -0.244990
C5    C     C_R   0.567576 0.063906 0.430591 0.200764
C6    C     C_R   0.433895 0.936315 0.566261 0.202899
C7    C     C_R   0.496160 0.128004 0.494528 -0.071185
C8    C     C_R   0.504924 0.872005 0.502384 -0.065978
C9    C     C_R   0.927503 0.397194 0.474462 -0.110490
C10   C     C_R   0.072206 0.601690 0.527293 -0.147179
C11   C     C_R   0.070284 0.396587 0.473414 0.240659
C12   C     C_R   0.929638 0.602755 0.527629 0.233553
C13   C     C_R   0.479178 0.496696 0.653667 0.859917
C14   C     C_R   0.520731 0.504252 0.345836 0.848434
C15   C     C_R   0.463046 0.470293 0.740902 -0.113114
C16   C     C_R   0.539263 0.494011 0.256398 -0.128733
C17   C     C_R   0.564954 0.512471 0.788627 0.184115
C18   C     C_R   0.430373 0.498148 0.209607 0.173178
C19   C     C_R   0.570737 0.459064 0.864152 -0.143673
C20   C     C_R   0.439738 0.438261 0.134622 -0.146254
C21   C     C_R   0.475862 0.365386 0.894089 0.133115
C22   C     C_R   0.560843 0.384366 0.102620 0.135615
C23   C     C_R   0.367959 0.333211 0.850738 -0.230142
C24   C     C_R   0.675924 0.405154 0.142295 -0.237372
C25   C     C_R   0.357951 0.386254 0.775301 -0.055676
C26   C     C_R   0.666920 0.466706 0.216702 -0.032082
C27   C     C_2   0.472721 0.318335 0.976961 -0.218632
C28   C     C_2   0.578258 0.337235 0.019211 -0.215138
H1    H     H_    0.679079 0.345526 0.987742 0.148891
H2    H     H_    0.374430 0.292658 0.007855 0.146799
H3    H     H_    0.288901 0.268381 0.876887 0.140670
H4    H     H_    0.773855 0.381426 0.112835 0.134765
H5    H     H_    0.355239 0.442727 0.099289 0.133982
H6    H     H_    0.648047 0.494228 0.900212 0.135306
H7    H     H_    0.624052 0.880356 0.386960 0.137855
H8    H     H_    0.378895 0.119466 0.609657 0.150358
H9    H     H_    0.873036 0.315551 0.453392 0.144948
H10   H     H_    0.126653 0.682988 0.548801 0.149003
N1    N     N_R   0.142790 0.500030 0.500020 -0.091946
N2    N     N_R   0.857210 0.499970 0.499980 -0.088751
O1    O     O_R   0.385380 0.683250 0.500010 -0.618764
O2    O     O_R   0.614620 0.316750 0.499990 -0.620101
O3    O     O_R   0.614710 0.683220 0.500000 -0.623213
O4    O     O_R   0.385290 0.316780 0.500000 -0.616396
O5    O     O_R   0.371780 0.500040 0.615800 -0.605109
O6    O     O_R   0.628220 0.499960 0.384200 -0.591435
O7    O     O_R   0.601110 0.500010 0.615800 -0.604577
O8    O     O_R   0.398890 0.499990 0.384200 -0.618148
Zn1   Zn    Zn3+2 0.346870 0.500020 0.500000 0.935556
Zn2   Zn    Zn3+2 0.653130 0.499980 0.500000 0.942654
C29   C     C_3   0.666198 0.616791 0.761806 -0.924599
H11   H     H_    0.710405 0.661850 0.813794 0.233914
H12   H     H_    0.749382 0.577474 0.721326 0.252654
H13   H     H_    0.617291 0.692007 0.730474 0.229412
C30   C     C_3   0.316904 0.584934 0.231335 -0.921471
H14   H     H_    0.243668 0.583745 0.185570 0.242004
H15   H     H_    0.263266 0.556811 0.289053 0.263707
H16   H     H_    0.357732 0.683263 0.236748 0.238333
C31   C     C_R   0.790552 0.520134 0.246262 0.173362
C32   C     C_R   0.798123 0.649272 0.267024 -0.119882
C33   C     C_R   0.906290 0.697740 0.305344 -0.129922
C34   C     C_R   0.008359 0.618389 0.321505 -0.099895
C35   C     C_R   0.004448 0.491385 0.296899 -0.155910
C36   C     C_R   0.895779 0.442072 0.259642 -0.161867
H17   H     H_    0.717479 0.710933 0.256468 0.103454
H18   H     H_    0.909685 0.795969 0.323831 0.121004
H19   H     H_    0.089620 0.655811 0.353665 0.137079
H20   H     H_    0.083218 0.429048 0.308614 0.146480
H21   H     H_    0.891142 0.342473 0.244300 0.121985
C37   C     C_R   0.234243 0.352527 0.736702 0.160011
C38   C     C_R   0.142576 0.445789 0.723087 -0.090749
C39   C     C_R   0.022150 0.412565 0.691231 -0.135828
C40   C     C_R   0.991531 0.286329 0.673345 -0.102295
C41   C     C_R   0.080311 0.192573 0.688822 -0.148219
C42   C     C_R   0.200036 0.225254 0.721689 -0.184744
H22   H     H_    0.164417 0.543966 0.737243 0.118378
H23   H     H_    0.952736 0.484815 0.680283 0.129557
H24   H     H_    0.898515 0.261139 0.648216 0.138105
H25   H     H_    0.055734 0.094462 0.676222 0.134621
H26   H     H_    0.265784 0.151480 0.736124 0.120161
C43   C     C_3   0.635123 0.131716 0.357040 -0.916133
H27   H     H_    0.560646 0.188660 0.329543 0.233681
H28   H     H_    0.718541 0.195134 0.373836 0.245974
H29   H     H_    0.678074 0.064287 0.310776 0.232047
C44   C     C_3   0.366307 0.869165 0.640054 -0.922750
H30   H     H_    0.440274 0.811148 0.667103 0.225761
H31   H     H_    0.325043 0.936833 0.686592 0.229756
H32   H     H_    0.281591 0.807079 0.623675 0.245809
C45   C     C_3   0.138533 0.280494 0.440564 -0.853048
H33   H     H_    0.166667 0.222748 0.490996 0.263123
H34   H     H_    0.070368 0.219790 0.406929 0.189666
H35   H     H_    0.226691 0.306891 0.397246 0.263939
C46   C     C_3   0.862056 0.720036 0.558758 -0.853642
H36   H     H_    0.929452 0.780698 0.592938 0.193820
H37   H     H_    0.836120 0.776917 0.507350 0.254105
H38   H     H_    0.772235 0.695506 0.600833 0.270005

loop_
_geom_bond_atom_site_label_1
_geom_bond_atom_site_label_2
_ccdc_geom_bond_type
O4    Zn1   S    
C30   H14   S    
C4    H8    S    
C46   H36   S    
C1    C8    S    
C40   C41   A    
C2    C7    S    
C17   C29   S    
C43   H27   S    
C14   O6    A    
C44   H30   S    
C31   C36   A    
C34   C35   A    
C6    C44   S    
C34   H19   S    
C28   H1    S    
C19   C21   A    
C24   C26   A    
C38   H22   S    
C15   C25   A    
C33   H18   S    
C1    O3    A    
C2    O4    A    
C40   H24   S    
C37   C38   A    
C3    H7    S    
C45   H34   S    
C42   H26   S    
C18   C20   A    
C21   C27   S    
C31   C32   A    
C46   H37   S    
C22   C28   S    
C27   H2    S    
C4    C7    A    
O1    Zn1   S    
C43   H28   S    
O7    Zn2   S    
C44   H31   S    
C16   C26   A    
C41   C42   A    
C29   H11   S    
C4    C6    A    
C3    C8    A    
C5    C7    A    
C14   O8    A    
C9    N2    A    
C10   N1    A    
C29   H12   S    
C23   H3    S    
C12   N2    A    
C24   H4    S    
C39   H23   S    
C5    C43   S    
C11   C45   S    
O5    Zn1   S    
C9    H9    S    
C30   H15   S    
C36   H21   S    
C45   H35   S    
C11   N1    A    
C9    C11   A    
C10   C12   A    
C18   C30   S    
O2    Zn2   S    
C20   H5    S    
C1    O1    A    
O8    Zn1   S    
N1    Zn1   S    
C20   C22   A    
C32   H17   S    
C46   H38   S    
C41   H25   S    
C13   C15   S    
C14   C16   S    
C12   C46   S    
C37   C42   A    
C43   H29   S    
C13   O7    A    
C26   C31   S    
C44   H32   S    
C15   C17   A    
C35   H20   S    
C39   C40   A    
C3    C5    A    
C19   H6    S    
C6    C8    A    
O3    Zn2   S    
O6    Zn2   S    
C10   H10   S    
C29   H13   S    
C21   C23   A    
C38   C39   A    
C13   O5    A    
C2    O2    A    
N2    Zn2   S    
C17   C19   A    
C22   C24   A    
C23   C25   A    
C33   C34   A    
C35   C36   A    
C16   C18   A    
C30   H16   S    
C27   C28   D    
C32   C33   A    
C25   C37   S    
C45   H33   S    
