data_mof_unit_8394.cif
_audit_creation_date              2012-12-10T18:03:33-0500
_audit_creation_method            fapswitch 2.2
_symmetry_space_group_name_H-M    P1
_symmetry_Int_Tables_number       1
_space_group_crystal_system       triclinic
_cell_length_a                    10.823515
_cell_length_b                    9.687574
_cell_length_c                    19.386864
_cell_angle_alpha                 90.006459
_cell_angle_beta                  95.141328
_cell_angle_gamma                 89.99936
_cell_volume                      2024.60399632

loop_
_atom_site_label
_atom_site_type_symbol
_atom_type_description
_atom_site_fract_x
_atom_site_fract_y
_atom_site_fract_z
_atom_type_partial_charge
C1    C     C_R   0.871588 0.499999 0.500255 -0.009589
C2    C     C_R   0.128413 0.500001 0.499732 -0.009359
C3    C     C_R   0.572619 0.591852 0.967902 -0.178850
C4    C     C_R   0.412020 0.416467 0.031571 -0.178568
C5    C     C_R   0.572695 0.591565 0.039749 -0.178799
C6    C     C_R   0.411916 0.416793 0.959673 -0.177673
C7    C     C_R   0.492757 0.503497 0.072194 0.121653
C8    C     C_R   0.492598 0.504088 0.927301 0.121140
C9    C     C_R   0.262514 0.500000 0.499683 0.757053
C10   C     C_R   0.737491 0.499999 0.500337 0.765215
C11   C     C_R   0.499206 0.500003 0.368390 0.798614
C12   C     C_R   0.501186 0.500012 0.631711 0.805576
C13   C     C_R   0.063916 0.374603 0.499916 -0.186314
C14   C     C_R   0.936087 0.625398 0.500066 -0.187532
C15   C     C_R   0.936108 0.374601 0.500164 -0.187454
C16   C     C_R   0.063895 0.625399 0.499818 -0.186343
C17   C     C_R   0.384409 0.500171 0.736284 0.131470
C18   C     C_R   0.609733 0.501885 0.261911 0.128589
C19   C     C_R   0.382311 0.499083 0.251781 0.133647
C20   C     C_R   0.611654 0.500896 0.749909 0.131614
C21   C     C_R   0.383281 0.501251 0.808415 -0.164246
C22   C     C_R   0.607192 0.502798 0.189651 -0.163336
C23   C     C_R   0.382458 0.499964 0.179682 -0.173635
C24   C     C_R   0.608026 0.502099 0.821832 -0.158665
C25   C     C_R   0.494533 0.502537 0.851363 0.010965
C26   C     C_R   0.494126 0.502025 0.148313 0.013768
C27   C     C_R   0.418961 0.074128 0.454726 0.235499
C28   C     C_R   0.581021 0.925945 0.545195 0.240341
C29   C     C_R   0.581022 0.074079 0.545196 0.240433
C30   C     C_R   0.418963 0.925847 0.454724 0.235384
C31   C     C_R   0.499199 0.500147 0.706939 -0.027119
C32   C     C_R   0.496793 0.500111 0.293109 -0.017862
Cu1   Cu    Cu3+1 0.500000 0.640660 0.500000 0.927316
Cu2   Cu    Cu3+1 0.500000 0.359340 0.500000 0.927382
H1    H     H_    0.111873 0.276481 0.499928 0.153226
H2    H     H_    0.888134 0.723522 0.500059 0.153022
H3    H     H_    0.888173 0.276477 0.500238 0.153043
H4    H     H_    0.111835 0.723522 0.499752 0.153230
H5    H     H_    0.295517 0.502991 0.831265 0.136564
H6    H     H_    0.693612 0.502501 0.165422 0.136598
H7    H     H_    0.294801 0.500964 0.147891 0.143125
H8    H     H_    0.694007 0.501031 0.855094 0.136470
H9    H     H_    0.634312 0.661600 0.943980 0.130880
H10   H     H_    0.350631 0.346407 0.055516 0.130001
H11   H     H_    0.634355 0.661194 0.069948 0.130969
H12   H     H_    0.350513 0.346953 0.929442 0.130981
N1    N     N_R   0.500000 0.852070 0.500000 -0.190422
N2    N     N_R   0.500000 0.147930 0.500000 -0.190403
O1    O     O_R   0.319640 0.618740 0.500000 -0.589789
O2    O     O_R   0.680360 0.381260 0.500000 -0.589808
O3    O     O_R   0.680360 0.618740 0.500000 -0.590040
O4    O     O_R   0.319640 0.381260 0.500000 -0.589879
O5    O     O_R   0.500020 0.618830 0.400190 -0.577998
O6    O     O_R   0.499980 0.381170 0.599810 -0.578102
O7    O     O_R   0.499980 0.618830 0.599810 -0.578053
O8    O     O_R   0.500020 0.381170 0.400190 -0.577832
C33   C     C_3   0.326496 0.145803 0.402947 -0.770752
H13   H     H_    0.326602 0.257488 0.403279 0.276425
H14   H     H_    0.344443 0.116826 0.349393 0.204955
H15   H     H_    0.230505 0.116383 0.412571 0.189260
C34   C     C_3   0.673521 0.854412 0.596847 -0.782361
H16   H     H_    0.672956 0.742976 0.596104 0.272603
H17   H     H_    0.769533 0.883686 0.587192 0.191587
H18   H     H_    0.655630 0.883034 0.650460 0.206231
C35   C     C_3   0.673510 0.145635 0.596860 -0.782386
H19   H     H_    0.673006 0.257080 0.596112 0.272628
H20   H     H_    0.655562 0.117067 0.650467 0.206281
H21   H     H_    0.769523 0.116298 0.587236 0.191557
C36   C     C_3   0.326518 0.854148 0.402930 -0.770338
H22   H     H_    0.326558 0.742453 0.403269 0.276378
H23   H     H_    0.230524 0.883637 0.412514 0.189149
H24   H     H_    0.344539 0.883066 0.349382 0.205007
C37   C     C_3   0.263198 0.499570 0.691326 -0.859060
H25   H     H_    0.256973 0.592750 0.657843 0.236796
H26   H     H_    0.257404 0.405912 0.658168 0.236402
H27   H     H_    0.182183 0.499558 0.722675 0.227637
C38   C     C_3   0.732925 0.502557 0.305051 -0.863454
H28   H     H_    0.741339 0.408795 0.338086 0.236350
H29   H     H_    0.812114 0.503816 0.272358 0.228264
H30   H     H_    0.739923 0.595585 0.338646 0.236483
C39   C     C_3   0.258410 0.497668 0.281920 -0.906881
H31   H     H_    0.205911 0.403962 0.263924 0.237697
H32   H     H_    0.266281 0.497531 0.339298 0.213673
H33   H     H_    0.204359 0.590417 0.264072 0.238342
C40   C     C_3   0.735559 0.500099 0.720016 -0.901178
H34   H     H_    0.744364 0.592703 0.687274 0.225248
H35   H     H_    0.813894 0.500828 0.761153 0.235383
H36   H     H_    0.744246 0.406126 0.688216 0.225973

loop_
_geom_bond_atom_site_label_1
_geom_bond_atom_site_label_2
_ccdc_geom_bond_type
C27   N2    A    
Cu1   O7    S    
C28   N1    A    
Cu2   O8    S    
C36   H24   S    
C24   H8    S    
C37   H25   S    
C39   H33   S    
C39   H31   S    
C38   H28   S    
C3    H9    S    
C7    C26   S    
C28   C29   A    
C13   H1    S    
C14   H2    S    
C33   H14   S    
C10   O3    A    
Cu1   O1    S    
C34   H17   S    
C23   C26   A    
C36   H23   S    
C2    C13   A    
C15   H3    S    
C20   C24   A    
C35   H20   S    
C1    C15   A    
C2    C16   A    
C11   O5    A    
C28   C34   S    
C38   H29   S    
C27   C30   A    
C17   C37   S    
C8    C25   S    
C37   H26   S    
C34   H16   S    
C9    O4    A    
C4    C7    A    
C19   C32   A    
C39   H32   S    
C40   H35   S    
Cu1   O5    S    
Cu2   O2    S    
C29   N2    A    
C30   N1    A    
C9    O1    A    
C24   C25   A    
C4    C6    A    
C3    C8    A    
C27   C33   S    
C5    C7    A    
C33   H15   S    
C6    C8    A    
C4    H10   S    
C40   H34   S    
C5    H11   S    
C17   C21   A    
C34   H18   S    
C19   C23   A    
C21   H5    S    
C35   H21   S    
C22   H6    S    
C20   C40   S    
Cu1   Cu2   S    
C29   C35   S    
C11   C32   S    
Cu2   O6    S    
C13   C15   A    
C12   C31   S    
Cu1   N1    S    
C37   H27   S    
C14   C16   A    
Cu2   N2    S    
C10   O2    A    
C30   C36   S    
C40   H36   S    
C38   H30   S    
C21   C25   A    
C6    H12   S    
C18   C22   A    
C1    C10   S    
C3    C5    A    
Cu1   O3    S    
Cu2   O4    S    
C23   H7    S    
C33   H13   S    
C18   C38   S    
C17   C31   A    
C36   H22   S    
C12   O7    A    
C18   C32   A    
C35   H19   S    
C22   C26   A    
C1    C14   A    
C19   C39   S    
C2    C9    S    
C12   O6    A    
C11   O8    A    
C16   H4    S    
C20   C31   A    
