data_mof_unit_7545.cif
_audit_creation_date              2012-12-10T20:35:55-0500
_audit_creation_method            fapswitch 2.2
_symmetry_space_group_name_H-M    P1
_symmetry_Int_Tables_number       1
_space_group_crystal_system       triclinic
_cell_length_a                    15.741551
_cell_length_b                    10.659272
_cell_length_c                    9.880664
_cell_angle_alpha                 90.003179
_cell_angle_beta                  89.984918
_cell_angle_gamma                 90.154298
_cell_volume                      1657.90486437

loop_
_atom_site_label
_atom_site_type_symbol
_atom_type_description
_atom_site_fract_x
_atom_site_fract_y
_atom_site_fract_z
_atom_type_partial_charge
C1    C     C_R   0.501650 0.259990 0.500140 0.907071
C2    C     C_R   0.513934 0.128518 0.502281 -0.191259
C3    C     C_R   0.550635 0.066998 0.391456 -0.212664
C4    C     C_R   0.338394 0.500278 0.500085 0.921426
C5    C     C_R   0.557221 0.937102 0.392509 0.433955
C6    C     C_R   0.521271 0.871080 0.503227 -0.232740
C7    C     C_R   0.499738 0.935688 0.620704 0.083825
C8    C     C_3   0.423302 0.924440 0.709908 -0.399661
C9    C     C_3   0.420510 0.066610 0.710341 -0.429903
C10   C     C_R   0.430564 0.539323 0.071355 0.066500
C11   C     C_R   0.571018 0.468196 0.071789 -0.124423
C12   C     C_3   0.950832 0.478051 0.649054 0.146389
C13   C     C_R   0.571011 0.468182 0.928092 -0.120895
C14   C     C_R   0.430590 0.539471 0.928663 0.036536
C15   C     C_3   0.341860 0.487306 0.922265 0.644824
C16   C     C_R   0.505428 0.739684 0.500091 0.869059
C17   C     C_3   0.341891 0.486902 0.077659 0.642808
C18   C     C_R   0.661658 0.500038 0.499934 0.868996
C19   C     C_3   0.050129 0.490321 0.651850 0.626335
C20   C     C_3   0.048611 0.387174 0.419053 0.284330
C21   C     C_3   0.950406 0.394209 0.410417 -0.517457
C22   C     C_1   0.750492 0.500404 0.500046 -0.165168
C23   C     C_3   0.917221 0.501375 0.502289 0.016971
C24   C     C_3   0.082803 0.501902 0.501656 0.059926
C25   C     C_3   0.950952 0.627527 0.444661 -0.405464
C26   C     C_3   0.049021 0.625870 0.436331 0.231427
C27   C     C_1   0.825767 0.500818 0.500772 0.030446
C28   C     C_1   0.174432 0.501873 0.500763 0.105230
C29   C     C_1   0.249656 0.501214 0.500267 -0.071356
C30   C     C_R   0.497007 0.063172 0.620778 0.113285
H1    H     H_    0.074064 0.709228 0.491789 0.081489
H2    H     H_    0.363597 0.105809 0.658946 0.220291
H3    H     H_    0.435048 0.107769 0.811063 0.208243
H4    H     H_    0.627822 0.440744 0.125516 0.162742
H5    H     H_    0.068021 0.380231 0.806905 0.381277
H6    H     H_    0.627807 0.440704 0.874312 0.169961
H7    H     H_    0.228122 0.535394 0.871175 0.392807
H8    H     H_    0.386264 0.318358 0.883346 0.299375
H9    H     H_    0.228096 0.534224 0.129640 0.382063
H10   H     H_    0.386668 0.317816 0.116071 0.307019
H11   H     H_    0.071468 0.300181 0.250265 0.341127
H12   H     H_    0.934007 0.379277 0.674843 0.163579
H13   H     H_    0.066572 0.299041 0.472760 0.129346
H14   H     H_    0.922711 0.302538 0.442018 0.150291
H15   H     H_    0.929977 0.410838 0.303995 0.249044
H16   H     H_    0.133025 0.669124 0.299133 0.352844
H17   H     H_    0.930036 0.707988 0.507717 0.123594
H18   H     H_    0.045860 0.669420 0.704231 0.318666
H19   H     H_    0.903784 0.638354 0.713998 0.339451
H20   H     H_    0.923457 0.643740 0.342270 0.243503
H21   H     H_    0.572542 0.118878 0.303730 0.185936
H22   H     H_    0.621407 0.800430 0.315164 0.340002
H23   H     H_    0.368108 0.880531 0.657755 0.209794
H24   H     H_    0.439068 0.883756 0.810393 0.226789
N1    N     N_R   0.499430 0.499140 0.142800 -0.120737
N2    N     N_R   0.499430 0.499180 0.857150 -0.123453
O1    O     O_R   0.500010 0.316790 0.614690 -0.614005
O2    O     O_3   0.911141 0.552127 0.749032 -0.722203
O3    O     O_3   0.595309 0.879550 0.283334 -0.740646
O4    O     O_3   0.084447 0.380771 0.709825 -0.772899
O5    O     O_3   0.285405 0.574055 0.865205 -0.701863
O6    O     O_3   0.334854 0.367905 0.861307 -0.726006
O7    O     O_3   0.285313 0.573180 0.135315 -0.718248
O8    O     O_3   0.335074 0.367129 0.137920 -0.722640
O9    O     O_3   0.084196 0.384322 0.288450 -0.677571
O10   O     O_3   0.074059 0.635849 0.299942 -0.659278
O11   O     O_R   0.500000 0.316760 0.385350 -0.620691
O12   O     O_R   0.377150 0.500020 0.614720 -0.554813
O13   O     O_R   0.377140 0.499990 0.385380 -0.555050
O14   O     O_R   0.500000 0.683240 0.614650 -0.603779
O15   O     O_R   0.499990 0.683210 0.385310 -0.588830
O16   O     O_R   0.622860 0.500010 0.614620 -0.615889
O17   O     O_R   0.622850 0.499980 0.385280 -0.634091
O18   O     O_3   0.077985 0.593562 0.730395 -0.719776
Zn1   Zn    Zn3+2 0.500010 0.500020 0.653130 0.994994
Zn2   Zn    Zn3+2 0.499990 0.499980 0.346870 0.999893

loop_
_geom_bond_atom_site_label_1
_geom_bond_atom_site_label_2
_ccdc_geom_bond_type
C14   N2    A    
C7    C8    S    
O12   Zn1   S    
C12   C23   S    
C28   C29   T    
C24   C26   S    
H16   O10   S    
C17   O8    S    
O15   Zn2   S    
C10   C17   S    
O13   Zn2   S    
C1    C2    S    
C25   H20   S    
C12   H12   S    
C9    H2    S    
C20   C24   S    
C8    C9    S    
C23   C27   S    
C25   H17   S    
C4    C29   S    
C13   N2    A    
C12   O2    S    
C26   H1    S    
C7    C30   A    
C9    H3    S    
C16   O15   A    
O16   Zn1   S    
C4    O13   A    
C21   H15   S    
C19   O18   S    
C18   O16   A    
C5    O3    S    
C26   O10   S    
H18   O18   S    
C20   O9    S    
C16   O14   A    
C13   H6    S    
C10   C14   A    
C8    H24   S    
C4    O12   A    
C3    H21   S    
H11   O9    S    
C25   C26   S    
H19   O2    S    
H5    O4    S    
H22   O3    S    
C1    O1    A    
C21   H14   S    
C15   O5    S    
C10   N1    A    
C9    C30   S    
N1    Zn2   S    
C18   O17   A    
C22   C27   T    
C21   C23   S    
O17   Zn2   S    
C20   H13   S    
C11   N1    A    
C15   C17   S    
C18   C22   S    
C11   H4    S    
C24   C28   S    
C3    C5    A    
C8    H23   S    
H7    O5    S    
C6    C7    A    
C19   O4    S    
H9    O7    S    
H10   O8    S    
C2    C30   A    
O1    Zn1   S    
C2    C3    A    
C17   O7    S    
C11   C13   A    
C5    C6    A    
C12   C19   S    
C1    O11   A    
C15   O6    S    
C19   C24   S    
C23   C25   S    
C6    C16   S    
C20   C21   S    
O14   Zn1   S    
N2    Zn1   S    
C14   C15   S    
O11   Zn2   S    
H8    O6    S    
