data_mof_unit_30172.cif
_audit_creation_date              2012-12-10T19:47:25-0500
_audit_creation_method            fapswitch 2.2
_symmetry_space_group_name_H-M    P1
_symmetry_Int_Tables_number       1
_space_group_crystal_system       triclinic
_cell_length_a                    10.941083
_cell_length_b                    10.910873
_cell_length_c                    12.693258
_cell_angle_alpha                 92.181295
_cell_angle_beta                  92.903275
_cell_angle_gamma                 90.220518
_cell_volume                      1512.21328463

loop_
_atom_site_label
_atom_site_type_symbol
_atom_type_description
_atom_site_fract_x
_atom_site_fract_y
_atom_site_fract_z
_atom_type_partial_charge
C1    C     C_R   0.261846 0.498883 0.500736 0.865265
C2    C     C_R   0.738154 0.501116 0.499264 0.865269
C3    C     C_R   0.495839 0.871728 0.495716 -0.082197
C4    C     C_R   0.504158 0.128272 0.504283 -0.082196
C5    C     C_R   0.467976 0.936475 0.402830 -0.004493
C6    C     C_R   0.532020 0.063524 0.597169 -0.004495
C7    C     C_R   0.219505 0.228494 0.769769 -0.163973
C8    C     C_R   0.780485 0.771537 0.230265 -0.163964
C9    C     C_R   0.175182 0.281405 0.677179 -0.165600
C10   C     C_R   0.824813 0.718611 0.322847 -0.165595
C11   C     C_R   0.134819 0.403087 0.679992 0.063786
C12   C     C_R   0.865178 0.596930 0.320016 0.063774
C13   C     C_R   0.142108 0.472314 0.775650 -0.085761
C14   C     C_R   0.857887 0.527719 0.224349 -0.085774
C15   C     C_R   0.187425 0.420077 0.868648 0.450697
C16   C     C_R   0.812566 0.579973 0.131360 0.450689
C17   C     C_R   0.226071 0.297016 0.865199 -0.223015
C18   C     C_R   0.773915 0.703032 0.134827 -0.223012
C19   C     C_R   0.938718 0.451390 0.584205 0.360803
C20   C     C_R   0.061282 0.548608 0.415795 0.360806
C21   C     C_R   0.871879 0.501108 0.498480 -0.175688
C22   C     C_R   0.128121 0.498891 0.501520 -0.175688
C23   C     C_R   0.502588 0.261809 0.501688 0.779781
C24   C     C_R   0.497411 0.738190 0.498312 0.779779
C25   C     C_R   0.932750 0.548040 0.413154 -0.156823
C26   C     C_R   0.067250 0.451961 0.586846 -0.156831
C27   C     C_2   0.480463 0.456169 0.031511 -0.230502
C28   C     C_2   0.519538 0.543832 0.968489 -0.230470
C29   C     C_1   0.519697 0.528408 0.852745 0.219184
C30   C     C_1   0.480303 0.471593 0.147255 0.219175
C31   C     C_R   0.707476 0.243601 0.818741 -0.088720
C32   C     C_R   0.292524 0.756390 0.181260 -0.088723
C33   C     C_R   0.672079 0.195715 0.717737 -0.084717
C34   C     C_R   0.327921 0.804278 0.282264 -0.084712
C35   C     C_R   0.567212 0.121241 0.702549 0.119620
C36   C     C_R   0.432784 0.878759 0.297450 0.119617
C37   C     C_R   0.502549 0.090602 0.791030 -0.146185
C38   C     C_R   0.497439 0.909406 0.208967 -0.146185
C39   C     C_R   0.538235 0.138408 0.891597 -0.174269
C40   C     C_R   0.461752 0.861599 0.108400 -0.174271
C41   C     C_R   0.640446 0.215263 0.905362 -0.126939
C42   C     C_R   0.359547 0.784736 0.094637 -0.126940
C43   C     C_R   0.527235 0.936329 0.590762 -0.242705
C44   C     C_R   0.472761 0.063671 0.409238 -0.242705
Cu1   Cu    Cu3+1 0.492140 0.492110 0.395880 1.000041
Cu2   Cu    Cu3+1 0.507860 0.507890 0.604120 1.000044
H1    H     H_    0.668439 0.252001 0.983316 0.159241
H2    H     H_    0.331554 0.747997 0.016684 0.159257
H3    H     H_    0.108425 0.565580 0.778521 0.145218
H4    H     H_    0.891572 0.434455 0.221465 0.145224
H5    H     H_    0.552058 0.630637 0.003860 0.149766
H6    H     H_    0.447943 0.369364 0.996140 0.149767
H7    H     H_    0.787389 0.301859 0.830781 0.173089
H8    H     H_    0.212615 0.698127 0.169221 0.173096
H9    H     H_    0.726170 0.215624 0.651386 0.143834
H10   H     H_    0.273834 0.784364 0.348616 0.143840
H11   H     H_    0.425513 0.027945 0.782257 0.115305
H12   H     H_    0.574470 0.972069 0.217737 0.115304
H13   H     H_    0.487243 0.114988 0.958969 0.126145
H14   H     H_    0.512739 0.885025 0.041026 0.126145
H15   H     H_    0.551122 0.887194 0.661523 0.165247
H16   H     H_    0.448873 0.112807 0.338477 0.165247
H17   H     H_    0.259196 0.253603 0.936337 0.117231
H18   H     H_    0.740785 0.746457 0.063696 0.117231
H19   H     H_    0.244932 0.133002 0.767994 0.142810
H20   H     H_    0.755056 0.867029 0.232055 0.142809
H21   H     H_    0.167128 0.226192 0.604385 0.129806
H22   H     H_    0.832869 0.773811 0.395647 0.129804
N1    N     N_1   0.480320 0.480250 0.239400 -0.152048
N2    N     N_1   0.519680 0.519750 0.760600 -0.152047
O1    O     O_R   0.313000 0.493330 0.412070 -0.524704
O2    O     O_R   0.687000 0.506670 0.587930 -0.524701
O3    O     O_R   0.326280 0.506660 0.587930 -0.589169
O4    O     O_R   0.673720 0.493340 0.412070 -0.589167
O5    O     O_R   0.493370 0.312980 0.412070 -0.595972
O6    O     O_R   0.506630 0.687020 0.587930 -0.595972
O7    O     O_R   0.506650 0.326310 0.587930 -0.567430
O8    O     O_R   0.493350 0.673690 0.412070 -0.567431
O9    O     O_3   0.188853 0.489939 0.961553 -0.741421
H23   H     H_    0.216991 0.438148 0.020444 0.321806
O10   O     O_3   0.811137 0.510128 0.038446 -0.741405
H24   H     H_    0.782999 0.561930 0.979563 0.321802
O11   O     O_3   0.875266 0.401406 0.663924 -0.742094
H25   H     H_    0.925498 0.338812 0.699743 0.315727
O12   O     O_3   0.124734 0.598590 0.336074 -0.742102
H26   H     H_    0.074502 0.661183 0.300254 0.315727

loop_
_geom_bond_atom_site_label_1
_geom_bond_atom_site_label_2
_ccdc_geom_bond_type
C33   H9    S    
C34   H10   S    
C40   H14   S    
Cu1   O1    S    
Cu2   O6    S    
O10   H24   S    
C39   C41   A    
Cu1   Cu2   S    
C8    H20   S    
C3    C43   A    
C1    O1    A    
C28   C29   S    
C19   C21   A    
C28   H5    S    
C2    O2    A    
C20   C25   A    
C5    C36   S    
C6    C35   S    
C7    C9    A    
C19   C26   A    
C38   H12   S    
C15   O9    S    
C7    C17   A    
C31   C33   A    
Cu1   O8    S    
Cu2   O2    S    
C2    O4    A    
C40   C42   A    
C1    C22   S    
C27   C30   S    
C3    C24   S    
C19   O11   S    
C32   H8    S    
Cu1   N1    S    
C4    C6    A    
C23   O5    A    
C4    C23   S    
C24   O6    A    
C4    C44   A    
C11   C26   S    
C44   H16   S    
O12   H26   S    
C31   H7    S    
Cu1   O4    S    
C32   C34   A    
C9    H21   S    
C7    H19   S    
O11   H25   S    
C39   H13   S    
C20   O12   S    
C2    C21   S    
C41   H1    S    
C16   C18   A    
C42   H2    S    
C23   O7    A    
C9    C11   A    
C10   C12   A    
C13   H3    S    
C24   O8    A    
C5    C44   A    
C12   C14   A    
C6    C43   A    
C13   C15   A    
C14   C16   A    
C30   N1    T    
C27   H6    S    
C43   H15   S    
C29   N2    T    
C15   C17   A    
C21   C25   A    
C31   C41   A    
C35   C37   A    
C20   C22   A    
C3    C5    A    
Cu2   O7    S    
C10   H22   S    
C12   C25   S    
Cu1   O5    S    
C1    O3    A    
C36   C38   A    
C37   C39   A    
C17   H17   S    
C38   C40   A    
C11   C13   A    
C18   H18   S    
C14   H4    S    
C16   O10   S    
C33   C35   A    
C34   C36   A    
C8    C18   A    
Cu2   N2    S    
O9    H23   S    
C8    C10   A    
C22   C26   A    
C27   C28   D    
C32   C42   A    
Cu2   O3    S    
C37   H11   S    
