data_mof_unit_27172.cif
_audit_creation_date              2012-12-10T17:37:16-0500
_audit_creation_method            fapswitch 2.2
_symmetry_space_group_name_H-M    P1
_symmetry_Int_Tables_number       1
_space_group_crystal_system       triclinic
_cell_length_a                    12.316712
_cell_length_b                    13.101303
_cell_length_c                    15.8345
_cell_angle_alpha                 77.926028
_cell_angle_beta                  101.084771
_cell_angle_gamma                 116.228757
_cell_volume                      2226.78696673

loop_
_atom_site_label
_atom_site_type_symbol
_atom_type_description
_atom_site_fract_x
_atom_site_fract_y
_atom_site_fract_z
_atom_type_partial_charge
C1    C     C_R   0.855227 0.286810 0.503920 0.863964
C2    C     C_3   0.000080 0.501596 0.916859 0.122450
C3    C     C_3   0.116981 0.541440 0.037582 -0.215546
C4    C     C_3   0.002495 0.503178 0.082655 0.115925
C5    C     C_3   0.065569 0.609944 0.961776 -0.165254
C6    C     C_3   0.951524 0.570603 0.008131 0.431978
C7    C     C_1   0.999146 0.500773 0.825162 -0.018275
C8    C     C_1   0.003681 0.503478 0.174513 -0.017676
C9    C     C_R   0.270881 0.040001 0.447331 -0.186334
C10   C     C_R   0.227238 0.837465 0.481789 -0.168865
C11   C     C_R   0.819860 0.082767 0.540438 -0.303795
C12   C     C_R   0.999467 0.499848 0.659983 0.816193
C13   C     C_R   0.742135 0.969205 0.564827 0.392703
C14   C     C_R   0.616343 0.936012 0.555986 0.391794
C15   C     C_R   0.565815 0.012098 0.504670 -0.143617
C16   C     C_R   0.646502 0.126295 0.474283 -0.048878
C17   C     C_R   0.438295 0.980798 0.484932 0.094648
C18   C     C_R   0.395223 0.066871 0.453504 0.041949
C19   C     C_R   0.475095 0.175984 0.420600 -0.327375
C20   C     C_R   0.596965 0.198964 0.417708 0.494662
C21   C     C_R   0.352464 0.866604 0.490744 -0.269448
C22   C     C_R   0.186649 0.926176 0.464214 0.390782
C23   C     C_R   0.144872 0.714163 0.489399 0.831590
C24   C     C_R   0.773346 0.163925 0.502208 -0.166028
C25   C     C_R   0.342844 0.322967 0.635620 0.280869
C26   C     C_R   0.760100 0.646407 0.383990 0.016936
C27   C     C_R   0.661600 0.677362 0.356341 0.414950
C28   C     C_R   0.559497 0.622263 0.402001 -0.225962
C29   C     C_R   0.551299 0.533749 0.472138 -0.050678
C30   C     C_R   0.652791 0.504394 0.495697 0.292482
C31   C     C_R   0.446655 0.473625 0.519809 -0.041717
C32   C     C_R   0.445055 0.384099 0.588835 0.073135
C33   C     C_R   0.545759 0.357722 0.610474 -0.219063
C34   C     C_R   0.001231 0.501140 0.339947 0.828310
C35   C     C_R   0.647143 0.417249 0.565918 -0.157221
C36   C     C_R   0.342696 0.498215 0.502120 0.026582
C37   C     C_R   0.244468 0.352242 0.614486 0.034261
C38   C     C_3   0.937065 0.395034 0.037438 -0.220941
C39   C     C_3   0.885339 0.463219 0.961601 -0.195198
C40   C     C_1   0.998918 0.500286 0.749583 -0.145467
C41   C     C_1   0.003361 0.502755 0.250228 -0.184605
C42   C     C_3   0.051624 0.433206 0.991007 -0.136489
Cu1   Cu    Cu3+1 0.098270 0.475420 0.519690 0.953413
Cu2   Cu    Cu3+1 0.901730 0.524580 0.480310 0.999712
H1    H     H_    0.790400 0.431817 0.929182 0.165697
H2    H     H_    0.382379 0.799281 0.497104 0.226958
H3    H     H_    0.917053 0.108738 0.556903 0.222518
H4    H     H_    0.165464 0.306029 0.649700 0.165582
H5    H     H_    0.548206 0.290999 0.663242 0.202644
H6    H     H_    0.335980 0.564516 0.451103 0.134419
H7    H     H_    0.842510 0.690343 0.352684 0.149286
H8    H     H_    0.884453 0.307018 0.069824 0.155716
H9    H     H_    0.487432 0.650468 0.380467 0.156588
H10   H     H_    0.719597 0.391817 0.589720 0.190789
H11   H     H_    0.117577 0.698217 0.929532 0.170448
H12   H     H_    0.211916 0.573299 0.069995 0.154588
H13   H     H_    0.092888 0.376432 0.982487 0.151322
H14   H     H_    0.440204 0.239137 0.389666 0.139691
H15   H     H_    0.238810 0.107258 0.427093 0.167914
N1    N     N_R   0.246280 0.438200 0.549540 -0.214962
N2    N     N_R   0.754330 0.561180 0.450980 -0.216068
O1    O     O_R   0.972510 0.318130 0.524770 -0.594209
O2    O     O_R   0.806530 0.359650 0.491510 -0.565276
O3    O     O_R   0.082970 0.479240 0.637550 -0.577752
O4    O     O_R   0.916990 0.520750 0.604290 -0.575543
O5    O     O_R   0.193470 0.640350 0.508490 -0.596675
O6    O     O_R   0.027490 0.681870 0.475230 -0.524252
O7    O     O_R   0.083010 0.479250 0.395710 -0.581679
O8    O     O_R   0.917030 0.520760 0.362450 -0.576663
O9    O     O_3   0.546257 0.829927 0.599513 -0.595013
C43   C     C_3   0.508902 0.844076 0.673962 0.045615
H16   H     H_    0.417960 0.772617 0.683867 0.182510
H17   H     H_    0.497159 0.925323 0.666840 0.140216
C44   C     C_3   0.597934 0.836631 0.754560 -0.294509
H18   H     H_    0.610255 0.756209 0.760630 0.268213
H19   H     H_    0.687723 0.911034 0.747716 0.232626
C45   C     C_3   0.551602 0.837503 0.837010 -0.894027
H20   H     H_    0.540151 0.917968 0.832815 0.262712
H21   H     H_    0.618377 0.832662 0.894074 0.271147
H22   H     H_    0.462955 0.762453 0.846584 0.258223
Cl1   Cl    Cl    0.805016 0.871294 0.615474 -0.513829
O10   O     O_3   0.668391 0.289321 0.359980 -0.588352
C46   C     C_3   0.602980 0.296436 0.276572 0.032992
H23   H     H_    0.545502 0.342443 0.275961 0.140221
H24   H     H_    0.544798 0.209424 0.257222 0.147593
C47   C     C_3   0.692488 0.364791 0.209410 -0.320220
H25   H     H_    0.747067 0.453677 0.225006 0.242871
H26   H     H_    0.754798 0.323377 0.211524 0.221395
C48   C     C_3   0.626192 0.370542 0.117857 -0.869850
H27   H     H_    0.572154 0.282780 0.099883 0.253735
H28   H     H_    0.693639 0.420743 0.070751 0.285312
H29   H     H_    0.564687 0.413330 0.113809 0.258239
Cl2   Cl    Cl    0.332970 0.209150 0.720621 -0.622697
O11   O     O_3   0.664144 0.767154 0.290482 -0.597547
C49   C     C_3   0.720835 0.772819 0.218725 0.042807
H30   H     H_    0.660998 0.783596 0.158643 0.173941
H31   H     H_    0.730896 0.692927 0.216370 0.127299
C50   C     C_3   0.843290 0.878442 0.216082 -0.361608
H32   H     H_    0.827048 0.957526 0.204063 0.231886
H33   H     H_    0.900172 0.877861 0.279508 0.258149
C51   C     C_3   0.912905 0.881848 0.144898 -0.813680
H34   H     H_    0.936120 0.806701 0.158863 0.287921
H35   H     H_    0.998807 0.961510 0.142617 0.251180
H36   H     H_    0.857452 0.881078 0.080592 0.276832
Cl3   Cl    Cl    0.884555 0.661887 0.019769 -0.670208
Cl4   Cl    Cl    0.032858 0.901502 0.458747 -0.584033

loop_
_geom_bond_atom_site_label_1
_geom_bond_atom_site_label_2
_ccdc_geom_bond_type
C3    C42   S    
C25   Cl2   S    
C51   H34   S    
C20   O10   S    
C11   H3    S    
C49   H30   S    
C4    C8    S    
C1    O1    A    
C49   C50   S    
C45   H20   S    
C10   C22   A    
C26   C27   A    
C44   H19   S    
C30   C35   A    
C23   O5    A    
C28   C29   A    
C26   N2    A    
C38   C42   S    
C5    C6    S    
C12   O3    A    
C47   H26   S    
C9    C22   A    
C38   H8    S    
C33   H5    S    
C15   C16   A    
C13   Cl1   S    
C11   C24   A    
C18   C19   A    
C23   O6    A    
C2    C7    S    
C25   C37   A    
C2    C39   S    
C19   C20   A    
Cu1   O7    S    
C44   C45   S    
C7    C40   T    
O9    C43   S    
C48   H28   S    
C39   H1    S    
C25   C32   A    
C16   C24   A    
C13   C14   A    
C35   H10   S    
C14   O9    S    
Cu2   O4    S    
C34   C41   S    
C1    O2    A    
C42   H13   S    
Cu1   O3    S    
C45   H21   S    
C19   H14   S    
C44   H18   S    
Cu2   O6    S    
C8    C41   T    
C4    C6    S    
C34   O7    A    
C43   H17   S    
C47   H25   S    
C3    C5    S    
C22   Cl4   S    
C17   C21   A    
C37   H4    S    
C12   C40   S    
Cu1   Cu2   S    
Cu2   O2    S    
C29   C30   A    
C3    H12   S    
C46   H23   S    
C14   C15   A    
C16   C20   A    
C17   C18   A    
Cu2   O8    S    
C48   H29   S    
C34   O8    A    
Cu1   N1    S    
C46   H24   S    
C4    C38   S    
O10   C46   S    
C51   H36   S    
C50   H33   S    
Cu2   N2    S    
C2    C5    S    
C3    C4    S    
C36   H6    S    
C21   H2    S    
C45   H22   S    
C15   C17   A    
C31   C36   A    
C5    H11   S    
C31   C32   A    
C36   N1    A    
C47   C48   S    
C10   C21   A    
C43   C44   S    
C28   H9    S    
C49   H31   S    
C10   C23   S    
C50   C51   S    
C12   O4    A    
C32   C33   A    
C43   H16   S    
C29   C31   A    
C26   H7    S    
C11   C13   A    
C38   C39   S    
C2    C42   S    
Cu1   O5    S    
C33   C35   A    
C6    Cl3   S    
O11   C49   S    
C37   N1    A    
C9    C18   A    
C46   C47   S    
C1    C24   S    
C51   H35   S    
C50   H32   S    
C30   N2    A    
C27   C28   A    
C6    C39   S    
C27   O11   S    
C9    H15   S    
C48   H27   S    
Cu1   O1    S    
