data_mof_unit_59140.cif
_audit_creation_date              2012-12-10T19:11:33-0500
_audit_creation_method            fapswitch 2.2
_symmetry_space_group_name_H-M    P1
_symmetry_Int_Tables_number       1
_space_group_crystal_system       triclinic
_cell_length_a                    7.784011
_cell_length_b                    9.09314
_cell_length_c                    17.233542
_cell_angle_alpha                 90.20774
_cell_angle_beta                  85.644631
_cell_angle_gamma                 90.008999
_cell_volume                      1216.27853545

loop_
_atom_site_label
_atom_site_type_symbol
_atom_type_description
_atom_site_fract_x
_atom_site_fract_y
_atom_site_fract_z
_atom_type_partial_charge
C1    C     C_R   0.500034 0.779975 0.499771 0.882604
C2    C     C_R   0.499972 0.220024 0.500170 0.877992
C3    C     C_1   0.500015 0.934628 0.499893 -0.119356
C4    C     C_1   0.499988 0.065372 0.500034 -0.121453
C5    C     C_R   0.477300 0.508324 0.650317 0.834553
C6    C     C_R   0.522710 0.492055 0.349662 0.845932
C7    C     C_R   0.462534 0.527611 0.734883 -0.083396
C8    C     C_R   0.537457 0.475443 0.264961 -0.080696
C9    C     C_R   0.572621 0.623647 0.772986 0.000179
C10   C     C_R   0.426555 0.381642 0.225935 -0.015160
C11   C     C_R   0.559535 0.628889 0.854005 -0.232939
C12   C     C_R   0.438364 0.380471 0.144862 -0.157178
C13   C     C_R   0.436773 0.544767 0.897312 -0.037530
C14   C     C_R   0.560719 0.466462 0.102429 0.171235
C15   C     C_R   0.321109 0.454318 0.859908 0.005548
C16   C     C_R   0.677815 0.554034 0.140693 0.049055
C17   C     C_R   0.335610 0.447046 0.778489 -0.187461
C18   C     C_R   0.664380 0.557380 0.222151 -0.189708
C19   C     C_2   0.439689 0.548725 0.982287 -0.171987
C20   C     C_2   0.557648 0.466340 0.017377 -0.120127
Cu1   Cu    Cu3+1 0.330920 0.500000 0.500000 1.057931
Cu2   Cu    Cu3+1 0.669080 0.500000 0.500000 1.056946
H1    H     H_    0.351929 0.311678 0.114039 0.131102
H2    H     H_    0.645360 0.699507 0.884117 0.141704
H3    H     H_    0.750039 0.627259 0.252658 0.192324
H4    H     H_    0.250632 0.375370 0.748671 0.187931
N1    N     N_1   0.923170 0.500000 0.500010 -0.034679
N2    N     N_1   0.076830 0.500000 0.499990 -0.034952
O1    O     O_R   0.357240 0.711600 0.500000 -0.585733
O2    O     O_R   0.642760 0.288400 0.500000 -0.586126
O3    O     O_R   0.642760 0.711600 0.500000 -0.550857
O4    O     O_R   0.357240 0.288400 0.500000 -0.553161
O5    O     O_R   0.340660 0.500000 0.613590 -0.598910
O6    O     O_R   0.659340 0.500000 0.386410 -0.598406
O7    O     O_R   0.626230 0.500000 0.613600 -0.556284
O8    O     O_R   0.373770 0.500000 0.386400 -0.551436
C21   C     C_2   0.188927 0.364813 0.905023 0.362457
H5    H     H_    0.177845 0.368250 0.968123 0.093932
O9    O     O_2   0.090161 0.285743 0.872170 -0.520275
C22   C     C_2   0.810060 0.644937 0.096448 0.407949
H6    H     H_    0.820679 0.644188 0.033328 0.053648
O10   O     O_2   0.909358 0.722217 0.130046 -0.506694
C23   C     C_2   0.698455 0.724627 0.731949 0.375846
H7    H     H_    0.809612 0.762078 0.760960 0.077623
O11   O     O_2   0.675344 0.773757 0.667797 -0.539591
C24   C     C_2   0.301118 0.279079 0.266030 0.395921
H8    H     H_    0.190109 0.242380 0.236678 0.090826
O12   O     O_2   0.324321 0.228014 0.329763 -0.537640
C25   C     C_2   0.682187 0.367278 0.972668 0.360754
H9    H     H_    0.684602 0.358219 0.909845 0.122907
O13   O     O_2   0.784250 0.293383 0.006306 -0.515200
C26   C     C_2   0.312259 0.649897 0.023779 0.422686
H10   H     H_    0.213311 0.700023 0.991434 0.086613
O14   O     O_2   0.316901 0.681224 0.092508 -0.499263

loop_
_geom_bond_atom_site_label_1
_geom_bond_atom_site_label_2
_ccdc_geom_bond_type
C10   C24   S    
C2    C4    S    
C23   H7    S    
C5    C7    S    
C20   C25   S    
C11   C13   A    
C19   C20   D    
C2    O2    A    
C16   C18   A    
C6    O8    A    
C1    O1    A    
C21   O9    D    
Cu1   O8    S    
Cu1   Cu2   S    
Cu2   O7    S    
C9    C11   A    
C12   H1    S    
C21   H5    S    
C18   H3    S    
C10   C12   A    
C16   C22   S    
C17   H4    S    
C5    O7    A    
C1    C3    S    
C2    O4    A    
C22   H6    S    
Cu1   N2    S    
C26   O14   D    
C14   C16   A    
Cu2   N1    S    
C13   C15   A    
Cu2   O6    S    
Cu1   O4    S    
C24   O12   D    
C9    C23   S    
Cu1   O5    S    
Cu2   O3    S    
C13   C19   S    
C3    C4    T    
C14   C20   S    
C11   H2    S    
C1    O3    A    
C26   H10   S    
C7    C9    A    
C25   H9    S    
N1    N2    T    
C15   C17   A    
C24   H8    S    
C15   C21   S    
C6    C8    S    
Cu2   O2    S    
C7    C17   A    
Cu1   O1    S    
C19   C26   S    
C23   O11   D    
C8    C10   A    
C8    C18   A    
C6    O6    A    
C12   C14   A    
C22   O10   D    
C25   O13   D    
C5    O5    A    
