data_mof_unit_36635.cif
_audit_creation_date              2012-10-26T20:22:07-0400
_audit_creation_method            fapswitch 2.2
_symmetry_space_group_name_H-M    P1
_symmetry_Int_Tables_number       1
_space_group_crystal_system       triclinic
_cell_length_a                    10.974606
_cell_length_b                    9.656165
_cell_length_c                    10.607949
_cell_angle_alpha                 89.938666
_cell_angle_beta                  93.121789
_cell_angle_gamma                 89.737445
_cell_volume                      1122.47103219

loop_
_atom_site_label
_atom_site_type_symbol
_atom_type_description
_atom_site_fract_x
_atom_site_fract_y
_atom_site_fract_z
_atom_type_partial_charge
C1    C     C_R   0.871685 0.501632 0.488498 0.010526
C2    C     C_3   0.504192 0.368347 0.041109 -0.081250
C3    C     C_3   0.401933 0.430976 0.952365 -0.123687
C4    C     C_3   0.598063 0.569024 0.047635 -0.123690
C5    C     C_3   0.500124 0.500689 0.877452 0.038794
C6    C     C_3   0.499873 0.499311 0.122548 0.038784
C7    C     C_R   0.431979 0.074583 0.410688 0.313910
C8    C     C_R   0.568011 0.925417 0.589318 0.313825
C9    C     C_R   0.566022 0.072987 0.590973 0.287991
C10   C     C_R   0.433968 0.927011 0.409035 0.287948
C11   C     C_R   0.063230 0.374916 0.484583 0.111311
C12   C     C_R   0.128325 0.498367 0.511553 0.010556
C13   C     C_R   0.936782 0.625078 0.515512 0.111299
C14   C     C_R   0.936087 0.379159 0.463685 0.089624
C15   C     C_R   0.063928 0.620835 0.536376 0.089668
C16   C     C_3   0.153526 0.194682 0.617681 -0.259634
C17   C     C_3   0.846371 0.805454 0.382608 -0.259416
C18   C     C_3   0.852006 0.148052 0.483944 -0.233866
C19   C     C_3   0.147948 0.851971 0.516111 -0.233862
C20   C     C_R   0.262761 0.499889 0.506255 0.576995
C21   C     C_R   0.737243 0.500111 0.493759 0.577024
C22   C     C_R   0.499753 0.499889 0.259623 0.561071
C23   C     C_R   0.500246 0.500111 0.740377 0.561046
C24   C     C_3   0.397624 0.561761 0.036077 -0.109134
C25   C     C_3   0.602372 0.438238 0.963923 -0.109113
C26   C     C_3   0.495805 0.631652 0.958892 -0.081264
Cl1   Cl    Cl    0.335437 0.161915 0.298355 -0.540242
Cl2   Cl    Cl    0.664527 0.838088 0.701676 -0.540282
Cl3   Cl    Cl    0.652866 0.157426 0.712328 -0.577421
Cl4   Cl    Cl    0.347079 0.842562 0.287718 -0.577369
Cu1   Cu    Cu3+1 0.500000 0.640660 0.500000 1.080350
Cu2   Cu    Cu3+1 0.500000 0.359340 0.500000 1.080403
H1    H     H_    0.321810 0.374545 0.910141 0.126974
H2    H     H_    0.228419 0.117540 0.616380 0.150577
H3    H     H_    0.905056 0.829935 0.573133 0.278368
H4    H     H_    0.927582 0.854283 0.343720 0.125153
H5    H     H_    0.770996 0.882033 0.383988 0.150945
H6    H     H_    0.815063 0.720119 0.318604 0.150593
H7    H     H_    0.905848 0.238711 0.317788 0.252724
H8    H     H_    0.917521 0.064260 0.466681 0.094330
H9    H     H_    0.759352 0.109129 0.459265 0.176390
H10   H     H_    0.860369 0.175929 0.585447 0.215030
H11   H     H_    0.094252 0.761234 0.682299 0.252694
H12   H     H_    0.678186 0.625455 0.089859 0.127007
H13   H     H_    0.082481 0.935780 0.533511 0.094339
H14   H     H_    0.139453 0.824148 0.414594 0.214988
H15   H     H_    0.240637 0.890844 0.540678 0.176509
H16   H     H_    0.313829 0.612097 0.068660 0.167495
H17   H     H_    0.686167 0.387902 0.931340 0.167492
H18   H     H_    0.492220 0.739655 0.922849 0.185815
H19   H     H_    0.507776 0.260345 0.077153 0.185797
H20   H     H_    0.094963 0.170004 0.427136 0.278326
H21   H     H_    0.072110 0.146632 0.656800 0.125420
H22   H     H_    0.185437 0.279932 0.681434 0.150784
N1    N     N_R   0.500000 0.852070 0.500000 -0.274429
N2    N     N_R   0.500000 0.147930 0.500000 -0.274356
N3    N     N_2   0.124848 0.244765 0.490416 -0.451101
N4    N     N_2   0.875162 0.755231 0.509807 -0.451093
N5    N     N_2   0.874368 0.265430 0.404386 -0.506895
N6    N     N_2   0.125663 0.734561 0.595658 -0.506883
O1    O     O_R   0.319640 0.618740 0.499990 -0.459538
O2    O     O_R   0.680360 0.381260 0.500010 -0.459591
O3    O     O_R   0.680360 0.618740 0.500010 -0.448346
O4    O     O_R   0.319640 0.381260 0.499990 -0.448289
O5    O     O_R   0.499970 0.618770 0.316850 -0.462408
O6    O     O_R   0.500030 0.381230 0.683150 -0.462396
O7    O     O_R   0.500030 0.618770 0.683150 -0.466649
O8    O     O_R   0.499970 0.381230 0.316850 -0.466675

loop_
_geom_bond_atom_site_label_1
_geom_bond_atom_site_label_2
_ccdc_geom_bond_type
C20   O4    A    
C7    C10   A    
C4    C26   S    
C11   C12   A    
C19   H13   S    
C22   O5    A    
C1    C21   S    
Cu2   O4    S    
C1    C14   A    
C17   H4    S    
C19   N6    S    
C15   N6    S    
Cu1   O1    S    
Cu1   Cu2   S    
C5    C23   S    
C12   C15   A    
C9    Cl3   S    
C17   N4    S    
Cu2   O8    S    
H7    N5    S    
C12   C20   S    
C26   H18   S    
C2    C3    S    
C21   O2    A    
C19   H14   S    
C6    C24   S    
C9    N2    A    
C17   H5    S    
Cu1   O7    S    
C10   N1    A    
C22   O8    A    
C3    C24   S    
C2    C6    S    
C7    N2    A    
H3    N4    S    
C5    C25   S    
H11   N6    S    
C8    N1    A    
C4    C6    S    
C24   C26   S    
C4    C25   S    
C2    C25   S    
C19   H15   S    
C16   N3    S    
C18   H10   S    
C13   C15   A    
C8    Cl2   S    
C11   C14   A    
C16   H22   S    
C21   O3    A    
Cu1   N1    S    
C1    C13   A    
H20   N3    S    
C3    H1    S    
Cu2   O2    S    
C5    C26   S    
C24   H16   S    
Cu1   O3    S    
C18   N5    S    
C7    Cl1   S    
C17   H6    S    
C23   O6    A    
Cu2   O6    S    
C2    H19   S    
C18   H9    S    
C23   O7    A    
C20   O1    A    
Cu1   O5    S    
C10   Cl4   S    
C16   H21   S    
C18   H8    S    
C13   N4    S    
C4    H12   S    
C16   H2    S    
C11   N3    S    
Cu2   N2    S    
C14   N5    S    
C8    C9    A    
C3    C5    S    
C25   H17   S    
C6    C22   S    
