data_mof_unit_17979.cif
_audit_creation_date              2012-12-11T15:54:46-0500
_audit_creation_method            fapswitch 2.2
_symmetry_space_group_name_H-M    P1
_symmetry_Int_Tables_number       1
_space_group_crystal_system       triclinic
_cell_length_a                    6.974027
_cell_length_b                    14.661738
_cell_length_c                    16.020777
_cell_angle_alpha                 90.196027
_cell_angle_beta                  89.98915
_cell_angle_gamma                 90.496576
_cell_volume                      1638.07505097

loop_
_atom_site_label
_atom_site_type_symbol
_atom_type_description
_atom_site_fract_x
_atom_site_fract_y
_atom_site_fract_z
_atom_type_partial_charge
O1    O     O_R   0.638180 0.333920 0.163320 -0.543403
O2    O     O_R   0.361820 0.666080 0.836680 -0.550305
O3    O     O_R   0.308470 0.344960 0.336080 -0.565250
O4    O     O_R   0.691530 0.655040 0.663920 -0.511186
O5    O     O_R   0.138140 0.166110 0.336680 -0.550848
O6    O     O_R   0.861860 0.833890 0.663320 -0.512122
C1    C     C_R   0.477854 0.367090 0.364820 0.682778
C2    C     C_R   0.522650 0.633083 0.635120 0.771085
O7    O     O_R   0.308460 0.344950 0.163930 -0.517987
O8    O     O_R   0.691540 0.655050 0.836070 -0.517530
O9    O     O_R   0.138140 0.166100 0.163310 -0.510117
O10   O     O_R   0.861860 0.833900 0.836690 -0.515002
C3    C     C_R   0.477541 0.368167 0.136122 0.748049
C4    C     C_R   0.523053 0.632943 0.865034 0.737110
O11   O     O_R   0.638180 0.333930 0.336700 -0.528967
O12   O     O_R   0.361820 0.666070 0.663300 -0.561678
O13   O     O_3   0.471670 0.191340 0.250000 -0.364385
O14   O     O_3   0.528330 0.808660 0.750000 -0.363672
V1    V     V_3+5 0.196830 0.260900 0.250000 1.442984
V2    V     V_3+5 0.803170 0.739100 0.750000 1.534921
O15   O     O_R   0.808420 0.155070 0.163920 -0.545426
O16   O     O_R   0.191580 0.844930 0.836080 -0.551624
C5    C     C_R   0.977532 0.131898 0.136170 0.736848
C6    C     C_R   0.022092 0.867362 0.864874 0.697775
O17   O     O_R   0.808420 0.155080 0.336070 -0.532014
O18   O     O_R   0.191580 0.844920 0.663930 -0.557272
C7    C     C_R   0.975950 0.134794 0.366011 0.761193
C8    C     C_R   0.023121 0.865190 0.633792 0.755344
V3    V     V_3+5 0.696830 0.239130 0.250000 1.463678
V4    V     V_3+5 0.303170 0.760870 0.750000 1.430009
O19   O     O_3   0.971850 0.308690 0.250010 -0.383344
O20   O     O_3   0.028150 0.691310 0.749990 -0.371153
C9    C     C_R   0.020056 0.187465 0.543818 0.365916
C10   C     C_R   0.886903 0.814538 0.461460 0.372649
C11   C     C_R   0.085084 0.212197 0.624730 0.097592
C12   C     C_R   0.825209 0.792439 0.380192 0.091245
C13   C     C_R   0.148589 0.145859 0.680434 0.425292
C14   C     C_R   0.835428 0.856894 0.316620 0.410617
C15   C     C_R   0.130576 0.053442 0.658354 -0.308488
C16   C     C_R   0.890770 0.946161 0.335368 -0.298236
C17   C     C_R   0.056908 0.025883 0.580012 -0.041496
C18   C     C_R   0.941027 0.973087 0.417417 -0.051720
C19   C     C_R   0.020588 0.093829 0.518867 -0.052015
C20   C     C_R   0.946184 0.905980 0.482045 -0.072113
C21   C     C_R   0.012643 0.932386 0.563561 -0.088306
C22   C     C_R   0.980114 0.066443 0.435242 -0.072966
H1    H     H_    0.175422 0.003428 0.703130 0.144171
H2    H     H_    0.888242 0.994473 0.284588 0.126736
C23   C     C_R   0.174362 0.967053 0.974180 -0.353982
C24   C     C_R   0.822199 0.031114 0.029108 -0.297052
H3    H     H_    0.311286 0.947585 0.950605 0.217285
H4    H     H_    0.684324 0.056954 0.047821 0.214458
C25   C     C_R   0.166801 0.024561 0.043960 0.473943
C26   C     C_R   0.829321 0.964915 0.965901 0.493323
C27   C     C_R   0.989390 0.061807 0.069151 -0.227621
C28   C     C_R   0.008146 0.934656 0.934974 -0.230312
C29   C     C_R   0.557767 0.410142 0.512445 -0.247889
C30   C     C_R   0.451968 0.590878 0.486827 -0.156934
H5    H     H_    0.598249 0.340051 0.523242 0.175061
H6    H     H_    0.419751 0.661562 0.474881 0.128767
C31   C     C_R   0.568835 0.473528 0.578865 0.182438
C32   C     C_R   0.434416 0.527450 0.421365 0.213719
C33   C     C_R   0.513569 0.564604 0.566405 -0.074957
C34   C     C_R   0.489458 0.435881 0.433445 -0.126658
C35   C     C_R   0.321949 0.480077 0.036095 0.510599
C36   C     C_R   0.681829 0.530749 0.973588 0.524304
C37   C     C_R   0.337004 0.536236 0.965557 -0.298510
C38   C     C_R   0.666083 0.463786 0.035557 -0.288554
H7    H     H_    0.208845 0.559623 0.935697 0.219142
H8    H     H_    0.795231 0.433879 0.059787 0.217814
C39   C     C_R   0.515020 0.565215 0.934761 -0.239445
C40   C     C_R   0.487632 0.438096 0.068691 -0.244740
O21   O     O_3   0.773285 0.833532 0.237322 -0.555843
C41   C     C_3   0.932672 0.831482 0.183312 -0.302117
H9    H     H_    0.052365 0.790288 0.209087 0.134623
H10   H     H_    0.982116 0.901610 0.168743 0.141284
H11   H     H_    0.888395 0.799139 0.123848 0.149948
O22   O     O_3   0.231490 0.175610 0.754947 -0.551073
C42   C     C_3   0.175494 0.121653 0.823549 -0.198196
H12   H     H_    0.268538 0.060841 0.827888 0.156456
H13   H     H_    0.021002 0.101753 0.821142 0.127029
H14   H     H_    0.197286 0.162042 0.881507 0.175888
O23   O     O_3   0.920669 0.249636 0.495053 -0.567272
C43   C     C_3   0.028446 0.329746 0.479664 -0.151183
H15   H     H_    0.185795 0.319763 0.485231 0.120748
H16   H     H_    0.981677 0.385361 0.521874 0.161031
H17   H     H_    0.996388 0.352998 0.415554 0.166542
O24   O     O_3   0.869929 0.747484 0.521400 -0.544266
C44   C     C_3   0.031453 0.690723 0.516827 -0.166807
H18   H     H_    0.164680 0.730857 0.528096 0.094790
H19   H     H_    0.039968 0.654144 0.456075 0.149271
H20   H     H_    0.020185 0.638380 0.566425 0.165753
N1    N     N_3   0.077585 0.305152 0.652407 -0.675483
H21   H     H_    0.994888 0.307913 0.706802 0.257428
H22   H     H_    0.216737 0.326819 0.667104 0.250623
N2    N     N_3   0.751882 0.702761 0.362746 -0.631614
H23   H     H_    0.613189 0.709199 0.338874 0.265209
H24   H     H_    0.837240 0.673269 0.316446 0.230558
O25   O     O_3   0.336129 0.046049 0.084533 -0.550636
C45   C     C_3   0.354162 0.989021 0.155075 -0.189779
H25   H     H_    0.329052 0.915784 0.139798 0.097865
H26   H     H_    0.254566 0.009688 0.205681 0.125534
H27   H     H_    0.502315 0.995761 0.179710 0.175868
O26   O     O_3   0.659384 0.929827 0.935194 -0.545213
C46   C     C_3   0.607603 0.854461 0.985218 -0.215498
H28   H     H_    0.559408 0.877150 0.047614 0.149455
H29   H     H_    0.727261 0.807012 0.993189 0.090349
H30   H     H_    0.489525 0.815836 0.954635 0.143120
N3    N     N_3   0.634937 0.445223 0.659181 -0.673664
H31   H     H_    0.550182 0.390135 0.678658 0.235714
H32   H     H_    0.775263 0.422223 0.652262 0.253685
N4    N     N_3   0.359853 0.557974 0.343263 -0.701979
H33   H     H_    0.455786 0.540186 0.295872 0.212284
H34   H     H_    0.229864 0.523837 0.333243 0.213080
O27   O     O_3   0.143061 0.466456 0.071128 -0.537713
C47   C     C_3   0.123613 0.523448 0.142295 -0.232153
H35   H     H_    0.212437 0.587131 0.140371 0.096450
H36   H     H_    0.157986 0.485443 0.199598 0.157311
H37   H     H_    0.971607 0.544071 0.148128 0.145809
O28   O     O_3   0.862645 0.561952 0.952886 -0.534203
C48   C     C_3   0.898764 0.645901 0.994303 -0.241834
H38   H     H_    0.036787 0.643522 0.027499 0.141815
H39   H     H_    0.788668 0.665903 0.041393 0.087038
H40   H     H_    0.918456 0.699852 0.947106 0.152402

loop_
_geom_bond_atom_site_label_1
_geom_bond_atom_site_label_2
_ccdc_geom_bond_type
C30   C32   A    
C36   C38   A    
N1    H21   S    
C35   O27   S    
C4    C39   S    
C43   H17   S    
C6    C28   S    
O4    C2    A    
V1    O19   S    
N4    H34   S    
C15   C17   A    
C25   O25   S    
C46   H29   S    
O9    V1    S    
C24   C26   A    
C41   H10   S    
C26   O26   S    
C11   C13   A    
C43   H16   S    
O3    C1    A    
N3    H32   S    
C18   C22   A    
C29   H5    S    
C37   C39   A    
C30   H6    S    
O27   C47   S    
O13   V3    S    
C47   H35   S    
O21   C41   S    
C31   C33   A    
O7    C3    A    
O26   C46   S    
C48   H40   S    
C32   C34   A    
C9    C11   A    
O5    C7    A    
O7    V1    S    
O6    C8    A    
O23   C43   S    
O8    V2    S    
C35   C37   A    
C41   H11   S    
N2    H24   S    
C24   H4    S    
O3    V1    S    
O14   V4    S    
C44   H19   S    
C10   C12   A    
C11   N1    S    
C31   N3    S    
C2    O12   A    
C36   O28   S    
C17   C19   A    
C18   C20   A    
C45   H26   S    
N4    H33   S    
O11   V3    S    
C25   C27   A    
O17   V3    S    
C13   C15   A    
C46   H30   S    
C26   C28   A    
C8    C21   S    
C41   H9    S    
C9    C19   A    
C10   C20   A    
C43   H15   S    
O8    C4    A    
C42   H13   S    
O22   C42   S    
C1    O11   A    
C23   H3    S    
O15   V3    S    
C45   H27   S    
C37   H7    S    
V4    O20   S    
C12   N2    S    
C36   C39   A    
C38   C40   A    
N2    H23   S    
O10   V2    S    
O1    V3    S    
C10   O24   S    
C44   H20   S    
C5    C27   S    
C9    O23   S    
C48   H38   S    
C7    C22   S    
C38   H8    S    
O18   V4    S    
O15   C5    A    
O16   C6    A    
O1    C3    A    
C23   C28   A    
O28   C48   S    
C29   C34   A    
C15   H1    S    
V2    O20   S    
C30   C33   A    
C16   H2    S    
O16   V4    S    
C20   C21   A    
C16   C18   A    
C42   H14   S    
C47   H37   S    
C29   C31   A    
O5    V1    S    
C3    C40   S    
O17   C7    A    
C35   C40   A    
O6    V2    S    
C46   H28   S    
O10   C6    A    
O18   C8    A    
C24   C27   A    
O25   C45   S    
O2    V4    S    
C12   C14   A    
V3    O19   S    
N3    H31   S    
C14   C16   A    
C23   C25   A    
O9    C5    A    
C45   H25   S    
O13   V1    S    
C47   H36   S    
O14   V2    S    
O2    C4    A    
C19   C22   A    
C1    C34   S    
C48   H39   S    
C2    C33   S    
C42   H12   S    
O4    V2    S    
C32   N4    S    
O24   C44   S    
N1    H22   S    
C17   C21   A    
C44   H18   S    
C13   O22   S    
O12   V4    S    
C14   O21   S    
