data_mof_unit_58676.cif
_audit_creation_date              2012-12-10T16:59:57-0500
_audit_creation_method            fapswitch 2.2
_symmetry_space_group_name_H-M    P1
_symmetry_Int_Tables_number       1
_space_group_crystal_system       triclinic
_cell_length_a                    23.503229
_cell_length_b                    10.917325
_cell_length_c                    9.710026
_cell_angle_alpha                 89.404906
_cell_angle_beta                  90.342762
_cell_angle_gamma                 90.005019
_cell_volume                      2491.33980543

loop_
_atom_site_label
_atom_site_type_symbol
_atom_type_description
_atom_site_fract_x
_atom_site_fract_y
_atom_site_fract_z
_atom_type_partial_charge
C1    C     C_R   0.505313 0.265955 0.500394 0.848960
C2    C     C_R   0.969754 0.283966 0.588848 0.331953
C3    C     C_R   0.029410 0.284256 0.600489 0.343738
C4    C     C_R   0.060138 0.394623 0.584002 -0.160809
C5    C     C_R   0.031023 0.504256 0.551241 -0.127216
C6    C     C_R   0.062267 0.614245 0.536542 -0.201700
C7    C     C_R   0.033158 0.726122 0.513038 0.429643
C8    C     C_R   0.973445 0.728473 0.508804 0.412488
C9    C     C_R   0.119715 0.400303 0.600201 0.690269
C10   C     C_R   0.122134 0.608310 0.547369 0.649926
C11   C     C_R   0.238412 0.585069 0.438639 0.425658
C12   C     C_R   0.391303 0.498812 0.499446 0.988091
C13   C     C_R   0.297928 0.592909 0.446309 0.297891
C14   C     C_R   0.329163 0.492694 0.496939 -0.339262
C15   C     C_R   0.301241 0.381291 0.523651 0.282434
C16   C     C_R   0.241504 0.375944 0.517272 0.350713
C17   C     C_R   0.209656 0.486564 0.505474 -0.055156
C18   C     C_R   0.765001 0.465463 0.406458 -0.217617
C19   C     C_R   0.705833 0.462864 0.395680 0.313662
C20   C     C_R   0.672110 0.509485 0.503568 -0.284339
C21   C     C_R   0.699544 0.563844 0.618336 0.308890
C22   C     C_R   0.759073 0.559804 0.630818 0.445803
C23   C     C_R   0.499625 0.734853 0.498818 0.810200
C24   C     C_R   0.791723 0.512377 0.523383 0.110949
C25   C     C_2   0.522375 0.932524 0.394611 0.322910
C26   C     C_2   0.494757 0.867309 0.493741 0.120258
C27   C     C_2   0.519173 0.067614 0.386807 0.346621
C28   C     C_2   0.520994 0.136252 0.502656 0.253820
C29   C     C_2   0.468188 0.426798 0.922618 0.385597
C30   C     C_2   0.466250 0.430831 0.078199 0.400267
C31   C     C_R   0.609165 0.501930 0.500375 0.843486
C32   C     C_R   0.881969 0.617799 0.520828 0.665476
C33   C     C_R   0.879694 0.400952 0.553651 0.595880
C34   C     C_R   0.939789 0.395178 0.562331 -0.137623
C35   C     C_R   0.970899 0.505697 0.544430 -0.117099
C36   C     C_R   0.941931 0.618434 0.524196 -0.191201
Cu1   Cu    Cu3+1 0.500010 0.500020 0.638630 1.059626
Cu2   Cu    Cu3+1 0.499990 0.499980 0.361370 1.053724
H1    H     H_    0.523367 0.564959 0.893711 0.162795
H2    H     H_    0.530371 0.549573 0.105602 0.158832
H3    H     H_    0.790672 0.429341 0.323951 0.201840
N1    N     N_R   0.852734 0.510444 0.533142 -0.444210
N2    N     N_R   0.149483 0.497011 0.545864 -0.441587
N3    N     N_2   0.499380 0.498660 0.846910 -0.332491
N4    N     N_2   0.499370 0.498630 0.153040 -0.336192
O1    O     O_R   0.500010 0.321960 0.617040 -0.504223
O2    O     O_2   0.847723 0.299109 0.566688 -0.469712
O3    O     O_2   0.146266 0.319045 0.683647 -0.407698
O4    O     O_2   0.152002 0.711399 0.571171 -0.436457
O5    O     O_R   0.499990 0.321920 0.382900 -0.536880
O6    O     O_R   0.417890 0.499980 0.617100 -0.542072
O7    O     O_R   0.417870 0.499940 0.382950 -0.512455
O8    O     O_R   0.500010 0.678080 0.617100 -0.562819
O9    O     O_R   0.499990 0.678040 0.382960 -0.575292
O10   O     O_R   0.582130 0.500060 0.617050 -0.553207
O11   O     O_R   0.582110 0.500020 0.382900 -0.541003
O12   O     O_2   0.852581 0.723088 0.504397 -0.471993
Cl1   Cl    Cl    0.934840 0.140803 0.609733 -0.419235
Cl2   Cl    Cl    0.677031 0.397525 0.245548 -0.647628
O13   O     O_3   0.668456 0.617555 0.722098 -0.544030
C37   C     C_3   0.659326 0.741650 0.686560 -0.185204
H4    H     H_    0.634024 0.784772 0.769062 0.178565
H5    H     H_    0.634586 0.751183 0.588880 0.134755
H6    H     H_    0.700273 0.792422 0.678592 0.188673
O14   O     O_3   0.785619 0.609618 0.744615 -0.540935
C38   C     C_3   0.788650 0.518985 0.848862 -0.190748
H7    H     H_    0.813954 0.438578 0.815312 0.163376
H8    H     H_    0.745499 0.489367 0.882109 0.199238
H9    H     H_    0.810487 0.558343 0.939805 0.190355
O15   O     O_3   0.556994 0.872899 0.301005 -0.616093
C39   C     C_3   0.527162 0.856568 0.175336 -0.136891
H10   H     H_    0.532741 0.936609 0.105781 0.196409
H11   H     H_    0.480861 0.838146 0.189037 0.174268
H12   H     H_    0.545571 0.776487 0.122257 0.159612
Cl3   Cl    Cl    0.443156 0.930525 0.604681 -0.531306
O16   O     O_3   0.513415 0.121300 0.257433 -0.549246
C40   C     C_3   0.567764 0.158821 0.211598 -0.189865
H13   H     H_    0.596872 0.079687 0.198392 0.172936
H14   H     H_    0.587847 0.224888 0.283198 0.177325
H15   H     H_    0.562885 0.205275 0.110067 0.207091
O17   O     O_3   0.539301 0.085792 0.626902 -0.530824
C41   C     C_3   0.598794 0.100390 0.636484 -0.313854
H16   H     H_    0.610987 0.198986 0.635190 0.159356
H17   H     H_    0.620928 0.050799 0.552677 0.150977
H18   H     H_    0.613527 0.060320 0.735902 0.205987
Cl4   Cl    Cl    0.423703 0.318529 0.842240 -0.373312
Cl5   Cl    Cl    0.416104 0.334520 0.159892 -0.401706
Cl6   Cl    Cl    0.065042 0.141835 0.622157 -0.366809
O18   O     O_3   0.062092 0.836048 0.499428 -0.471311
C42   C     C_3   0.079463 0.852189 0.361155 -0.117336
H19   H     H_    0.123246 0.817482 0.347706 0.224255
H20   H     H_    0.080244 0.951753 0.337212 0.211776
H21   H     H_    0.050936 0.807912 0.284093 0.059133
O19   O     O_3   0.946250 0.841013 0.502038 -0.470820
C43   C     C_3   0.936821 0.875545 0.363009 -0.062859
H22   H     H_    0.933588 0.796933 0.290791 0.083263
H23   H     H_    0.896017 0.926379 0.356252 0.216952
H24   H     H_    0.970599 0.939526 0.328657 0.161926
O20   O     O_3   0.209903 0.670294 0.357503 -0.542933
C44   C     C_3   0.191308 0.612922 0.235739 -0.234358
H25   H     H_    0.157374 0.544588 0.257509 0.155309
H26   H     H_    0.227271 0.569165 0.180599 0.195767
H27   H     H_    0.172895 0.683604 0.165788 0.189080
O21   O     O_3   0.326008 0.692416 0.389230 -0.566259
C45   C     C_3   0.320302 0.792886 0.478074 -0.079630
H28   H     H_    0.343857 0.871619 0.433313 0.225707
H29   H     H_    0.338922 0.772021 0.581366 0.163008
H30   H     H_    0.275177 0.821780 0.488328 0.222843
Cl7   Cl    Cl    0.341196 0.245615 0.549903 -0.387045
Cl8   Cl    Cl    0.211149 0.232911 0.472916 -0.409788

loop_
_geom_bond_atom_site_label_1
_geom_bond_atom_site_label_2
_ccdc_geom_bond_type
C38   H8    S    
C4    C9    A    
C24   N1    S    
C15   Cl7   S    
C30   N4    D    
C19   C20   A    
O17   C41   S    
C43   H24   S    
C16   Cl8   S    
C7    C8    A    
C40   H13   S    
C45   H29   S    
Cu1   Cu2   S    
C42   H21   S    
C18   C24   A    
C33   N1    A    
C32   C36   A    
C18   C19   A    
C5    C6    A    
Cu1   O6    S    
C1    O1    A    
C38   H9    S    
Cu2   O7    S    
C15   C16   A    
C7    O18   S    
C11   O20   S    
C34   C35   A    
C8    C36   A    
C23   C26   S    
C37   H5    S    
Cu2   N4    S    
C43   H22   S    
C16   C17   A    
C1    C28   S    
O15   C39   S    
C31   O11   A    
C1    O5    A    
Cu1   O8    S    
C2    C34   A    
C38   H7    S    
C10   N2    A    
C21   C22   A    
O19   C43   S    
C32   O12   S    
C30   Cl5   S    
O21   C45   S    
C12   O7    A    
C23   O8    A    
C40   H14   S    
H2    N4    S    
C28   O17   S    
C45   H30   S    
C9    N2    A    
C8    O19   S    
O16   C40   S    
C21   O13   S    
C18   H3    S    
C39   H11   S    
C19   Cl2   S    
C25   C26   D    
C44   H27   S    
O13   C37   S    
C35   C36   A    
C37   H6    S    
C17   N2    S    
C22   O14   S    
C29   C30   S    
C42   H20   S    
O20   C44   S    
Cu2   O9    S    
C44   H26   S    
C26   Cl3   S    
C13   O21   S    
C29   Cl4   S    
C6    C7    A    
C12   C14   S    
C41   H16   S    
C41   H17   S    
C29   N3    D    
C33   O2    S    
C22   C24   A    
C27   O16   S    
C12   O6    A    
C23   O9    A    
C40   H15   S    
C43   H23   S    
C11   C17   A    
C3    Cl6   S    
C4    C5    A    
C6    C10   A    
C39   H12   S    
C2    Cl1   S    
H1    N3    S    
Cu2   O5    S    
C25   C27   S    
C41   H18   S    
C45   H28   S    
Cu1   N3    S    
C2    C3    A    
O18   C42   S    
C39   H10   S    
C11   C13   A    
C42   H19   S    
C5    C35   A    
C44   H25   S    
C33   C34   A    
C37   H4    S    
Cu1   O10   S    
Cu2   O11   S    
C20   C21   A    
C9    O3    S    
O14   C38   S    
C27   C28   D    
C32   N1    A    
C14   C15   A    
C25   O15   S    
C31   O10   A    
Cu1   O1    S    
C13   C14   A    
C10   O4    S    
C3    C4    A    
C20   C31   S    
