data_mof_unit_44045.cif
_audit_creation_date              2012-10-26T19:48:07-0400
_audit_creation_method            fapswitch 2.2
_symmetry_space_group_name_H-M    P1
_symmetry_Int_Tables_number       1
_space_group_crystal_system       triclinic
_cell_length_a                    10.725966
_cell_length_b                    9.421709
_cell_length_c                    10.623302
_cell_angle_alpha                 90.208491
_cell_angle_beta                  89.99253
_cell_angle_gamma                 90.001294
_cell_volume                      1073.55117378

loop_
_atom_site_label
_atom_site_type_symbol
_atom_type_description
_atom_site_fract_x
_atom_site_fract_y
_atom_site_fract_z
_atom_type_partial_charge
C1    C     C_R   0.259679 0.500203 0.500217 0.549735
C2    C     C_3   0.927948 0.424989 0.380784 -0.233867
C3    C     C_3   0.612519 0.084021 0.566043 -0.104511
C4    C     C_3   0.612517 0.916509 0.566022 -0.104681
C5    C     C_3   0.390170 0.084024 0.569879 -0.104709
C6    C     C_3   0.390181 0.916522 0.569874 -0.104779
C7    C     C_3   0.498053 0.083096 0.373260 -0.103400
C8    C     C_3   0.498046 0.915994 0.373255 -0.101393
C9    C     C_R   0.499844 0.499666 0.259298 0.554953
C10   C     C_R   0.740080 0.500205 0.500167 0.549813
C11   C     C_R   0.499914 0.500327 0.740790 0.553308
C12   C     C_3   0.499859 0.498899 0.122410 0.048049
C13   C     C_3   0.397437 0.566967 0.042355 -0.128563
C14   C     C_3   0.499841 0.364837 0.040075 -0.115791
C15   C     C_3   0.397418 0.433049 0.957725 -0.127387
C16   C     C_3   0.499903 0.501065 0.877680 0.048395
C17   C     C_3   0.499920 0.635121 0.960019 -0.117376
C18   C     C_3   0.602326 0.432990 0.957734 -0.127293
C19   C     C_3   0.602342 0.566908 0.042363 -0.128520
C20   C     C_3   0.071232 0.655558 0.501901 -0.232148
C21   C     C_3   0.071820 0.423070 0.618459 -0.233919
C22   C     C_3   0.928535 0.655559 0.501848 -0.232246
C23   C     C_3   0.927880 0.423094 0.618453 -0.233908
C24   C     C_3   0.071862 0.425014 0.380788 -0.233871
C25   C     C_3   0.121717 0.500924 0.500351 0.057559
C26   C     C_3   0.878043 0.500926 0.500322 0.057553
Cu1   Cu    Cu3+1 0.499860 0.642410 0.500060 0.862205
Cu2   Cu    Cu3+1 0.499860 0.357590 0.500060 0.862723
H1    H     H_    0.313652 0.378469 0.919765 0.090670
H2    H     H_    0.414019 0.121684 0.322381 0.110186
H3    H     H_    0.413983 0.877090 0.322360 0.112157
H4    H     H_    0.580411 0.121502 0.319548 0.110306
H5    H     H_    0.580421 0.877251 0.319510 0.112613
H6    H     H_    0.302684 0.121056 0.524623 0.109859
H7    H     H_    0.302745 0.879222 0.524525 0.109183
H8    H     H_    0.313688 0.621607 0.080294 0.091023
H9    H     H_    0.499803 0.254122 0.075546 0.096770
H10   H     H_    0.499954 0.745835 0.924544 0.099478
H11   H     H_    0.686081 0.378362 0.919782 0.090761
H12   H     H_    0.893086 0.479538 0.294925 0.100896
H13   H     H_    0.686104 0.621499 0.080309 0.091076
H14   H     H_    0.105387 0.714343 0.417916 0.112006
H15   H     H_    0.106132 0.311578 0.619890 0.110394
H16   H     H_    0.105311 0.712765 0.587130 0.110126
H17   H     H_    0.106702 0.476221 0.705339 0.100338
H18   H     H_    0.894371 0.712823 0.587021 0.110179
H19   H     H_    0.892984 0.476287 0.705316 0.100385
H20   H     H_    0.894472 0.714286 0.417803 0.111751
H21   H     H_    0.893533 0.311613 0.619913 0.110395
H22   H     H_    0.106739 0.479608 0.294949 0.100853
H23   H     H_    0.893614 0.313543 0.377252 0.113907
H24   H     H_    0.106221 0.313580 0.377223 0.114070
H25   H     H_    0.618104 0.124139 0.664486 0.111001
H26   H     H_    0.618171 0.877100 0.664431 0.109471
H27   H     H_    0.698423 0.120946 0.517702 0.109917
H28   H     H_    0.698355 0.879327 0.517555 0.109120
H29   H     H_    0.387916 0.124041 0.668481 0.111588
H30   H     H_    0.387891 0.877234 0.668453 0.109743
N1    N     N_3   0.500250 0.143650 0.502780 -0.219663
N2    N     N_3   0.500250 0.856350 0.502780 -0.220114
O1    O     O_R   0.317570 0.620260 0.500070 -0.516532
O2    O     O_R   0.317570 0.379740 0.500070 -0.515956
O3    O     O_R   0.499850 0.620240 0.316900 -0.513863
O4    O     O_R   0.499850 0.379760 0.316900 -0.515388
O5    O     O_R   0.682190 0.620260 0.500030 -0.516409
O6    O     O_R   0.682190 0.379740 0.500030 -0.515870
O7    O     O_R   0.499910 0.620280 0.683200 -0.512187
O8    O     O_R   0.499910 0.379720 0.683200 -0.510174

loop_
_geom_bond_atom_site_label_1
_geom_bond_atom_site_label_2
_ccdc_geom_bond_type
C24   H24   S    
C20   H14   S    
C18   H11   S    
C24   C25   S    
C1    O1    A    
Cu1   O5    S    
C5    H29   S    
C9    O4    A    
C11   C16   S    
C14   C18   S    
C2    C24   S    
Cu2   O6    S    
C2    H12   S    
C14   C15   S    
C13   C17   S    
C8    H5    S    
C5    H6    S    
C4    N2    S    
C10   O6    A    
C12   C14   S    
C7    C8    S    
C2    C26   S    
C7    H2    S    
C9    O3    A    
C1    O2    A    
C14   H9    S    
C1    C25   S    
C12   C13   S    
C3    H25   S    
C10   C26   S    
Cu1   O3    S    
C15   C16   S    
Cu2   O4    S    
C12   C19   S    
C7    N1    S    
Cu2   O8    S    
C20   C22   S    
C22   H20   S    
C15   H1    S    
C21   H17   S    
Cu1   N2    S    
C13   C15   S    
C21   C23   S    
C24   H22   S    
C5    C6    S    
C9    C12   S    
C23   H21   S    
C20   H16   S    
C23   H19   S    
C2    H23   S    
C5    N1    S    
C22   C26   S    
C3    C4    S    
C22   H18   S    
C6    N2    S    
C4    H28   S    
Cu1   O7    S    
C6    H7    S    
C13   H8    S    
C16   C18   S    
C18   C19   S    
C20   C25   S    
Cu2   N1    S    
C17   H10   S    
Cu1   Cu2   S    
C23   C26   S    
C3    N1    S    
C11   O8    A    
C17   C19   S    
C21   C25   S    
C7    H4    S    
Cu1   O1    S    
C4    H26   S    
C21   H15   S    
C8    H3    S    
C3    H27   S    
C8    N2    S    
C19   H13   S    
C11   O7    A    
C16   C17   S    
C6    H30   S    
C10   O5    A    
Cu2   O2    S    
