data_mof_unit_54138.cif
_audit_creation_date              2012-12-11T17:25:11-0500
_audit_creation_method            fapswitch 2.2
_symmetry_space_group_name_H-M    P1
_symmetry_Int_Tables_number       1
_space_group_crystal_system       triclinic
_cell_length_a                    6.953682
_cell_length_b                    20.546918
_cell_length_c                    24.472067
_cell_angle_alpha                 90.121994
_cell_angle_beta                  90.496583
_cell_angle_gamma                 89.509317
_cell_volume                      3496.22208288

loop_
_atom_site_label
_atom_site_type_symbol
_atom_type_description
_atom_site_fract_x
_atom_site_fract_y
_atom_site_fract_z
_atom_type_partial_charge
O1    O     O_R   0.507280 0.423750 0.460310 -0.535515
O2    O     O_R   0.171030 0.555650 0.437630 -0.536840
O3    O     O_R   0.004080 0.576250 0.539690 -0.535574
C1    C     C_R   0.339045 0.575668 0.421775 0.724591
O4    O     O_R   0.177330 0.422980 0.453960 -0.538005
O5    O     O_R   0.010420 0.442640 0.556140 -0.535320
C2    C     C_R   0.346091 0.399053 0.443319 0.705792
O6    O     O_R   0.500930 0.557360 0.443860 -0.535188
O7    O     O_3   0.340310 0.506600 0.533500 -0.366963
V1    V     V_3+5 0.064140 0.498780 0.493780 1.424958
O8    O     O_R   0.680890 0.444350 0.562370 -0.537656
C3    C     C_R   0.850589 0.424383 0.578134 0.725478
O9    O     O_R   0.674590 0.577020 0.546040 -0.537561
C4    C     C_R   0.842818 0.600805 0.556921 0.705317
V2    V     V_3+5 0.564550 0.501220 0.506220 1.425268
O10   O     O_3   0.838250 0.493400 0.466500 -0.366979
C5    C     C_R   0.976280 0.836892 0.912420 -0.067393
C6    C     C_R   0.847626 0.661644 0.589060 -0.085009
C7    C     C_R   0.038860 0.720920 0.905844 -0.187016
C8    C     C_R   0.030742 0.777685 0.937498 0.074647
C9    C     C_R   0.931300 0.838021 0.856213 -0.245017
C10   C     C_R   0.942123 0.780749 0.823390 0.085960
C11   C     C_R   0.996728 0.722020 0.849688 0.115468
C12   C     C_R   0.903225 0.779673 0.765509 0.067017
C13   C     C_R   0.919637 0.719907 0.735265 0.069679
C14   C     C_R   0.974037 0.663101 0.764072 -0.184123
C15   C     C_R   0.011144 0.664333 0.819868 -0.196133
C16   C     C_R   0.849109 0.836374 0.736877 -0.195017
C17   C     C_R   0.811749 0.835368 0.681136 -0.197041
C18   C     C_R   0.825330 0.777731 0.650555 0.122082
C19   C     C_R   0.880574 0.718855 0.677335 0.052571
C20   C     C_R   0.782745 0.777859 0.593592 0.174718
C21   C     C_R   0.793049 0.719674 0.563899 -0.161088
C22   C     C_R   0.892184 0.661124 0.645063 -0.222719
H1    H     H_    0.052922 0.619313 0.839930 0.123025
H2    H     H_    0.930890 0.614522 0.662104 0.102302
H3    H     H_    0.757096 0.719262 0.520690 0.108730
H4    H     H_    0.770598 0.881047 0.662316 0.139517
H5    H     H_    0.079931 0.675348 0.925155 0.110530
H6    H     H_    0.893008 0.884781 0.839350 0.102750
H7    H     H_    0.990089 0.616308 0.744781 0.122408
H8    H     H_    0.833444 0.883066 0.756409 0.124361
H9    H     H_    0.618940 0.206727 0.793669 0.111669
C23   C     C_R   0.729901 0.269935 0.731536 -0.155257
H10   H     H_    0.587923 0.284984 0.717764 0.111047
C24   C     C_R   0.894291 0.294853 0.706345 0.136681
C25   C     C_R   0.076591 0.274426 0.725016 -0.155883
H11   H     H_    0.205246 0.292999 0.706128 0.111685
C26   C     C_R   0.094286 0.229787 0.768259 -0.155476
H12   H     H_    0.236264 0.214743 0.782034 0.111063
C27   C     C_R   0.929897 0.204879 0.793457 0.136658
C28   C     C_R   0.747596 0.225296 0.774779 -0.155920
C29   C     C_1   0.876366 0.340937 0.661368 -0.060345
C30   C     C_1   0.947825 0.158844 0.838470 -0.060400
C31   C     C_1   0.961032 0.120652 0.876258 -0.192773
C32   C     C_1   0.863170 0.379179 0.623617 -0.191616
H13   H     H_    0.698607 0.699657 0.294364 0.112266
C33   C     C_R   0.596351 0.765839 0.232187 -0.160140
H14   H     H_    0.740224 0.777646 0.219068 0.109748
C34   C     C_R   0.435771 0.794849 0.206523 0.138503
C35   C     C_R   0.251086 0.778673 0.224787 -0.160344
H15   H     H_    0.125049 0.800600 0.205876 0.116509
C36   C     C_R   0.227284 0.734137 0.267780 -0.154178
H16   H     H_    0.083466 0.722523 0.281102 0.111335
C37   C     C_R   0.387855 0.705035 0.293362 0.135575
C38   C     C_R   0.572559 0.721329 0.275201 -0.152908
C39   C     C_1   0.459509 0.840813 0.161588 -0.067578
C40   C     C_1   0.364184 0.659082 0.338310 -0.059997
C41   C     C_1   0.348904 0.620919 0.376093 -0.192038
C42   C     C_1   0.475107 0.878995 0.123835 -0.191940
C43   C     C_R   0.473145 0.161456 0.089279 -0.043985
C44   C     C_R   0.351585 0.338033 0.411538 -0.085140
C45   C     C_R   0.538400 0.276545 0.095760 -0.160664
C46   C     C_R   0.528552 0.219646 0.064993 -0.167644
C47   C     C_R   0.428244 0.160404 0.145201 -0.213629
C48   C     C_R   0.440905 0.217738 0.177986 0.085664
C49   C     C_R   0.496615 0.276068 0.151768 0.139072
C50   C     C_R   0.403148 0.219225 0.235677 0.059793
C51   C     C_R   0.421305 0.278906 0.265862 0.070882
C52   C     C_R   0.476621 0.335235 0.237193 -0.185090
C53   C     C_R   0.512892 0.333651 0.181535 -0.204092
C54   C     C_R   0.348735 0.162970 0.264174 -0.194284
C55   C     C_R   0.312546 0.164335 0.319780 -0.195944
C56   C     C_R   0.327474 0.221933 0.350301 0.122022
C57   C     C_R   0.383120 0.280342 0.323614 0.053330
C58   C     C_R   0.285662 0.222265 0.407092 0.174305
C59   C     C_R   0.296760 0.280482 0.436656 -0.161187
C60   C     C_R   0.395711 0.338070 0.355768 -0.223173
H17   H     H_    0.555575 0.378247 0.161552 0.123561
H18   H     H_    0.434275 0.384381 0.338766 0.102708
H19   H     H_    0.261031 0.281326 0.479702 0.108812
H20   H     H_    0.271099 0.119000 0.338526 0.139398
H21   H     H_    0.581790 0.321050 0.075801 0.113366
H22   H     H_    0.565655 0.220880 0.022095 0.107672
H23   H     H_    0.389037 0.113910 0.161785 0.095157
H24   H     H_    0.494311 0.381899 0.256500 0.123320
H25   H     H_    0.332065 0.116368 0.244634 0.124441
O11   O     O_R   0.323320 0.942780 0.056240 -0.537010
O12   O     O_R   0.647300 0.077050 0.046060 -0.536986
O13   O     O_R   0.813840 0.057330 0.943840 -0.534308
C61   C     C_R   0.478625 0.101009 0.056770 0.698537
O14   O     O_R   0.653250 0.944380 0.062400 -0.536186
O15   O     O_R   0.819830 0.923720 0.960300 -0.540403
C62   C     C_R   0.485200 0.924303 0.078209 0.716658
O16   O     O_R   0.317330 0.076390 0.039790 -0.535530
O17   O     O_3   0.483830 0.993470 0.966560 -0.366988
V3    V     V_3+5 0.760140 0.001210 0.006210 1.418711
O18   O     O_R   0.149290 0.922840 0.953850 -0.541267
C63   C     C_R   0.981134 0.898656 0.943594 0.698956
O19   O     O_R   0.143340 0.055500 0.937510 -0.536822
C64   C     C_R   0.973643 0.075504 0.921781 0.728503
V4    V     V_3+5 0.259690 0.998600 0.993650 1.416975
O20   O     O_3   0.986130 0.006520 0.033440 -0.364548
C65   C     C_3   0.723348 0.839063 0.563574 -0.809982
H26   H     H_    0.696121 0.829843 0.519444 0.211440
H27   H     H_    0.588716 0.859093 0.581265 0.211633
H28   H     H_    0.839255 0.875741 0.566806 0.209346
C66   C     C_3   0.225988 0.161579 0.437023 -0.809881
H29   H     H_    0.199533 0.171131 0.481033 0.211364
H30   H     H_    0.090857 0.142456 0.418875 0.211819
H31   H     H_    0.341413 0.124067 0.434302 0.209311
C67   C     C_3   0.081928 0.773790 0.997742 -0.379103
C68   C     C_3   0.900725 0.774453 0.033018 -0.299143
C69   C     C_3   0.952473 0.775720 0.093699 -0.765207
H32   H     H_    0.043111 0.732842 0.104664 0.230074
H33   H     H_    0.031363 0.821004 0.103893 0.232114
H34   H     H_    0.818987 0.774408 0.118150 0.218129
H35   H     H_    0.810191 0.817809 0.023579 0.199777
H36   H     H_    0.814696 0.730255 0.024119 0.193123
H37   H     H_    0.164565 0.728323 0.006433 0.170547
H38   H     H_    0.177894 0.814590 0.009326 0.180717

loop_
_geom_bond_atom_site_label_1
_geom_bond_atom_site_label_2
_ccdc_geom_bond_type
C13   C19   A    
C43   C47   A    
C36   C37   A    
C59   H19   S    
C45   C46   A    
C4    C6    S    
O2    C1    A    
C7    C8    A    
C45   H21   S    
H13   C38   S    
C1    O6    A    
C26   H12   S    
C65   H26   S    
C47   H23   S    
C68   C69   S    
C25   C26   A    
O17   V4    S    
C55   H20   S    
C14   C15   A    
C16   C17   A    
C56   C58   A    
O5    C3    A    
C18   C19   A    
C42   C62   S    
H9    C28   S    
C29   C32   T    
O17   V3    S    
C33   C34   A    
V2    O10   S    
C5    C8    A    
O18   C63   A    
C35   C36   A    
C46   H22   S    
O19   C64   A    
C1    C41   S    
C66   H29   S    
O8    V2    S    
C33   C38   A    
V3    O20   S    
C25   H11   S    
C34   C39   S    
C40   C41   T    
C26   C27   A    
C17   H4    S    
O1    V2    S    
C11   C15   A    
C52   H24   S    
O7    V1    S    
C8    C67   S    
C53   H17   S    
C23   C28   A    
C43   C61   S    
O1    C2    A    
O9    C4    A    
C68   H36   S    
V4    O20   S    
C44   C60   A    
C23   C24   A    
O19   V4    S    
C48   C49   A    
C61   O16   A    
O11   V4    S    
C27   C28   A    
C12   C13   A    
C2    C44   S    
O4    C2    A    
C50   C51   A    
C15   H1    S    
C13   C14   A    
C21   H3    S    
O18   V4    S    
C34   C35   A    
C66   H31   S    
C7    C11   A    
C47   C48   A    
C17   C18   A    
C50   C54   A    
C55   C56   A    
C49   C53   A    
C37   C40   S    
C19   C22   A    
O14   V3    S    
C58   C66   S    
C56   C57   A    
O14   C62   A    
C6    C22   A    
C3    C32   S    
O3    C4    A    
C7    H5    S    
C69   H34   S    
O12   C61   A    
O16   V4    S    
C60   H18   S    
C37   C38   A    
O6    V2    S    
O9    V2    S    
C54   H25   S    
C10   C12   A    
C51   C52   A    
O2    V1    S    
C67   H38   S    
C51   C57   A    
C44   C59   A    
C23   H10   S    
C69   H33   S    
C57   C60   A    
C30   C31   T    
C24   C25   A    
O13   V3    S    
C31   C64   S    
C58   C59   A    
C12   C16   A    
C48   C50   A    
C52   C53   A    
C5    C63   S    
O5    V1    S    
C43   C46   A    
C65   H27   S    
O8    C3    A    
O12   V3    S    
O15   C63   A    
C39   C42   T    
C20   C21   A    
C27   C30   S    
C33   H14   S    
O4    V1    S    
O3    V1    S    
V1    O10   S    
C18   C20   A    
C68   H35   S    
C9    H6    S    
O11   C62   A    
C24   C29   S    
C16   H8    S    
C22   H2    S    
O7    V2    S    
C35   H15   S    
C6    C21   A    
C66   H30   S    
C65   H28   S    
C36   H16   S    
O13   C64   A    
C54   C55   A    
C45   C49   A    
C10   C11   A    
O15   V3    S    
C20   C65   S    
C67   C68   S    
C9    C10   A    
C67   H37   S    
C14   H7    S    
C69   H32   S    
C5    C9    A    
