data_mof_unit_44126.cif
_audit_creation_date              2012-12-10T20:34:54-0500
_audit_creation_method            fapswitch 2.2
_symmetry_space_group_name_H-M    P1
_symmetry_Int_Tables_number       1
_space_group_crystal_system       triclinic
_cell_length_a                    10.901637
_cell_length_b                    10.847704
_cell_length_c                    10.082171
_cell_angle_alpha                 91.882998
_cell_angle_beta                  87.766815
_cell_angle_gamma                 90.080753
_cell_volume                      1190.74579148

loop_
_atom_site_label
_atom_site_type_symbol
_atom_type_description
_atom_site_fract_x
_atom_site_fract_y
_atom_site_fract_z
_atom_type_partial_charge
C1    C     C_R   0.508747 0.260815 0.497855 0.856352
C2    C     C_R   0.519760 0.941016 0.614960 0.210549
C3    C     C_3   0.416648 0.951560 0.715171 -0.540763
C4    C     C_R   0.257589 0.510260 0.502161 0.778580
C5    C     C_3   0.442461 0.086241 0.726633 -0.513231
C6    C     C_R   0.463750 0.398085 0.068303 0.134929
C7    C     C_R   0.551817 0.591113 0.077008 -0.165928
C8    C     C_R   0.544530 0.598723 0.936662 0.020636
C9    C     C_R   0.463722 0.398244 0.927195 0.163398
C10   C     C_3   0.340416 0.338257 0.927765 -0.520149
C11   C     C_3   0.342407 0.334373 0.078392 -0.060914
C12   C     C_3   0.876793 0.502283 0.484807 0.093211
C13   C     C_R   0.502996 0.739762 0.500435 0.853318
C14   C     C_R   0.741218 0.496913 0.495554 0.824749
C15   C     C_3   0.066872 0.398877 0.579334 -0.051780
C16   C     C_3   0.924522 0.402274 0.579317 -0.444301
C17   C     C_3   0.054053 0.632844 0.560973 -0.193922
C18   C     C_3   0.077767 0.493757 0.350450 -0.120621
C19   C     C_3   0.118277 0.511082 0.500828 0.004825
C20   C     C_R   0.887263 0.745873 0.432047 0.117828
C21   C     C_R   0.919108 0.866307 0.476040 -0.190332
C22   C     C_R   0.890669 0.970244 0.404520 -0.123808
C23   C     C_3   0.916438 0.636816 0.523960 -0.165454
C24   C     C_R   0.836443 0.956743 0.282735 -0.091348
C25   C     C_R   0.802814 0.840051 0.236944 -0.183512
C26   C     C_R   0.822994 0.736937 0.312503 -0.118986
C27   C     C_3   0.117350 0.274630 0.517987 -0.411306
C28   C     C_3   0.106456 0.165564 0.608373 -0.367354
C29   C     C_3   0.163680 0.053620 0.533724 -0.936189
C30   C     C_R   0.586617 0.722979 0.892628 0.141791
C31   C     C_R   0.685967 0.733256 0.803898 -0.097277
C32   C     C_R   0.744876 0.846368 0.784574 -0.154242
C33   C     C_R   0.711148 0.950476 0.861315 -0.100542
C34   C     C_3   0.937760 0.467194 0.346449 -0.438127
C35   C     C_R   0.617439 0.941633 0.957524 -0.163620
C36   C     C_R   0.555836 0.829789 0.972909 -0.271924
C37   C     C_3   0.348769 0.203724 0.133909 -0.357988
C38   C     C_3   0.245197 0.116207 0.090686 -0.342388
C39   C     C_3   0.117109 0.172884 0.106902 -0.879812
C40   C     C_R   0.069140 0.669885 0.708109 0.124710
C41   C     C_R   0.980241 0.643410 0.809374 -0.214569
C42   C     C_R   0.960647 0.724004 0.919247 -0.106480
C43   C     C_R   0.030525 0.831009 0.931428 -0.067564
C44   C     C_R   0.126786 0.851433 0.839632 -0.184149
C45   C     C_R   0.533123 0.067806 0.614589 0.154003
C46   C     C_R   0.149757 0.766976 0.733578 -0.189361
C47   C     C_R   0.123350 0.588037 0.247440 0.162929
C48   C     C_R   0.111170 0.552766 0.113126 -0.248697
C49   C     C_R   0.185383 0.605619 0.014669 -0.084736
C50   C     C_R   0.260766 0.704793 0.044428 -0.093009
C51   C     C_R   0.264747 0.750638 0.173960 -0.160393
C52   C     C_R   0.200915 0.690888 0.274995 -0.034571
C53   C     C_R   0.532918 0.129236 0.495111 -0.124063
C54   C     C_R   0.547000 0.060527 0.375415 -0.252372
C55   C     C_R   0.539946 0.932148 0.376534 -0.193674
C56   C     C_R   0.519481 0.872158 0.497414 -0.120076
H1    H     H_    0.096080 0.407981 0.683827 0.158600
H2    H     H_    0.594004 0.663090 0.136364 0.149127
H3    H     H_    0.268071 0.396300 0.889358 0.179571
H4    H     H_    0.341126 0.247145 0.880239 0.199747
H5    H     H_    0.272670 0.391856 0.131795 0.190990
H6    H     H_    0.887641 0.310804 0.546828 0.158363
H7    H     H_    0.885995 0.413532 0.681688 0.160089
H8    H     H_    0.860821 0.662825 0.612102 0.123427
H9    H     H_    0.122174 0.407639 0.310804 0.136427
H10   H     H_    0.922337 0.367315 0.324069 0.148116
H11   H     H_    0.965280 0.880349 0.567752 0.138912
H12   H     H_    0.898609 0.509723 0.260711 0.171928
H13   H     H_    0.911185 0.061759 0.442899 0.132130
H14   H     H_    0.816932 0.036875 0.225900 0.115693
H15   H     H_    0.756329 0.829715 0.144710 0.140072
H16   H     H_    0.782826 0.654596 0.274688 0.148561
H17   H     H_    0.263375 0.067691 0.514474 0.268578
H18   H     H_    0.147611 0.971191 0.592264 0.252104
H19   H     H_    0.123747 0.037776 0.435280 0.272610
H20   H     H_    0.155019 0.185079 0.701524 0.219315
H21   H     H_    0.008607 0.146442 0.634858 0.218757
H22   H     H_    0.066978 0.249280 0.427945 0.199510
H23   H     H_    0.095019 0.709209 0.508441 0.120514
H24   H     H_    0.215810 0.283320 0.487347 0.211527
H25   H     H_    0.725395 0.651111 0.762604 0.151426
H26   H     H_    0.823135 0.851613 0.718101 0.139806
H27   H     H_    0.759963 0.036538 0.848888 0.116972
H28   H     H_    0.593362 0.020644 0.021295 0.118027
H29   H     H_    0.486891 0.826396 0.051774 0.127395
H30   H     H_    0.100134 0.208096 0.209940 0.244073
H31   H     H_    0.106534 0.248894 0.037251 0.256116
H32   H     H_    0.046960 0.101831 0.084856 0.235347
H33   H     H_    0.262062 0.084880 0.985934 0.213023
H34   H     H_    0.556193 0.105343 0.281404 0.154724
H35   H     H_    0.247640 0.032859 0.151591 0.206637
H36   H     H_    0.437628 0.159932 0.102606 0.153145
H37   H     H_    0.344169 0.212165 0.243925 0.215325
H38   H     H_    0.918586 0.567262 0.800941 0.121313
H39   H     H_    0.889310 0.704376 0.993091 0.131519
H40   H     H_    0.013637 0.894543 0.014913 0.131991
H41   H     H_    0.183985 0.931845 0.851411 0.139496
H42   H     H_    0.223092 0.781091 0.661635 0.115427
H43   H     H_    0.055033 0.474292 0.085586 0.123212
H44   H     H_    0.182461 0.571929 0.913494 0.150747
H45   H     H_    0.544852 0.880941 0.282634 0.163810
H46   H     H_    0.314228 0.746685 0.965720 0.133089
H47   H     H_    0.323845 0.827495 0.198393 0.111437
H48   H     H_    0.229240 0.718886 0.371768 0.090211
H49   H     H_    0.329829 0.936051 0.668172 0.196283
H50   H     H_    0.424313 0.901183 0.806019 0.237403
H51   H     H_    0.363354 0.142539 0.699350 0.215883
H52   H     H_    0.488364 0.114404 0.819227 0.212612
N1    N     N_R   0.499150 0.499140 0.142800 -0.121956
N2    N     N_R   0.499150 0.499180 0.857150 -0.129316
O1    O     O_R   0.500020 0.316790 0.614690 -0.608408
O2    O     O_R   0.500000 0.316760 0.385350 -0.633028
O3    O     O_R   0.314800 0.500000 0.614670 -0.610969
O4    O     O_R   0.314790 0.499960 0.385330 -0.622096
O5    O     O_R   0.500000 0.683240 0.614650 -0.609608
O6    O     O_R   0.499980 0.683210 0.385310 -0.631989
O7    O     O_R   0.685210 0.500040 0.614670 -0.650553
O8    O     O_R   0.685200 0.500000 0.385330 -0.637359
Zn1   Zn    Zn3+2 0.500010 0.500020 0.653130 0.941524
Zn2   Zn    Zn3+2 0.499990 0.499980 0.346870 0.930362

loop_
_geom_bond_atom_site_label_1
_geom_bond_atom_site_label_2
_ccdc_geom_bond_type
C55   C56   A    
C26   H16   S    
C41   C42   A    
C35   C36   A    
C39   H31   S    
C27   H22   S    
C18   C47   S    
C34   H10   S    
C6    C9    A    
C24   H14   S    
C7    C8    A    
C53   C54   A    
C3    H49   S    
C18   H9    S    
C15   C19   S    
C38   H33   S    
C17   C23   S    
C4    O4    A    
C28   C29   S    
C54   H34   S    
O7    Zn1   S    
C1    O2    A    
C30   C31   A    
C29   H17   S    
C51   H47   S    
C15   C16   S    
C17   H23   S    
O1    Zn1   S    
C18   C19   S    
C11   C37   S    
C1    C53   S    
C17   C19   S    
O3    Zn1   S    
C4    C19   S    
C47   C48   A    
C14   O8    A    
C25   H15   S    
C16   H7    S    
C9    C10   S    
C22   H13   S    
C13   C56   S    
C46   H42   S    
C45   C53   A    
C2    C45   A    
C21   C22   A    
C21   H11   S    
C15   H1    S    
C16   H6    S    
C39   H32   S    
C44   C46   A    
C43   H40   S    
C3    H50   S    
C42   H39   S    
C12   C16   S    
C4    O3    A    
C24   C25   A    
C27   H24   S    
C34   H12   S    
C6    C11   S    
O2    Zn2   S    
C29   H18   S    
C11   H5    S    
C25   C26   A    
C5    C45   S    
C38   H35   S    
C51   C52   A    
C17   C40   S    
C10   H4    S    
C43   C44   A    
C37   C38   S    
C8    N2    A    
C33   H27   S    
C44   H41   S    
C15   C27   S    
C41   H38   S    
C12   C23   S    
C20   C23   S    
C14   O7    A    
C50   C51   A    
C37   H37   S    
C28   H21   S    
C18   C34   S    
C13   O5    A    
C40   C41   A    
C12   C14   S    
C50   H46   S    
O5    Zn1   S    
C6    N1    A    
C22   C24   A    
C42   C43   A    
C40   C46   A    
C12   C34   S    
C28   H20   S    
C5    H51   S    
C9    N2    A    
C48   H43   S    
C54   C55   A    
C52   H48   S    
C7    H2    S    
C37   H36   S    
C31   C32   A    
C3    C5    S    
N2    Zn1   S    
C35   H28   S    
C47   C52   A    
C29   H19   S    
C36   H29   S    
C32   H26   S    
C55   H45   S    
C31   H25   S    
C30   C36   A    
C8    C30   S    
C32   C33   A    
C2    C3    S    
C23   H8    S    
C2    C56   A    
C1    O1    A    
C49   H44   S    
C38   C39   S    
C20   C26   A    
C48   C49   A    
C33   C35   A    
C10   H3    S    
O8    Zn2   S    
C13   O6    A    
C10   C11   S    
O6    Zn2   S    
C20   C21   A    
C49   C50   A    
C27   C28   S    
C7    N1    A    
C39   H30   S    
O4    Zn2   S    
N1    Zn2   S    
C5    H52   S    
