data_mof_unit_34977.cif
_audit_creation_date              2013-03-05T15:45:00-0500
_audit_creation_method            fapswitch 2.2
_symmetry_space_group_name_H-M    P1
_symmetry_Int_Tables_number       1
_space_group_crystal_system       triclinic
_cell_length_a                    17.405998
_cell_length_b                    24.418076
_cell_length_c                    15.126988
_cell_angle_alpha                 89.620276
_cell_angle_beta                  125.952114
_cell_angle_gamma                 90.508434
_cell_volume                      5204.34637297

loop_
_atom_site_label
_atom_site_type_symbol
_atom_site_description
_atom_site_fract_x
_atom_site_fract_y
_atom_site_fract_z
_atom_type_partial_charge
C1    C     C_R   0.356141 0.347009 0.908907 0.145455
C2    C     C_R   0.687442 0.373230 0.090875 0.205909
C3    C     C_R   0.819082 0.864757 0.908871 0.179218
C4    C     C_R   0.187689 0.873548 0.090999 0.211990
N1    N     N_R   0.395440 0.396300 0.944370 -0.054841
N2    N     N_R   0.604560 0.396300 0.055630 -0.053289
N3    N     N_R   0.895440 0.896300 0.944370 -0.047842
N4    N     N_R   0.104560 0.896300 0.055630 -0.053015
C5    C     C_R   0.436918 0.650851 0.086055 -0.169903
C6    C     C_R   0.555862 0.653461 0.914737 -0.147389
C7    C     C_R   0.935295 0.150398 0.085735 -0.172920
C8    C     C_R   0.104203 0.117675 0.913124 -0.147433
H1    H     H_    0.481490 0.669112 0.165254 0.123157
H2    H     H_    0.505643 0.670161 0.835070 0.109788
H3    H     H_    0.979871 0.169127 0.164426 0.124654
H4    H     H_    0.084347 0.115377 0.831999 0.108884
N5    N     N_R   0.449890 0.602500 0.055780 -0.036326
N6    N     N_R   0.550110 0.602500 0.944220 -0.039427
N7    N     N_R   0.949890 0.102500 0.055780 -0.036888
N8    N     N_R   0.050110 0.102500 0.944220 -0.046413
C9    C     C_R   0.542185 0.452451 0.298494 0.122969
C10   C     C_R   0.449965 0.453940 0.696997 0.121208
C11   C     C_R   0.043543 0.953285 0.300254 0.121694
C12   C     C_R   0.947591 0.953658 0.696244 0.120947
N9    N     N_R   0.525090 0.470990 0.205640 -0.069945
N10   N     N_R   0.474910 0.470990 0.794360 -0.065031
N11   N     N_R   0.025090 0.970990 0.205640 -0.070483
N12   N     N_R   0.974910 0.970990 0.794360 -0.065966
C13   C     C_R   0.232303 0.544643 0.754117 -0.170125
C14   C     C_R   0.760874 0.545453 0.296347 -0.162295
C15   C     C_R   0.731070 0.045455 0.739567 -0.165882
C16   C     C_R   0.254193 0.044587 0.303636 -0.155728
H5    H     H_    0.209505 0.586595 0.743505 0.113261
H6    H     H_    0.776880 0.587605 0.323078 0.095061
H7    H     H_    0.708632 0.087616 0.725095 0.105731
H8    H     H_    0.266713 0.086285 0.332499 0.083229
N13   N     N_R   0.320240 0.527820 0.794510 -0.049002
N14   N     N_R   0.679760 0.527820 0.205490 -0.043266
N15   N     N_R   0.820240 0.027820 0.794510 -0.045428
N16   N     N_R   0.179760 0.027820 0.205490 -0.042591
C17   C     C_R   0.537560 0.543558 0.298137 0.128488
C18   C     C_R   0.456202 0.544580 0.699253 0.116699
C19   C     C_R   0.035420 0.043945 0.296916 0.119480
C20   C     C_R   0.950373 0.044220 0.695604 0.109301
N17   N     N_R   0.524580 0.527810 0.205160 -0.064795
N18   N     N_R   0.475420 0.527810 0.794840 -0.065423
N19   N     N_R   0.024580 0.027810 0.205160 -0.062929
N20   N     N_R   0.975420 0.027810 0.794840 -0.065366
C21   C     C_R   0.233467 0.453082 0.756461 -0.150353
C22   C     C_R   0.757586 0.454224 0.299596 -0.130288
C23   C     C_R   0.730394 0.953849 0.736327 -0.156558
C24   C     C_R   0.251884 0.953804 0.303235 -0.116996
H9    H     H_    0.213225 0.410693 0.750459 0.084147
H10   H     H_    0.768532 0.413068 0.330900 0.128291
H11   H     H_    0.706123 0.912262 0.713291 0.113395
H12   H     H_    0.258709 0.912524 0.332060 0.117263
N21   N     N_R   0.320750 0.470990 0.794990 -0.045335
N22   N     N_R   0.679250 0.470990 0.205010 -0.046010
N23   N     N_R   0.820750 0.970990 0.794990 -0.040606
N24   N     N_R   0.179250 0.970990 0.205010 -0.045180
C25   C     C_R   0.345645 0.648830 0.904994 -0.102791
C26   C     C_R   0.649643 0.650542 0.095075 -0.134993
C27   C     C_R   0.842948 0.147832 0.904507 -0.103592
C28   C     C_R   0.191715 0.123458 0.094381 -0.114082
H13   H     H_    0.304230 0.662432 0.820949 0.089408
H14   H     H_    0.688713 0.660905 0.179907 0.135973
H15   H     H_    0.801079 0.161321 0.820406 0.093160
H16   H     H_    0.247600 0.131641 0.179063 0.119877
N25   N     N_R   0.393580 0.602500 0.942610 -0.041117
N26   N     N_R   0.606420 0.602500 0.057390 -0.044043
N27   N     N_R   0.893580 0.102500 0.942610 -0.043702
N28   N     N_R   0.106420 0.102500 0.057390 -0.046048
C29   C     C_R   0.439093 0.347981 0.089983 -0.201995
C30   C     C_R   0.601007 0.380762 0.910003 -0.186834
C31   C     C_R   0.900852 0.874801 0.089124 -0.179134
C32   C     C_R   0.100699 0.880066 0.909970 -0.205626
H17   H     H_    0.477899 0.333649 0.172731 0.105339
H18   H     H_    0.578497 0.377593 0.827068 0.122869
H19   H     H_    0.921181 0.874824 0.170602 0.109687
H20   H     H_    0.077673 0.876090 0.826980 0.124457
N29   N     N_R   0.451750 0.396300 0.057540 -0.049126
N30   N     N_R   0.548250 0.396300 0.942460 -0.043816
N31   N     N_R   0.951750 0.896300 0.057540 -0.051368
N32   N     N_R   0.048250 0.896300 0.942460 -0.054977
C33   C     C_R   0.380050 0.316182 0.998779 0.034752
C34   C     C_R   0.687056 0.363597 0.000257 -0.043069
C35   C     C_R   0.815722 0.855417 0.998031 -0.010256
C36   C     C_R   0.187164 0.863391 0.000520 -0.034079
C37   C     C_R   0.369863 0.678807 0.993342 0.063172
C38   C     C_R   0.616954 0.684763 0.007259 0.072912
C39   C     C_R   0.866296 0.177553 0.992851 0.064309
C40   C     C_R   0.192265 0.133017 0.004124 0.051845
C41   C     C_R   0.546756 0.497051 0.355425 -0.063600
C42   C     C_R   0.441872 0.499161 0.638274 -0.066664
C43   C     C_R   0.044549 0.997870 0.354804 -0.064241
C44   C     C_R   0.935745 0.998484 0.635041 -0.066703
C45   C     C_R   0.177048 0.498596 0.731776 0.155624
C46   C     C_R   0.810263 0.499971 0.357592 0.127359
C47   C     C_R   0.673843 0.999766 0.704955 0.139544
C48   C     C_R   0.298209 0.999010 0.367259 0.131842
Ni1   Ni    Ni4+2 0.435420 0.434250 0.870220 0.209549
Ni2   Ni    Ni4+2 0.564580 0.434250 0.129780 0.201323
Ni3   Ni    Ni4+2 0.935420 0.934250 0.870220 0.205911
Ni4   Ni    Ni4+2 0.064580 0.934250 0.129780 0.201122
Ni5   Ni    Ni4+2 0.563400 0.564580 0.128670 0.199314
Ni6   Ni    Ni4+2 0.436600 0.564580 0.871330 0.198939
Ni7   Ni    Ni4+2 0.063400 0.064580 0.128670 0.199643
Ni8   Ni    Ni4+2 0.936600 0.064580 0.871330 0.199841
C49   C     C_2   0.924403 0.458429 0.536745 -0.134521
C50   C     C_2   0.022056 0.454816 0.635451 -0.104337
C51   C     C_2   0.419090 0.954669 0.537966 -0.118633
C52   C     C_2   0.519497 0.958237 0.629756 -0.105361
C53   C     C_2   0.895945 0.501539 0.468739 -0.202471
C54   C     C_2   0.075795 0.499650 0.682157 -0.200473
C55   C     C_2   0.369947 0.999796 0.484501 -0.226378
C56   C     C_2   0.571720 0.001365 0.638579 -0.192990
H21   H     H_    0.881603 0.421427 0.511891 0.130142
H22   H     H_    0.053472 0.414397 0.655930 0.116292
H23   H     H_    0.393389 0.914320 0.502587 0.115858
H24   H     H_    0.553431 0.921471 0.677792 0.113346
H25   H     H_    0.939082 0.538274 0.490937 0.135864
H26   H     H_    0.043561 0.539686 0.666865 0.129895
H27   H     H_    0.392477 0.039757 0.523055 0.135048
H28   H     H_    0.540311 0.038088 0.589742 0.131359
C57   C     C_R   0.225444 0.730198 0.921276 0.179309
C58   C     C_R   0.711887 0.769171 0.108232 0.182660
C59   C     C_R   0.723127 0.230779 0.917813 0.178251
C60   C     C_R   0.351390 0.179215 0.091417 0.188052
C61   C     C_R   0.680930 0.277522 0.919308 -0.268562
C62   C     C_R   0.395373 0.227158 0.089826 -0.281461
C63   C     C_R   0.182304 0.776382 0.923339 -0.261315
C64   C     C_R   0.763866 0.811019 0.103320 -0.214494
H29   H     H_    0.604090 0.278811 0.869292 0.130226
H30   H     H_    0.463878 0.239146 0.162240 0.119235
H31   H     H_    0.105462 0.776737 0.875670 0.129820
H32   H     H_    0.823046 0.827999 0.179086 0.123831
C65   C     C_R   0.736342 0.320174 0.990711 0.156342
C66   C     C_R   0.348224 0.260734 0.996692 0.154144
C67   C     C_R   0.237070 0.819952 0.992024 0.151297
C68   C     C_R   0.743023 0.827328 0.002355 0.118512
C69   C     C_R   0.835093 0.317936 0.057211 -0.190682
C70   C     C_R   0.262786 0.243662 0.901964 -0.185557
C71   C     C_R   0.335915 0.818929 0.056167 -0.194230
C72   C     C_R   0.654215 0.813770 0.907614 -0.185384
H33   H     H_    0.877583 0.351365 0.111561 0.115756
H34   H     H_    0.223117 0.269053 0.829904 0.117911
H35   H     H_    0.377833 0.853016 0.108669 0.116465
H36   H     H_    0.626628 0.833718 0.830523 0.100776
C73   C     C_R   0.380368 0.772582 0.054736 -0.212893
C74   C     C_R   0.603691 0.770495 0.910627 -0.194126
C75   C     C_R   0.878617 0.271141 0.055962 -0.213858
C76   C     C_R   0.220730 0.196173 0.901356 -0.214389
H37   H     H_    0.457195 0.770706 0.106112 0.126794
H38   H     H_    0.541467 0.756061 0.833943 0.118554
H39   H     H_    0.955322 0.268382 0.109206 0.129691
H40   H     H_    0.151393 0.187892 0.827181 0.123021
C77   C     C_R   0.325090 0.728406 0.988289 0.084279
C78   C     C_R   0.639823 0.743199 0.009892 0.049056
C79   C     C_R   0.822571 0.227644 0.987558 0.084298
C80   C     C_R   0.259149 0.166506 0.998358 0.097556
C81   C     C_R   0.561718 0.510327 0.606617 -0.172470
C82   C     C_R   0.589464 0.508936 0.538308 -0.231990
C83   C     C_R   0.892674 0.996263 0.449798 -0.194200
C84   C     C_R   0.921064 0.994601 0.381874 -0.183451
H41   H     H_    0.613121 0.521217 0.691670 0.125965
H42   H     H_    0.661709 0.519458 0.568818 0.128704
H43   H     H_    0.817862 0.997152 0.415445 0.112149
H44   H     H_    0.868072 0.993766 0.294136 0.122611
C85   C     C_R   0.522640 0.494471 0.429892 0.155428
C86   C     C_R   0.467376 0.497970 0.564801 0.145111
C87   C     C_R   0.018004 0.995502 0.427354 0.164048
C88   C     C_R   0.961901 0.997473 0.561958 0.156305
C89   C     C_R   0.428813 0.481313 0.388357 -0.171409
C90   C     C_R   0.400729 0.483361 0.456340 -0.179620
C91   C     C_R   0.087189 0.998169 0.539317 -0.184778
C92   C     C_R   0.058904 0.998457 0.607295 -0.191808
H45   H     H_    0.377359 0.470926 0.303032 0.120834
H46   H     H_    0.327764 0.474514 0.424185 0.120031
H47   H     H_    0.161928 0.000313 0.573339 0.128610
H48   H     H_    0.112034 0.000051 0.694965 0.125200
N33   N     N_2   0.338075 0.325415 0.810972 -0.114145
H49   H     H_    0.267701 0.321750 0.745966 0.147875
C93   C     C_3   0.398906 0.281559 0.822237 -0.937444
H50   H     H_    0.395380 0.278639 0.746837 0.239191
H51   H     H_    0.375388 0.241669 0.834285 0.258857
H52   H     H_    0.473791 0.289432 0.892096 0.262917
N34   N     N_2   0.747628 0.347449 0.194287 -0.124450
H53   H     H_    0.814453 0.338490 0.216397 0.166600
C94   C     C_3   0.704069 0.302221 0.212167 -0.957034
H54   H     H_    0.754154 0.286438 0.296629 0.247380
H55   H     H_    0.686263 0.268621 0.153634 0.263649
H56   H     H_    0.638626 0.315714 0.201989 0.253082
N35   N     N_2   0.781250 0.829030 0.817737 -0.125781
H57   H     H_    0.720087 0.808377 0.792582 0.162272
C95   C     C_3   0.850198 0.792592 0.825729 -0.922912
H58   H     H_    0.816046 0.768010 0.749871 0.240154
H59   H     H_    0.878261 0.764205 0.896005 0.255297
H60   H     H_    0.909903 0.816046 0.836420 0.254092
N36   N     N_2   0.250280 0.849903 0.196192 -0.124942
H61   H     H_    0.315831 0.839418 0.216038 0.166759
C96   C     C_3   0.208018 0.807321 0.221868 -0.956255
H62   H     H_    0.259546 0.794105 0.307971 0.246990
H63   H     H_    0.188800 0.771498 0.167445 0.263091
H64   H     H_    0.143571 0.822643 0.212044 0.253813
N37   N     N_2   0.168313 0.684770 0.856205 -0.122278
H65   H     H_    0.105910 0.695905 0.783280 0.159714
C97   C     C_3   0.152547 0.644142 0.914137 -0.916862
H66   H     H_    0.112357 0.608975 0.859223 0.246228
H67   H     H_    0.110872 0.662019 0.940984 0.248905
H68   H     H_    0.221075 0.628631 0.986457 0.264343
N38   N     N_2   0.731186 0.754228 0.210539 -0.123370
H69   H     H_    0.704837 0.781897 0.237616 0.170482
C98   C     C_3   0.827721 0.737896 0.295326 -0.992354
H70   H     H_    0.829608 0.717533 0.362384 0.251048
H71   H     H_    0.875707 0.774134 0.329733 0.253011
H72   H     H_    0.853490 0.708346 0.262663 0.268192
N39   N     N_2   0.665032 0.186025 0.850997 -0.121731
H73   H     H_    0.604176 0.197891 0.777193 0.159277
C99   C     C_3   0.645230 0.146074 0.906340 -0.909219
H74   H     H_    0.604476 0.111310 0.850444 0.249314
H75   H     H_    0.602521 0.164903 0.930953 0.248925
H76   H     H_    0.712192 0.129768 0.979818 0.261883
N40   N     N_2   0.397231 0.146649 0.188035 -0.124617
H77   H     H_    0.452913 0.165861 0.257393 0.162848
C100  C     C_3   0.420563 0.091664 0.176498 -0.931843
H78   H     H_    0.451983 0.068954 0.254325 0.250203
H79   H     H_    0.472914 0.093075 0.156929 0.252477
H80   H     H_    0.356079 0.069115 0.111257 0.260262
C101  C     C_3   0.584368 0.397104 0.346832 -0.436295
C102  C     C_3   0.673617 0.399950 0.465356 -0.240550
C103  C     C_3   0.726819 0.345663 0.501233 -0.954538
H81   H     H_    0.679974 0.311996 0.493721 0.268747
H82   H     H_    0.751858 0.336027 0.450425 0.261773
H83   H     H_    0.789515 0.348580 0.587817 0.255688
H84   H     H_    0.721960 0.432860 0.473642 0.199663
H85   H     H_    0.653266 0.409168 0.520753 0.210147
H86   H     H_    0.530014 0.370828 0.342887 0.179606
H87   H     H_    0.605616 0.378698 0.297475 0.197223
C104  C     C_3   0.406377 0.398759 0.647660 -0.452793
C105  C     C_3   0.297547 0.401175 0.571089 -0.208731
C106  C     C_3   0.255135 0.348314 0.505860 -0.953646
H88   H     H_    0.279866 0.341685 0.453762 0.263690
H89   H     H_    0.275813 0.312787 0.561560 0.267757
H90   H     H_    0.176509 0.351120 0.452403 0.252369
H91   H     H_    0.269726 0.407293 0.619963 0.200562
H92   H     H_    0.273142 0.435968 0.513286 0.188240
H93   H     H_    0.435007 0.384009 0.603025 0.194142
H94   H     H_    0.425380 0.368870 0.712597 0.205090
C107  C     C_3   0.077226 0.896599 0.348486 -0.430916
C108  C     C_3   0.177641 0.896206 0.457413 -0.211826
C109  C     C_3   0.179713 0.866038 0.547593 -0.925642
H95   H     H_    0.131139 0.885674 0.562671 0.269592
H96   H     H_    0.157900 0.822611 0.524089 0.259547
H97   H     H_    0.252834 0.867085 0.624336 0.249688
H98   H     H_    0.227003 0.874685 0.445777 0.179001
H99   H     H_    0.206332 0.938272 0.485645 0.198475
H100  H     H_    0.024452 0.878517 0.359453 0.192994
H101  H     H_    0.078978 0.870448 0.290076 0.164556
C110  C     C_3   0.910113 0.896949 0.651287 -0.444298
C111  C     C_3   0.803831 0.896977 0.557359 -0.214450
C112  C     C_3   0.767355 0.839081 0.514990 -0.938152
H102  H     H_    0.805747 0.820952 0.484135 0.264682
H103  H     H_    0.777154 0.812706 0.580885 0.269952
H104  H     H_    0.690511 0.840401 0.446974 0.249592
H105  H     H_    0.763279 0.914564 0.585792 0.201615
H106  H     H_    0.790409 0.922282 0.488655 0.192510
H107  H     H_    0.950875 0.879713 0.622702 0.187089
H108  H     H_    0.919872 0.870243 0.716526 0.194542
C113  C     C_3   0.550012 0.600987 0.340448 -0.425576
C114  C     C_3   0.637008 0.629171 0.358210 -0.252425
C115  C     C_3   0.649092 0.687554 0.400342 -0.944542
H109  H     H_    0.585846 0.712557 0.341283 0.259122
H110  H     H_    0.659576 0.687229 0.480204 0.266275
H111  H     H_    0.712258 0.706859 0.411597 0.255391
H112  H     H_    0.701594 0.605472 0.419167 0.197172
H113  H     H_    0.630376 0.630287 0.280792 0.195381
H114  H     H_    0.483507 0.623914 0.285868 0.183088
H115  H     H_    0.560682 0.600160 0.420317 0.196625
C116  C     C_3   0.435528 0.602069 0.655193 -0.428463
C117  C     C_3   0.348022 0.624792 0.643115 -0.240527
C118  C     C_3   0.326326 0.683055 0.597800 -0.950164
H116  H     H_    0.387431 0.710669 0.652674 0.255569
H117  H     H_    0.310735 0.683757 0.515287 0.268406
H118  H     H_    0.263370 0.698480 0.591334 0.251042
H119  H     H_    0.285519 0.598211 0.586830 0.198329
H120  H     H_    0.359478 0.624784 0.723216 0.195345
H121  H     H_    0.499459 0.627901 0.707157 0.181179
H122  H     H_    0.420770 0.602301 0.573009 0.195090
C119  C     C_3   0.043956 0.101392 0.337567 -0.421000
C120  C     C_3   0.131280 0.131226 0.359399 -0.254933
C121  C     C_3   0.139300 0.189365 0.400791 -0.943852
H123  H     H_    0.075539 0.213582 0.340030 0.259702
H124  H     H_    0.147005 0.188368 0.479077 0.266119
H125  H     H_    0.202769 0.209945 0.414908 0.252981
H126  H     H_    0.195991 0.108355 0.422775 0.195292
H127  H     H_    0.128021 0.133013 0.283944 0.195980
H128  H     H_    0.976749 0.123379 0.281091 0.183178
H129  H     H_    0.052091 0.100026 0.416112 0.194515
C122  C     C_3   0.918302 0.100665 0.643717 -0.430279
C123  C     C_3   0.858754 0.130902 0.671793 -0.245081
C124  C     C_3   0.828493 0.187050 0.616906 -0.951731
H130  H     H_    0.891833 0.212857 0.644993 0.266903
H131  H     H_    0.785112 0.182713 0.526694 0.266428
H132  H     H_    0.785219 0.207873 0.638627 0.249377
H133  H     H_    0.794125 0.106470 0.643081 0.198670
H134  H     H_    0.900195 0.136978 0.760962 0.209150
H135  H     H_    0.979541 0.125986 0.663323 0.175725
H136  H     H_    0.873780 0.095899 0.553400 0.194278

loop_
_geom_bond_atom_site_label_1
_geom_bond_atom_site_label_2
_geom_bond_distance
_ccdc_geom_bond_type
C96   H63   1.111645 S    
C70   H34   1.078993 S    
C121  H123  1.110333 S    
C50   H22   1.084274 S    
C124  H130  1.110994 S    
C118  H118  1.110493 S    
C12   C44   1.365328 A    
C115  H109  1.110249 S    
C13   H5    1.078348 S    
C100  H80   1.110168 S    
C26   N26   1.325418 A    
C5    H1    1.070312 S    
C117  H119  1.112169 S    
C7    H3    1.069823 S    
C4    N36   1.419752 S    
C76   H40   1.079354 S    
C97   H68   1.110541 S    
C102  H85   1.109417 S    
C75   H39   1.083511 S    
C74   C78   1.407038 A    
C69   H33   1.083238 S    
C95   H60   1.107904 S    
N36   H61   1.029309 S    
C18   C42   1.371708 A    
N27   Ni8   1.885285 S    
C1    C33   1.384078 A    
C62   H30   1.082481 S    
C48   C55   1.450721 S    
C29   N29   1.340193 A    
C98   H71   1.110875 S    
N1    Ni1   1.868805 S    
C55   H27   1.085480 S    
C84   H44   1.084084 S    
C47   C56   1.440272 S    
C52   H24   1.086120 S    
C60   C80   1.413784 A    
C14   H6    1.081035 S    
N33   H49   1.029703 S    
C104  H94   1.104650 S    
C93   H50   1.108404 S    
C101  C102  1.536852 S    
C91   C92   1.376401 A    
C7    N7    1.336125 A    
C8    N8    1.325368 A    
C83   C88   1.389552 A    
N4    Ni4   1.882253 S    
N16   Ni7   1.874295 S    
C61   H29   1.083726 S    
C27   N27   1.321579 A    
C105  H91   1.107501 S    
C101  H86   1.110747 S    
C62   C66   1.403390 A    
C123  C124  1.526676 S    
C10   C104  1.509455 S    
C86   C90   1.389377 A    
C124  H132  1.110601 S    
N26   Ni5   1.871689 S    
C37   C77   1.423228 S    
C40   C80   1.460476 S    
C119  H128  1.103681 S    
C42   C86   1.418864 S    
C122  H135  1.107231 S    
C82   C85   1.388440 A    
C9    C41   1.365445 A    
C6    N6    1.341729 A    
C21   H9    1.077478 S    
C57   N37   1.426092 S    
C11   C43   1.364201 A    
C103  H83   1.110389 S    
C23   H11   1.074862 S    
N2    Ni2   1.882253 S    
C21   C45   1.386431 A    
C95   H58   1.110060 S    
C25   H13   1.081120 S    
C71   C73   1.383979 A    
C61   C65   1.398374 A    
N35   H57   1.024603 S    
C27   C39   1.359278 A    
C17   N17   1.345196 A    
C31   H19   1.064049 S    
C33   C66   1.451822 S    
C81   H41   1.084058 S    
C20   N20   1.353038 A    
C116  H121  1.105020 S    
N8    Ni8   1.843845 S    
C123  H133  1.108068 S    
N3    N31   1.386037 A    
N5    N25   1.386037 A    
N16   N24   1.387669 A    
N7    N27   1.386037 A    
C51   C52   1.462666 S    
C107  H101  1.108529 S    
C59   C61   1.370183 A    
C14   N14   1.336514 A    
C107  C108  1.545443 S    
C3    N35   1.426525 S    
C120  H127  1.109633 S    
C16   H8    1.079390 S    
C121  H124  1.110914 S    
C58   N38   1.423123 S    
C112  H102  1.111117 S    
N9    Ni2   1.882792 S    
N11   Ni4   1.882792 S    
C21   N21   1.338240 A    
C51   H23   1.084118 S    
C106  H88   1.110792 S    
C94   H55   1.111788 S    
C2    N34   1.419579 S    
C73   H37   1.083810 S    
C110  H108  1.106613 S    
C24   N24   1.333261 A    
C67   C71   1.393707 A    
C17   C113  1.505557 S    
C50   C54   1.337414 D    
C82   H42   1.083820 S    
C10   C42   1.367859 A    
C94   H54   1.110180 S    
N17   Ni5   1.869495 S    
N37   C97   1.446886 S    
C108  H99   1.110483 S    
N15   Ni8   1.864431 S    
C22   C46   1.381455 A    
C26   H14   1.072276 S    
C8    H4    1.063541 S    
C117  C118  1.526146 S    
C6    H2    1.070314 S    
C93   H52   1.110637 S    
C109  H97   1.110449 S    
N39   H73   1.031964 S    
C24   C48   1.374035 A    
C16   C48   1.373645 A    
C75   C79   1.400479 A    
N6    Ni6   1.843845 S    
C20   C44   1.373309 A    
C7    C39   1.369890 A    
C57   C63   1.370978 A    
C58   C64   1.389186 A    
C64   H32   1.076570 S    
C119  C120  1.531061 S    
C113  H114  1.103729 S    
C29   C33   1.377536 A    
C31   C35   1.384599 A    
C10   N10   1.336052 A    
N9    N17   1.387486 A    
C52   C56   1.339971 D    
N11   N19   1.387486 A    
C9    N9    1.330256 A    
N12   N20   1.387425 A    
C29   H17   1.072909 S    
C114  H112  1.111841 S    
C8    C40   1.379789 A    
C12   N12   1.335700 A    
C111  C112  1.526678 S    
C112  H104  1.110425 S    
N40   C100  1.447088 S    
C4    C36   1.387322 A    
C118  H117  1.110829 S    
N21   Ni1   1.853323 S    
C14   C46   1.378001 A    
C106  H90   1.110415 S    
N23   Ni3   1.853323 S    
N14   Ni5   1.874295 S    
C101  H87   1.108108 S    
C99   H76   1.110683 S    
C73   C77   1.400008 A    
N18   Ni6   1.882573 S    
C105  C106  1.526188 S    
C100  H79   1.111393 S    
C117  H120  1.106451 S    
C63   C67   1.397785 A    
C92   H48   1.084176 S    
C53   H25   1.084968 S    
C97   H67   1.111563 S    
C85   C89   1.397740 A    
N8    N28   1.386037 A    
C45   C54   1.455127 S    
N24   Ni4   1.843452 S    
C88   C92   1.400543 A    
C95   H59   1.111605 S    
N7    Ni7   1.854085 S    
C115  H111  1.110008 S    
C104  C105  1.535631 S    
C32   N32   1.329653 A    
C81   C82   1.374373 A    
C49   H21   1.084606 S    
C109  H95   1.109864 S    
C98   H70   1.109857 S    
C41   C85   1.415248 S    
C22   H10   1.077776 S    
C1    N1    1.329426 A    
C3    N3    1.340646 A    
C57   C77   1.404999 A    
C104  H93   1.111495 S    
C120  C121  1.527261 S    
C18   N18   1.340513 A    
C70   C76   1.363000 A    
C34   C65   1.429910 S    
N14   N22   1.387669 A    
C17   C41   1.376047 A    
C19   C43   1.372782 A    
C116  C117  1.532328 S    
N22   Ni2   1.843452 S    
C15   C47   1.373530 A    
C35   C68   1.468724 S    
C39   C79   1.423153 S    
C4    N4    1.337851 A    
N33   C93   1.450093 S    
C113  C114  1.531347 S    
C105  H92   1.107796 S    
C30   N30   1.329022 A    
C60   N40   1.425346 S    
C124  H131  1.110927 S    
C97   H66   1.110508 S    
C22   N22   1.336155 A    
C32   H20   1.075254 S    
N40   H77   1.031810 S    
C66   C70   1.390449 A    
C5    C37   1.369136 A    
C99   H74   1.110502 S    
C46   C53   1.451902 S    
C108  C109  1.527827 S    
C89   C90   1.374927 A    
C122  C123  1.527894 S    
N1    N29   1.386037 A    
N38   H69   1.031653 S    
N15   N23   1.387730 A    
C102  H84   1.111323 S    
C103  H82   1.110643 S    
C15   H7    1.078929 S    
C28   C40   1.389155 A    
C28   H16   1.078825 S    
C59   N39   1.425919 S    
C98   H72   1.112045 S    
C123  H134  1.104545 S    
C65   C69   1.392839 A    
C1    N33   1.425499 S    
C56   H28   1.083684 S    
N4    N32   1.386038 A    
C68   C72   1.396019 A    
C107  H100  1.112211 S    
C19   N19   1.347510 A    
C60   C62   1.400875 A    
N25   Ni6   1.885285 S    
C64   C68   1.402396 A    
N34   H53   1.029263 S    
C11   C107  1.513514 S    
C49   C50   1.465314 S    
N12   Ni3   1.869686 S    
C31   N31   1.331972 A    
N20   Ni8   1.882573 S    
C102  C103  1.526877 S    
C110  H107  1.111533 S    
N10   N18   1.387425 A    
C6    C38   1.387797 A    
C30   H18   1.075634 S    
C13   N13   1.339617 A    
N36   C96   1.445569 S    
C114  C115  1.527098 S    
C111  H105  1.109918 S    
C43   C87   1.419631 S    
N6    N26   1.386037 A    
C76   C80   1.402633 A    
N2    N30   1.386038 A    
C96   H62   1.110347 S    
C83   C84   1.377923 A    
C72   H36   1.080204 S    
N37   H65   1.031968 S    
C71   H35   1.083254 S    
C12   C110  1.510305 S    
C119  H129  1.111244 S    
C63   H31   1.084710 S    
C93   H51   1.108015 S    
N10   Ni1   1.869686 S    
C122  H136  1.112635 S    
C109  H96   1.111001 S    
C19   C119  1.506115 S    
N35   C95   1.446946 S    
C72   C74   1.386367 A    
C11   N11   1.339011 A    
C32   C36   1.374733 A    
C49   C53   1.344720 D    
C16   N16   1.338058 A    
C9    C101  1.508071 S    
C90   H46   1.080445 S    
C2    N2    1.337950 A    
C25   C37   1.358506 A    
N29   Ni2   1.836017 S    
C58   C78   1.412743 A    
C23   C47   1.383906 A    
C27   H15   1.080799 S    
N31   Ni4   1.836017 S    
C3    C35   1.400995 A    
C120  H126  1.111661 S    
C114  H113  1.107451 S    
C121  H125  1.110473 S    
C112  H103  1.109616 S    
C91   H47   1.083042 S    
C118  H116  1.110380 S    
C87   C91   1.388555 A    
C106  H89   1.109858 S    
C38   C78   1.472465 S    
C94   H56   1.108996 S    
C83   H43   1.082575 S    
C36   C67   1.430189 S    
N5    Ni5   1.854086 S    
C99   H75   1.111755 S    
N28   Ni7   1.871688 S    
C89   H45   1.084122 S    
C100  H78   1.110552 S    
C20   C122  1.520583 S    
C30   C34   1.373103 A    
C81   C86   1.400622 A    
C5    N5    1.337149 A    
N38   C98   1.449821 S    
N19   Ni7   1.869495 S    
C44   C88   1.421851 S    
C96   H64   1.109678 S    
C23   N23   1.338135 A    
C110  C111  1.534504 S    
C59   C79   1.404270 A    
C69   C75   1.382900 A    
C25   N25   1.323056 A    
C108  H98   1.110023 S    
C115  H110  1.110780 S    
C51   C55   1.338861 D    
N13   N21   1.387730 A    
N39   C99   1.446852 S    
C13   C45   1.381176 A    
C116  H122  1.111980 S    
N13   Ni6   1.864431 S    
C18   C116  1.503067 S    
C26   C38   1.375796 A    
N30   Ni1   1.846268 S    
C15   N15   1.333259 A    
C113  H115  1.109444 S    
C2    C34   1.388459 A    
C28   N28   1.339407 A    
N34   C94   1.445538 S    
C54   H26   1.085514 S    
C74   H38   1.079935 S    
C103  H81   1.110924 S    
N32   Ni3   1.846268 S    
C84   C87   1.399053 A    
N3    Ni3   1.868805 S    
C111  H106  1.106997 S    
C24   H12   1.075067 S    
