data_mof_unit_9381.cif
_audit_creation_date              2013-03-05T15:51:03-0500
_audit_creation_method            fapswitch 2.2
_symmetry_space_group_name_H-M    P1
_symmetry_Int_Tables_number       1
_space_group_crystal_system       triclinic
_cell_length_a                    19.17412
_cell_length_b                    11.028102
_cell_length_c                    18.816297
_cell_angle_alpha                 89.67151
_cell_angle_beta                  90.360248
_cell_angle_gamma                 90.144731
_cell_volume                      3978.62773886

loop_
_atom_site_label
_atom_site_type_symbol
_atom_site_description
_atom_site_fract_x
_atom_site_fract_y
_atom_site_fract_z
_atom_type_partial_charge
O1    O     O_R   0.784290 0.290360 0.830540 -0.444688
O2    O     O_R   0.215710 0.290360 0.169460 -0.456659
O3    O     O_R   0.284290 0.790360 0.830540 -0.460208
O4    O     O_R   0.715710 0.790360 0.169460 -0.470803
O5    O     O_R   0.762610 0.041070 0.825230 -0.490244
O6    O     O_R   0.237390 0.041070 0.174770 -0.496925
O7    O     O_R   0.262610 0.541070 0.825230 -0.504805
O8    O     O_R   0.737390 0.541070 0.174770 -0.510513
C1    C     C_R   0.724570 0.961629 0.856072 0.539439
C2    C     C_R   0.275508 0.962281 0.143860 0.536523
C3    C     C_R   0.225542 0.458717 0.854948 0.540702
C4    C     C_R   0.774530 0.459350 0.144970 0.537285
O9    O     O_R   0.667390 0.924160 0.829970 -0.523619
O10   O     O_R   0.332610 0.924160 0.170030 -0.528295
O11   O     O_R   0.167390 0.424160 0.829970 -0.520143
O12   O     O_R   0.832610 0.424160 0.170030 -0.525169
O13   O     O_R   0.553980 0.081420 0.821780 -0.469294
O14   O     O_R   0.446020 0.081420 0.178220 -0.477421
O15   O     O_R   0.053980 0.581420 0.821780 -0.468447
O16   O     O_R   0.946020 0.581420 0.178220 -0.476577
C5    C     C_R   0.530052 0.177708 0.850610 0.572824
C6    C     C_R   0.469763 0.178280 0.149273 0.571469
C7    C     C_R   0.030327 0.677474 0.850758 0.561908
C8    C     C_R   0.969478 0.678037 0.149118 0.560290
O17   O     O_R   0.543210 0.283170 0.826740 -0.517225
O18   O     O_R   0.456790 0.283170 0.173260 -0.517577
O19   O     O_R   0.043210 0.783170 0.826740 -0.524292
O20   O     O_R   0.956790 0.783170 0.173260 -0.524841
O21   O     O_R   0.678350 0.375000 0.822720 -0.510637
O22   O     O_R   0.321650 0.375000 0.177280 -0.513479
O23   O     O_R   0.178350 0.875000 0.822720 -0.510066
O24   O     O_R   0.821650 0.875000 0.177280 -0.513413
C9    C     C_R   0.738887 0.365665 0.851734 0.570618
C10   C     C_R   0.261144 0.366185 0.148272 0.564152
C11   C     C_R   0.238672 0.865224 0.851952 0.561010
C12   C     C_R   0.761330 0.865782 0.148079 0.554519
O25   O     O_R   0.785060 0.289300 0.670580 -0.447439
O26   O     O_R   0.214940 0.289300 0.329420 -0.442243
O27   O     O_R   0.285060 0.789300 0.670580 -0.444088
O28   O     O_R   0.714940 0.789300 0.329420 -0.438817
O29   O     O_R   0.763330 0.040090 0.676940 -0.498477
O30   O     O_R   0.236670 0.040090 0.323060 -0.409814
O31   O     O_R   0.263330 0.540090 0.676940 -0.496671
O32   O     O_R   0.736670 0.540090 0.323060 -0.408257
C13   C     C_R   0.725783 0.960926 0.645545 0.533409
C14   C     C_R   0.271569 0.950001 0.350669 0.572697
C15   C     C_R   0.225794 0.460896 0.645557 0.535291
C16   C     C_R   0.771576 0.450022 0.350676 0.574754
O33   O     O_R   0.668160 0.923110 0.670000 -0.518670
O34   O     O_R   0.331840 0.923110 0.330000 -0.542155
O35   O     O_R   0.168160 0.423110 0.670000 -0.517780
O36   O     O_R   0.831840 0.423110 0.330000 -0.541197
O37   O     O_R   0.554690 0.080440 0.673480 -0.474030
O38   O     O_R   0.445310 0.080440 0.326520 -0.507719
O39   O     O_R   0.054690 0.580440 0.673480 -0.474260
O40   O     O_R   0.945310 0.580440 0.326520 -0.508147
C17   C     C_R   0.531714 0.176639 0.643569 0.559671
C18   C     C_R   0.471405 0.177182 0.354100 0.553570
C19   C     C_R   0.031718 0.676636 0.643571 0.558831
C20   C     C_R   0.971401 0.677187 0.354102 0.552751
O41   O     O_R   0.543980 0.282110 0.666770 -0.522758
O42   O     O_R   0.456020 0.282110 0.333230 -0.520538
O43   O     O_R   0.043980 0.782110 0.666770 -0.521899
O44   O     O_R   0.956020 0.782110 0.333230 -0.519531
O45   O     O_R   0.679070 0.374030 0.674430 -0.521980
O46   O     O_R   0.320930 0.374030 0.325570 -0.523702
O47   O     O_R   0.179070 0.874030 0.674430 -0.519258
O48   O     O_R   0.820930 0.874030 0.325570 -0.521360
C21   C     C_R   0.736370 0.352080 0.642999 0.540370
C22   C     C_R   0.259838 0.363544 0.352905 0.567716
C23   C     C_R   0.236344 0.851985 0.642971 0.543727
C24   C     C_R   0.759833 0.863561 0.352897 0.571590
Cr1   Cr    Cr6+3 0.769260 0.163750 0.750730 1.121761
Cr2   Cr    Cr6+3 0.230740 0.163750 0.249270 1.133873
Cr3   Cr    Cr6+3 0.269260 0.663750 0.750730 1.111259
Cr4   Cr    Cr6+3 0.730740 0.663750 0.249270 1.124337
Cr5   Cr    Cr6+3 0.612640 0.009910 0.748780 1.092029
Cr6   Cr    Cr6+3 0.387360 0.009910 0.251220 1.044690
Cr7   Cr    Cr6+3 0.112640 0.509910 0.748780 1.091663
Cr8   Cr    Cr6+3 0.887360 0.509910 0.251220 1.043644
Cr9   Cr    Cr6+3 0.614190 0.322400 0.747710 1.029302
Cr10  Cr    Cr6+3 0.385810 0.322400 0.252290 1.027353
Cr11  Cr    Cr6+3 0.114190 0.822400 0.747710 1.027488
Cr12  Cr    Cr6+3 0.885810 0.822400 0.252290 1.025203
O49   O     O_3   0.665360 0.165350 0.749070 -0.290841
O50   O     O_3   0.334640 0.165350 0.250930 -0.277527
O51   O     O_3   0.165360 0.665350 0.749070 -0.289732
O52   O     O_3   0.834640 0.665350 0.250930 -0.276409
C25   C     C_2   0.498011 0.170207 0.920792 -0.090800
C26   C     C_2   0.501554 0.171630 0.078962 -0.091755
C27   C     C_2   0.998553 0.668719 0.920965 -0.108206
C28   C     C_2   0.000948 0.670068 0.078757 -0.109433
C29   C     C_2   0.492872 0.072852 0.038637 -0.107123
C30   C     C_2   0.507783 0.072488 0.962228 -0.108293
C31   C     C_2   0.991882 0.571096 0.038448 -0.103253
C32   C     C_2   0.008434 0.570700 0.962339 -0.105248
H1    H     H_    0.474769 0.988966 0.062236 0.208229
H2    H     H_    0.526796 0.989088 0.939591 0.206654
H3    H     H_    0.971762 0.487778 0.061407 0.207429
H4    H     H_    0.029248 0.487802 0.940306 0.206040
H5    H     H_    0.523164 0.254340 0.056318 0.100133
H6    H     H_    0.475526 0.252277 0.942555 0.100894
H7    H     H_    0.022738 0.752189 0.055924 0.090649
H8    H     H_    0.976059 0.750301 0.942956 0.090982
C33   C     C_R   0.760151 0.424171 0.071784 -0.020317
C34   C     C_R   0.239929 0.423053 0.928161 -0.023124
C35   C     C_R   0.264967 0.943066 0.067978 -0.028203
C36   C     C_R   0.735166 0.941926 0.931917 -0.032204
C37   C     C_R   0.697183 0.449018 0.037038 -0.019564
C38   C     C_R   0.303115 0.447694 0.962548 -0.020014
C39   C     C_R   0.204343 0.981964 0.033617 0.031061
C40   C     C_R   0.795694 0.982189 0.965886 0.031396
C41   C     C_R   0.691815 0.441360 0.963549 -0.024779
C42   C     C_R   0.308522 0.440925 0.036062 -0.024301
C43   C     C_R   0.197350 0.969647 0.960650 -0.008959
C44   C     C_R   0.802678 0.970904 0.038948 -0.009882
C45   C     C_R   0.815083 0.394270 0.956677 0.178848
C46   C     C_R   0.184937 0.395378 0.043521 0.183187
C47   C     C_R   0.318952 0.914829 0.951937 0.167861
C48   C     C_R   0.681068 0.914973 0.048083 0.172766
C49   C     C_R   0.817598 0.389164 0.030516 -0.137887
C50   C     C_R   0.182352 0.388929 0.969786 -0.138892
C51   C     C_R   0.323314 0.915867 0.026054 -0.158261
C52   C     C_R   0.676827 0.914446 0.973994 -0.160700
C53   C     C_3   0.651894 0.558409 0.040359 -0.217525
C54   C     C_3   0.349257 0.556390 0.957998 -0.216094
C55   C     C_3   0.131263 0.942164 0.046835 -0.271303
C56   C     C_3   0.868823 0.943160 0.953098 -0.269942
C57   C     C_3   0.645958 0.550896 0.960222 -0.251539
C58   C     C_3   0.355230 0.549773 0.038194 -0.252129
C59   C     C_3   0.123624 0.926494 0.967142 -0.255803
C60   C     C_3   0.876447 0.928479 0.032935 -0.256018
C61   C     C_R   0.750590 0.417089 0.922044 0.002601
C62   C     C_R   0.249614 0.418026 0.077825 0.005078
C63   C     C_R   0.252651 0.926997 0.919110 0.001437
C64   C     C_R   0.747367 0.928104 0.080812 0.003754
H9    H     H_    0.867543 0.370251 0.055179 0.178240
H10   H     H_    0.132323 0.369963 0.945330 0.178016
H11   H     H_    0.372818 0.895366 0.050804 0.172601
H12   H     H_    0.627441 0.892698 0.949374 0.172625
H13   H     H_    0.098676 0.016646 0.068173 0.184711
H14   H     H_    0.901316 0.017804 0.930977 0.187139
H15   H     H_    0.680445 0.640535 0.058393 0.185386
H16   H     H_    0.321356 0.638779 0.939190 0.187547
H17   H     H_    0.601887 0.539789 0.067970 0.165882
H18   H     H_    0.399090 0.536725 0.930538 0.165959
H19   H     H_    0.128875 0.855623 0.077307 0.132341
H20   H     H_    0.871293 0.856337 0.923530 0.132024
H21   H     H_    0.592377 0.528334 0.941538 0.163831
H22   H     H_    0.408649 0.526613 0.057067 0.162807
H23   H     H_    0.117142 0.830072 0.951578 0.143958
H24   H     H_    0.882997 0.832296 0.049466 0.145504
H25   H     H_    0.670796 0.628731 0.932167 0.147415
H26   H     H_    0.331028 0.628302 0.065436 0.147029
H27   H     H_    0.085768 0.990652 0.942587 0.172014
H28   H     H_    0.914252 0.993306 0.056822 0.171137
C65   C     C_R   0.507413 0.174533 0.421440 0.022687
C66   C     C_R   0.513937 0.171337 0.569343 0.020068
C67   C     C_R   0.007377 0.674585 0.421458 0.021743
C68   C     C_R   0.013939 0.671325 0.569350 0.019605
C69   C     C_R   0.513516 0.282773 0.459785 0.012798
C70   C     C_R   0.515594 0.279853 0.531987 0.003399
C71   C     C_R   0.013329 0.782832 0.459829 0.012922
C72   C     C_R   0.015450 0.779883 0.532031 0.003541
C73   C     C_R   0.520245 0.063364 0.531126 -0.165325
C74   C     C_R   0.519276 0.065080 0.456892 -0.184513
C75   C     C_R   0.020371 0.563397 0.531109 -0.164998
C76   C     C_R   0.019372 0.565150 0.456878 -0.184826
C77   C     C_3   0.469516 0.395554 0.461218 -0.258690
C78   C     C_3   0.473532 0.391443 0.541309 -0.256823
C79   C     C_3   0.969061 0.895297 0.461314 -0.258305
C80   C     C_3   0.973150 0.891195 0.541396 -0.257122
H29   H     H_    0.522479 0.978874 0.558930 0.166037
H30   H     H_    0.519271 0.981370 0.427808 0.118843
H31   H     H_    0.022729 0.478902 0.558895 0.166088
H32   H     H_    0.019459 0.481457 0.427774 0.118395
H33   H     H_    0.915608 0.877313 0.441585 0.173667
H34   H     H_    0.004003 0.967160 0.564324 0.177998
H35   H     H_    0.416035 0.378016 0.441452 0.173764
H36   H     H_    0.504522 0.467214 0.564258 0.177580
H37   H     H_    0.496409 0.475555 0.437632 0.168341
H38   H     H_    0.422598 0.373044 0.567226 0.150419
H39   H     H_    0.995733 0.975512 0.437706 0.168151
H40   H     H_    0.922275 0.872456 0.567358 0.149780
C81   C     C_R   0.753866 0.391218 0.418730 0.034757
C82   C     C_R   0.236625 0.442219 0.570288 0.011301
C83   C     C_R   0.253832 0.891120 0.418702 0.034438
C84   C     C_R   0.736593 0.942310 0.570264 0.011392
C85   C     C_R   0.808872 0.348438 0.461861 -0.005101
C86   C     C_R   0.181443 0.395986 0.530982 0.002384
C87   C     C_R   0.308813 0.848229 0.461817 -0.005120
C88   C     C_R   0.681413 0.896066 0.530956 0.002681
C89   C     C_R   0.802442 0.344171 0.534405 0.048982
C90   C     C_R   0.183961 0.387239 0.458769 0.016406
C91   C     C_R   0.302376 0.843917 0.534373 0.048699
C92   C     C_R   0.683937 0.887305 0.458743 0.016744
C93   C     C_R   0.680855 0.386168 0.523602 -0.142082
C94   C     C_R   0.294305 0.488925 0.457829 -0.169592
C95   C     C_R   0.180815 0.886073 0.523568 -0.142274
C96   C     C_R   0.794266 0.989042 0.457801 -0.169748
C97   C     C_R   0.687146 0.392055 0.448988 -0.084617
C98   C     C_R   0.290987 0.498825 0.532378 -0.160489
C99   C     C_R   0.187112 0.891992 0.448957 -0.084916
C100  C     C_R   0.790944 0.998951 0.532351 -0.160605
C101  C     C_3   0.883806 0.386849 0.467823 -0.133426
C102  C     C_3   0.131079 0.293856 0.541655 -0.127267
C103  C     C_3   0.383744 0.886629 0.467799 -0.133532
C104  C     C_3   0.631030 0.793964 0.541625 -0.126944
C105  C     C_3   0.873802 0.391929 0.548322 0.104540
C106  C     C_3   0.132210 0.284724 0.460499 0.119446
C107  C     C_3   0.373723 0.891715 0.548284 0.104657
C108  C     C_3   0.632178 0.784801 0.460470 0.119390
C109  C     C_R   0.740666 0.373838 0.567059 -0.021401
C110  C     C_R   0.244078 0.419893 0.421095 0.024522
C111  C     C_R   0.240622 0.873663 0.567019 -0.022256
C112  C     C_R   0.744056 0.919959 0.421072 0.024349
H41   H     H_    0.630342 0.395509 0.547431 0.141383
H42   H     H_    0.338288 0.527015 0.429914 0.122188
H43   H     H_    0.130303 0.895454 0.547395 0.141409
H44   H     H_    0.838262 0.027114 0.429893 0.122619
H45   H     H_    0.641379 0.405592 0.416344 0.173646
H46   H     H_    0.331509 0.546626 0.560330 0.200265
H47   H     H_    0.141351 0.905577 0.416315 0.173402
H48   H     H_    0.831465 0.046767 0.560303 0.200235
H49   H     H_    0.892749 0.478010 0.444498 0.158129
H50   H     H_    0.079654 0.320469 0.561587 0.149748
H51   H     H_    0.392697 0.977788 0.444481 0.158200
H52   H     H_    0.579608 0.820633 0.561540 0.149605
H53   H     H_    0.872829 0.486452 0.568889 0.101069
H54   H     H_    0.083639 0.311236 0.433020 0.080126
H55   H     H_    0.372720 0.986237 0.568838 0.101956
H56   H     H_    0.583612 0.811307 0.432978 0.080673
C113  C     C_3   0.932230 0.287906 0.439548 -0.347045
H57   H     H_    0.908261 0.196490 0.442962 0.162276
H58   H     H_    0.945306 0.306687 0.383179 0.149285
H59   H     H_    0.980516 0.286105 0.471497 0.146566
C114  C     C_3   0.160121 0.186602 0.585151 -0.323141
H60   H     H_    0.216693 0.172235 0.576451 0.173800
H61   H     H_    0.152391 0.202629 0.642659 0.158523
H62   H     H_    0.130331 0.103759 0.571620 0.149332
C115  C     C_3   0.432178 0.787697 0.439539 -0.347454
H63   H     H_    0.408239 0.696278 0.443008 0.162131
H64   H     H_    0.445218 0.806416 0.383153 0.149318
H65   H     H_    0.480479 0.785975 0.471460 0.146567
C116  C     C_3   0.660035 0.686694 0.585136 -0.323910
H66   H     H_    0.716612 0.672318 0.576471 0.173372
H67   H     H_    0.652265 0.702705 0.642640 0.157010
H68   H     H_    0.630249 0.603858 0.571577 0.149341
N1    N     N_R   0.917226 0.311299 0.592338 0.079766
O53   O     O_R   0.947881 0.354847 0.648556 -0.327015
O54   O     O_R   0.919786 0.195169 0.581341 -0.395354
N2    N     N_R   0.159035 0.170913 0.435114 0.091464
O55   O     O_R   0.122356 0.111987 0.388261 -0.381797
O56   O     O_R   0.223458 0.141022 0.448432 -0.383296
N3    N     N_R   0.417165 0.811169 0.592326 0.079799
O57   O     O_R   0.447784 0.854792 0.648544 -0.324615
O58   O     O_R   0.419791 0.695043 0.581343 -0.395473
N4    N     N_R   0.659009 0.670973 0.435109 0.091296
O59   O     O_R   0.622336 0.612008 0.388266 -0.381360
O60   O     O_R   0.723430 0.641088 0.448443 -0.383889
N5    N     N_R   0.878734 0.378662 0.917640 0.084893
O61   O     O_R   0.890927 0.444446 0.861387 -0.320794
O62   O     O_R   0.927047 0.305864 0.941238 -0.351972
N6    N     N_R   0.121285 0.380604 0.082836 0.082914
O63   O     O_R   0.109733 0.446413 0.138740 -0.344750
O64   O     O_R   0.072632 0.307655 0.060179 -0.355563
N7    N     N_R   0.380890 0.892403 0.911433 0.080267
O65   O     O_R   0.391300 0.949961 0.851833 -0.307994
O66   O     O_R   0.429088 0.820320 0.936010 -0.369569
N8    N     N_R   0.619112 0.892477 0.088798 0.079187
O67   O     O_R   0.608851 0.950135 0.147975 -0.334530
O68   O     O_R   0.570973 0.819535 0.065043 -0.373478

loop_
_geom_bond_atom_site_label_1
_geom_bond_atom_site_label_2
_geom_bond_distance
_ccdc_geom_bond_type
C18   O42   1.255108 A    
Cr11  O51   1.992673 S    
C79   C80   1.508827 S    
O4    C12   1.271116 A    
O47   Cr11  1.944741 S    
C29   C30   1.467670 S    
O39   C19   1.276148 A    
C25   H6    1.086826 S    
O20   Cr12  2.070402 S    
C42   C58   1.496422 S    
C77   C78   1.508933 S    
C98   H46   1.074338 S    
O15   C7    1.279547 A    
C31   C32   1.468824 S    
C20   C67   1.439321 S    
C97   H45   1.078187 S    
C27   H8    1.084053 S    
C17   C66   1.437058 S    
C45   C61   1.416598 A    
C43   C63   1.404866 A    
N3    O58   1.299539 A    
C69   C70   1.359112 A    
C54   H18   1.111545 S    
O1    C9    1.272178 A    
O27   Cr3   2.064694 S    
C43   C59   1.495949 S    
C1    C36   1.455417 S    
O7    C3    1.280078 A    
C89   C109  1.378770 A    
N1    O53   1.300638 A    
C73   C74   1.396829 A    
C17   O41   1.265675 A    
C107  H55   1.114163 S    
C95   C111  1.410635 A    
C88   C92   1.363924 A    
C79   H39   1.112421 S    
C9    C61   1.458232 S    
C16   O36   1.258307 A    
O25   C21   1.270169 A    
C103  C115  1.534117 S    
C46   C50   1.390220 A    
C4    C33   1.457304 S    
C92   C112  1.402197 A    
C31   H3    1.084194 S    
C40   C44   1.385360 A    
O46   Cr10  1.951199 S    
C30   H2    1.080931 S    
C73   H29   1.066794 S    
C114  H61   1.108356 S    
O21   C9    1.283720 A    
O8    Cr4   1.958729 S    
N8    O68   1.301538 A    
O23   Cr11  1.956001 S    
C67   C76   1.394212 A    
C82   C98   1.409234 A    
C96   H44   1.079323 S    
C76   H32   1.075926 S    
C115  H63   1.108457 S    
O30   C14   1.302998 A    
C68   C75   1.400467 A    
C81   C97   1.403605 A    
C25   C30   1.339368 D    
O32   Cr4   1.943604 S    
C1    O9    1.267775 A    
C104  C116  1.538022 S    
O44   Cr12  2.073332 S    
C45   C49   1.390731 A    
C28   H7    1.084062 S    
C34   C38   1.396702 A    
C27   C32   1.341627 D    
C3    O11   1.265977 A    
C86   C102  1.495248 S    
O11   Cr7   2.073270 S    
C4    O12   1.267521 A    
C85   C101  1.500611 S    
N6    O63   1.301833 A    
C44   C60   1.496100 S    
C58   H22   1.111837 S    
O47   C23   1.275406 A    
C93   C97   1.410998 A    
C101  C105  1.529345 S    
C14   C83   1.473385 S    
C12   C64   1.460393 S    
O14   C6    1.280213 A    
C71   C79   1.505176 S    
C113  H57   1.108593 S    
Cr4   O52   1.992277 S    
C91   C111  1.378552 A    
O2    Cr2   2.064061 S    
C116  H68   1.106341 S    
C37   C41   1.389006 A    
C83   C99   1.403583 A    
C36   C40   1.394240 A    
O2    C10   1.270424 A    
C46   N6    1.439556 S    
C105  N1    1.468508 S    
O42   Cr10  2.073332 S    
Cr5   O49   1.987878 S    
O18   Cr10  2.070402 S    
C41   C61   1.402344 A    
C114  H60   1.109912 S    
C100  H48   1.074389 S    
C95   C99   1.410974 A    
C103  C107  1.529143 S    
C88   C104  1.495251 S    
C106  H54   1.101692 S    
C2    C35   1.457410 S    
C94   H42   1.079261 S    
C36   C52   1.405926 A    
C93   H41   1.075285 S    
C8    C28   1.461608 S    
C106  N2    1.442655 S    
Cr9   O49   1.992673 S    
O6    Cr2   1.958729 S    
C86   C90   1.363918 A    
C55   C59   1.516576 S    
C69   C77   1.505121 S    
O31   Cr3   1.954339 S    
O24   Cr12  1.953041 S    
O9    Cr5   2.073270 S    
C74   H30   1.075884 S    
N1    O54   1.299563 A    
O22   C10   1.282720 A    
O26   C22   1.265929 A    
C99   H47   1.078148 S    
C22   C110  1.462454 S    
O16   C8    1.277274 A    
C95   H43   1.075292 S    
C50   H10   1.081766 S    
N8    O67   1.301685 A    
C2    O10   1.269315 A    
C11   C63   1.462005 S    
C75   C76   1.396778 A    
N5    O62   1.301671 A    
C116  H66   1.109922 S    
O16   Cr8   1.943263 S    
C102  H50   1.098378 S    
C56   H20   1.111405 S    
O7    Cr3   1.947148 S    
C87   C91   1.372113 A    
O27   C23   1.270170 A    
Cr10  O50   1.988615 S    
C49   H9    1.081798 S    
C35   C51   1.406897 A    
C84   C100  1.409280 A    
C28   C31   1.343007 D    
C47   C63   1.416230 A    
O40   C20   1.287770 A    
C78   H36   1.111843 S    
O48   C24   1.286973 A    
C115  H64   1.109657 S    
O48   Cr12  1.951199 S    
C82   C86   1.385005 A    
N4    O60   1.301735 A    
C26   H5    1.086762 S    
C94   C98   1.409454 A    
C53   C57   1.514190 S    
C96   C100  1.409485 A    
C90   C106  1.502705 S    
O39   Cr7   1.954243 S    
C91   C107  1.487042 S    
C102  C106  1.531246 S    
C29   H1    1.081246 S    
C89   C105  1.487125 S    
C70   C78   1.484905 S    
C10   C62   1.456398 S    
O3    C11   1.273151 A    
C104  C108  1.531266 S    
C47   N7    1.437851 S    
C34   C50   1.406871 A    
C3    C34   1.455368 S    
O13   Cr5   1.951938 S    
C13   O33   1.268172 A    
C6    C26   1.462441 S    
C33   C49   1.407697 A    
C58   H26   1.112747 S    
C105  H53   1.114249 S    
O29   C13   1.275479 A    
Cr2   O50   1.992277 S    
C15   C82   1.448685 S    
C101  H49   1.108037 S    
C113  H58   1.109652 S    
C77   H37   1.112349 S    
Cr7   O51   1.987878 S    
O30   Cr2   1.943604 S    
C41   C57   1.496670 S    
C83   C87   1.407356 A    
C38   C54   1.490435 S    
C55   H13   1.111678 S    
C103  H51   1.108000 S    
O14   Cr6   1.943263 S    
C24   C112  1.462494 S    
O21   Cr9   1.956001 S    
O31   C15   1.275472 A    
C7    O19   1.271949 A    
C116  H67   1.108363 S    
C39   C55   1.489302 S    
O37   Cr5   1.954243 S    
C60   H24   1.110873 S    
C51   H11   1.078559 S    
C7    C27   1.460828 S    
C19   O43   1.265681 A    
C72   C80   1.484962 S    
N3    O57   1.300657 A    
C94   C110  1.406686 A    
C68   C72   1.384789 A    
C38   C42   1.388088 A    
O34   Cr6   2.060421 S    
C8    O20   1.272260 A    
O3    Cr3   2.074698 S    
C26   C29   1.340546 D    
N2    O56   1.301729 A    
C42   C62   1.401620 A    
O26   Cr2   2.077281 S    
C37   C53   1.490021 S    
O45   C21   1.275382 A    
O15   Cr7   1.951938 S    
C5    O17   1.269650 A    
C114  H62   1.106327 S    
C56   C60   1.516195 S    
O37   C17   1.276218 A    
O22   Cr10  1.953041 S    
O28   C24   1.265938 A    
C102  C114  1.538002 S    
C80   H40   1.112090 S    
C87   C103  1.500546 S    
C108  N4    1.442705 S    
C35   C39   1.393967 A    
C52   H12   1.078609 S    
C80   H34   1.111911 S    
C5    C25   1.461798 S    
C107  N3    1.468397 S    
C65   C69   1.402592 A    
O17   Cr9   2.065395 S    
C46   C62   1.416726 A    
C65   C74   1.394268 A    
C90   C110  1.402193 A    
C15   O35   1.268173 A    
N7    O65   1.301700 A    
O24   C12   1.281404 A    
C13   C84   1.448739 S    
C81   C85   1.407461 A    
O6    C2    1.281315 A    
C44   C64   1.404203 A    
C47   C51   1.396706 A    
C14   O34   1.258334 A    
O25   Cr1   2.064694 S    
C59   H27   1.111565 S    
O40   Cr8   1.958472 S    
C108  H56   1.101727 S    
C20   O44   1.255056 A    
C84   C88   1.385035 A    
C115  H65   1.100820 S    
O1    Cr1   2.074698 S    
C21   C109  1.450385 S    
C101  C113  1.534201 S    
N4    O59   1.300252 A    
C45   N5    1.439602 S    
Cr1   O49   1.992363 S    
Cr8   O52   1.992222 S    
O32   C16   1.302942 A    
O41   Cr9   2.075614 S    
C104  H52   1.098365 S    
C57   H25   1.112735 S    
N7    O66   1.301531 A    
Cr6   O50   1.992222 S    
O46   C22   1.286960 A    
Cr12  O52   1.988615 S    
C33   C37   1.396405 A    
C53   H15   1.110770 S    
C23   C111  1.450442 S    
C18   C65   1.439335 S    
C32   H4    1.084068 S    
O23   C11   1.282152 A    
C54   H16   1.110574 S    
C96   C112  1.406732 A    
C48   N8    1.437878 S    
O33   Cr5   2.070795 S    
C59   H23   1.111022 S    
C75   H31   1.066782 S    
C67   C71   1.402689 A    
C77   H35   1.105588 S    
O10   Cr6   2.078834 S    
O5    Cr1   1.947148 S    
C60   H28   1.111557 S    
C113  H59   1.100871 S    
O35   Cr7   2.070795 S    
C40   C56   1.489204 S    
C71   C72   1.359131 A    
C48   C52   1.395986 A    
C66   C70   1.384801 A    
O29   Cr1   1.954339 S    
O19   Cr11  2.065395 S    
C92   C108  1.502718 S    
C85   C89   1.371871 A    
C16   C81   1.473237 S    
C93   C109  1.410691 A    
O38   C18   1.287746 A    
O4    Cr4   2.064061 S    
N6    O64   1.301673 A    
C6    O18   1.269833 A    
O28   Cr4   2.077281 S    
O43   Cr11  2.075614 S    
N5    O61   1.301833 A    
C54   C58   1.513966 S    
O45   Cr9   1.944741 S    
C79   H33   1.105713 S    
C39   C43   1.386076 A    
O5    C1    1.277724 A    
C19   C68   1.436972 S    
O12   Cr8   2.078834 S    
C57   H21   1.111831 S    
O36   Cr8   2.060421 S    
C56   H14   1.111668 S    
C48   C64   1.416506 A    
C53   H17   1.111533 S    
C78   H38   1.112017 S    
Cr3   O51   1.992363 S    
O8    C4    1.283656 A    
C66   C73   1.400444 A    
C55   H19   1.111541 S    
N2    O55   1.300228 A    
O38   Cr6   1.958472 S    
O13   C5    1.282398 A    
