data_mof_unit_56509.cif
_audit_creation_date              2012-10-26T19:54:30-0400
_audit_creation_method            fapswitch 2.2
_symmetry_space_group_name_H-M    P1
_symmetry_Int_Tables_number       1
_space_group_crystal_system       triclinic
_cell_length_a                    17.713157
_cell_length_b                    16.418145
_cell_length_c                    10.821809
_cell_angle_alpha                 89.432154
_cell_angle_beta                  89.966828
_cell_angle_gamma                 90.324178
_cell_volume                      3146.96240779

loop_
_atom_site_label
_atom_site_type_symbol
_atom_type_description
_atom_site_fract_x
_atom_site_fract_y
_atom_site_fract_z
_atom_type_partial_charge
C1    C     C_R   0.355217 0.499699 0.503695 0.559629
C2    C     C_R   0.113990 0.499539 0.521524 -0.011869
C3    C     C_1   0.965488 0.501192 0.526389 0.066492
C4    C     C_1   0.033141 0.500006 0.523892 0.066226
C5    C     C_R   0.544208 0.828670 0.584160 -0.139487
C6    C     C_R   0.455477 0.829131 0.415916 -0.131468
C7    C     C_R   0.543596 0.742792 0.582543 0.066749
C8    C     C_R   0.456246 0.743242 0.417561 0.089910
C9    C     C_R   0.499802 0.873037 0.500042 0.023535
C10   C     C_1   0.499728 0.962662 0.500095 -0.020748
C11   C     C_1   0.499705 0.037285 0.500178 -0.020579
C12   C     C_R   0.644555 0.500251 0.502692 0.557703
C13   C     C_R   0.505915 0.501052 0.261548 0.559425
C14   C     C_R   0.492843 0.499768 0.737804 0.554446
C15   C     C_R   0.547088 0.170795 0.579899 -0.135216
C16   C     C_R   0.452365 0.171328 0.420687 -0.131482
C17   C     C_R   0.546347 0.256698 0.578403 0.054638
C18   C     C_R   0.453315 0.257226 0.422021 0.064664
C19   C     C_R   0.499718 0.126916 0.500259 0.021629
C20   C     C_R   0.519143 0.657545 0.104054 0.281369
C21   C     C_R   0.435529 0.641803 0.886049 0.287662
C22   C     C_R   0.487763 0.726071 0.046723 -0.163327
C23   C     C_R   0.726924 0.501303 0.514902 -0.077128
C24   C     C_R   0.443460 0.717761 0.941632 -0.159114
C25   C     C_R   0.473680 0.573123 0.937047 -0.018027
C26   C     C_R   0.501843 0.578300 0.058305 -0.023561
C27   C     C_R   0.510516 0.504119 0.126422 -0.008478
C28   C     C_R   0.485887 0.499858 0.872118 -0.013546
C29   C     C_R   0.511874 0.429905 0.063821 -0.174392
C30   C     C_R   0.503663 0.428412 0.937007 -0.191857
C31   C     C_R   0.847182 0.562193 0.456927 0.224022
C32   C     C_R   0.153290 0.569627 0.482745 0.219971
C33   C     C_R   0.768528 0.560572 0.450203 -0.183440
C34   C     C_R   0.272271 0.498963 0.513801 -0.088249
C35   C     C_R   0.232109 0.569128 0.479916 -0.186217
C36   C     C_3   0.643843 0.651356 0.153836 -0.107211
C37   C     C_3   0.319089 0.601250 0.824005 -0.121983
C38   C     C_3   0.893175 0.691000 0.447931 -0.112094
C39   C     C_3   0.106896 0.644560 0.323392 -0.104284
C40   C     C_3   0.695174 0.416182 0.766166 -0.094679
C41   C     C_3   0.294698 0.370843 0.719434 -0.095917
C42   C     C_3   0.905883 0.426976 0.783493 -0.122664
C43   C     C_3   0.096537 0.353410 0.711114 -0.089636
C44   C     C_R   0.764218 0.445179 0.593264 0.276411
C45   C     C_R   0.232467 0.429321 0.557764 0.268934
C46   C     C_R   0.843380 0.447185 0.601766 0.266836
C47   C     C_R   0.153136 0.429158 0.558132 0.260649
C48   C     C_R   0.884674 0.503740 0.529293 -0.010728
Cu1   Cu    Cu3+1 0.500000 0.580420 0.500000 0.999659
Cu2   Cu    Cu3+1 0.500000 0.419580 0.500000 0.962567
H1    H     H_    0.583034 0.289673 0.640342 0.150066
H2    H     H_    0.414871 0.139901 0.357871 0.102441
H3    H     H_    0.655955 0.679381 0.061631 0.101220
H4    H     H_    0.651465 0.584268 0.150664 0.113794
H5    H     H_    0.686041 0.676194 0.219194 0.138591
H6    H     H_    0.291888 0.639072 0.896164 0.109352
H7    H     H_    0.326469 0.537732 0.858377 0.088802
H8    H     H_    0.280216 0.599097 0.743843 0.143548
H9    H     H_    0.922835 0.683023 0.537926 0.130429
H10   H     H_    0.836588 0.718512 0.462320 0.107275
H11   H     H_    0.927006 0.734372 0.391100 0.146673
H12   H     H_    0.416472 0.290639 0.360315 0.133342
H13   H     H_    0.075107 0.591113 0.287382 0.136477
H14   H     H_    0.162808 0.650052 0.276970 0.100920
H15   H     H_    0.074113 0.699892 0.299565 0.144999
H16   H     H_    0.740093 0.604296 0.391298 0.142943
H17   H     H_    0.261745 0.623653 0.449479 0.156481
H18   H     H_    0.655349 0.370880 0.806612 0.130338
H19   H     H_    0.663285 0.473688 0.751633 0.096789
H20   H     H_    0.740788 0.425812 0.834626 0.114922
H21   H     H_    0.344264 0.412293 0.723033 0.133196
H22   H     H_    0.312548 0.311000 0.757448 0.141323
H23   H     H_    0.498292 0.786121 0.083693 0.134039
H24   H     H_    0.249636 0.394683 0.780770 0.065681
H25   H     H_    0.863630 0.468247 0.825630 0.089339
H26   H     H_    0.958830 0.461492 0.765758 0.101506
H27   H     H_    0.918781 0.378666 0.852546 0.141086
H28   H     H_    0.041705 0.321230 0.722257 0.166673
H29   H     H_    0.091142 0.413849 0.756453 0.062623
H30   H     H_    0.139670 0.316444 0.759835 0.138162
H31   H     H_    0.578201 0.709426 0.647727 0.114279
H32   H     H_    0.421691 0.710213 0.352405 0.119810
H33   H     H_    0.416656 0.770787 0.901179 0.137679
H34   H     H_    0.579207 0.860119 0.650655 0.095607
H35   H     H_    0.420421 0.860934 0.349405 0.093816
H36   H     H_    0.520548 0.372806 0.112667 0.141701
H37   H     H_    0.511159 0.371109 0.889884 0.130752
H38   H     H_    0.584437 0.138954 0.642889 0.106344
N1    N     N_R   0.500000 0.701220 0.500000 -0.195493
N2    N     N_R   0.500000 0.298780 0.500000 -0.223541
O1    O     O_R   0.391260 0.567930 0.500000 -0.497252
O2    O     O_3   0.388267 0.635706 0.784825 -0.531863
O3    O     O_3   0.887602 0.616745 0.384287 -0.560367
O4    O     O_3   0.114710 0.640102 0.452897 -0.556410
O5    O     O_3   0.724315 0.384565 0.655187 -0.523543
O6    O     O_3   0.269844 0.359840 0.596566 -0.514968
O7    O     O_3   0.879466 0.389572 0.674573 -0.522507
O8    O     O_3   0.113846 0.357846 0.583848 -0.521065
O9    O     O_R   0.608740 0.567930 0.500000 -0.513807
O10   O     O_R   0.391280 0.432120 0.500000 -0.463876
O11   O     O_R   0.608720 0.432120 0.500000 -0.459342
O12   O     O_R   0.500000 0.567920 0.319650 -0.454344
O13   O     O_R   0.500000 0.567920 0.680350 -0.460784
O14   O     O_R   0.500030 0.432100 0.319660 -0.524859
O15   O     O_R   0.499970 0.432100 0.680340 -0.535207
O16   O     O_3   0.571124 0.671026 0.197152 -0.539534

loop_
_geom_bond_atom_site_label_1
_geom_bond_atom_site_label_2
_ccdc_geom_bond_type
C32   O4    S    
Cu2   O14   S    
C27   C29   A    
C43   O8    S    
C17   H1    S    
C6    C9    A    
C43   H28   S    
C15   C19   A    
C39   H14   S    
C12   C23   S    
C11   C19   S    
C42   H25   S    
C47   O8    S    
C40   H20   S    
C8    H32   S    
C24   H33   S    
C41   O6    S    
C43   H29   S    
C7    N1    A    
C3    C48   S    
C2    C32   A    
C34   C35   A    
C12   O9    A    
C36   H3    S    
C41   H24   S    
C37   H6    S    
Cu2   N2    S    
C14   O15   A    
C23   C33   A    
C30   H37   S    
C1    C34   S    
Cu2   O15   S    
C31   C33   A    
C9    C10   S    
C37   H8    S    
C41   H21   S    
C38   H11   S    
C1    O1    A    
C39   H15   S    
Cu1   O1    S    
C1    O10   A    
C44   C46   A    
C33   H16   S    
C20   O16   S    
C45   C47   A    
C46   C48   A    
C40   H19   S    
C36   O16   S    
C18   N2    A    
C32   C35   A    
C42   O7    S    
Cu1   O12   S    
C5    C7    A    
C5    H34   S    
C18   H12   S    
C6    C8    A    
C43   H30   S    
C31   O3    S    
C23   C44   A    
C25   C28   A    
C2    C4    S    
C39   O4    S    
C5    C9    A    
C29   C30   A    
Cu1   O9    S    
C35   H17   S    
C26   C27   A    
C34   C45   A    
C13   O14   A    
C6    H35   S    
C29   H36   S    
C42   H27   S    
C41   H22   S    
C38   H10   S    
C7    H31   S    
C46   O7    S    
C20   C22   A    
C31   C48   A    
C22   C24   A    
C40   O5    S    
C3    C4    T    
C15   C17   A    
C21   C25   A    
C37   O2    S    
Cu2   O10   S    
C17   N2    A    
C16   H2    S    
Cu1   N1    S    
Cu1   O13   S    
C2    C47   A    
C39   H13   S    
C42   H26   S    
C28   C30   A    
C25   C26   A    
C12   O11   A    
C44   O5    S    
C14   O13   A    
C20   C26   A    
C16   C19   A    
C38   O3    S    
C36   H4    S    
C10   C11   T    
C38   H9    S    
Cu2   O11   S    
C16   C18   A    
Cu1   Cu2   S    
C40   H18   S    
C21   C24   A    
C36   H5    S    
C13   C27   S    
C8    N1    A    
C22   H23   S    
C14   C28   S    
C13   O12   A    
C45   O6    S    
C37   H7    S    
C15   H38   S    
C21   O2    S    
