data_mof_unit_55153.cif
_audit_creation_date              2012-12-11T20:33:46-0500
_audit_creation_method            fapswitch 2.2
_symmetry_space_group_name_H-M    P1
_symmetry_Int_Tables_number       1
_space_group_crystal_system       monoclinic
_cell_length_a                    24.841385
_cell_length_b                    28.093584
_cell_length_c                    8.642325
_cell_angle_alpha                 90.0
_cell_angle_beta                  95.367152
_cell_angle_gamma                 90.0
_cell_volume                      6004.89346853

loop_
_atom_site_label
_atom_site_type_symbol
_atom_type_description
_atom_site_fract_x
_atom_site_fract_y
_atom_site_fract_z
_atom_type_partial_charge
Ba1   Ba    Ba6+2 0.999910 0.466800 0.844920 1.853949
Ba2   Ba    Ba6+2 0.999910 0.533200 0.344920 1.848148
Ba3   Ba    Ba6+2 0.499910 0.966800 0.844920 1.848148
Ba4   Ba    Ba6+2 0.499910 0.033200 0.344920 1.853950
C1    C     C_3   0.998057 0.226136 0.739574 -0.171767
C2    C     C_3   0.997510 0.774043 0.239633 -0.172486
C3    C     C_3   0.497510 0.725957 0.739632 -0.172486
C4    C     C_3   0.498057 0.273864 0.239574 -0.171767
C5    C     C_3   0.907439 0.342059 0.383855 0.059015
C6    C     C_3   0.907229 0.657920 0.883822 0.059065
C7    C     C_3   0.407229 0.842080 0.383822 0.059066
C8    C     C_3   0.407439 0.157941 0.883855 0.059015
C9    C     C_2   0.855837 0.319075 0.348599 -0.022274
C10   C     C_2   0.855567 0.680854 0.848554 -0.021725
C11   C     C_2   0.355567 0.819145 0.348554 -0.021725
C12   C     C_2   0.355837 0.180925 0.848599 -0.022274
C13   C     C_2   0.828428 0.322401 0.197333 -0.014952
C14   C     C_2   0.828181 0.677547 0.697198 -0.014699
C15   C     C_2   0.328181 0.822453 0.197198 -0.014700
C16   C     C_2   0.328428 0.177599 0.697333 -0.014952
C17   C     C_2   0.844844 0.358686 0.097533 -0.005418
C18   C     C_2   0.844687 0.641292 0.597398 -0.005540
C19   C     C_2   0.344687 0.858708 0.097398 -0.005541
C20   C     C_2   0.344844 0.141314 0.597533 -0.005419
C21   C     C_1   0.882827 0.392344 0.152473 0.114846
C22   C     C_1   0.882706 0.607660 0.652374 0.114858
C23   C     C_1   0.382706 0.892340 0.152374 0.114858
C24   C     C_1   0.382827 0.107656 0.652473 0.114847
C25   C     C_R   0.210492 0.719919 0.036834 0.474836
C26   C     C_R   0.210970 0.280283 0.537397 0.473460
C27   C     C_R   0.710970 0.219717 0.037397 0.473460
C28   C     C_R   0.710492 0.780080 0.536834 0.474836
C29   C     C_R   0.785300 0.287116 0.142396 0.494376
C30   C     C_R   0.784972 0.712790 0.642115 0.494618
C31   C     C_R   0.284972 0.787210 0.142115 0.494618
C32   C     C_R   0.285300 0.212884 0.642396 0.494376
C33   C     C_R   0.156584 0.642456 0.082964 -0.066100
C34   C     C_R   0.157568 0.357975 0.583562 -0.071663
C35   C     C_R   0.657568 0.142025 0.083562 -0.071664
C36   C     C_R   0.656584 0.857544 0.582964 -0.066101
C37   C     C_R   0.125617 0.603559 0.022721 0.068439
C38   C     C_R   0.126719 0.396826 0.522899 0.016269
C39   C     C_R   0.626719 0.103174 0.022899 0.016266
C40   C     C_R   0.625617 0.896441 0.522721 0.068438
C41   C     C_R   0.114909 0.644257 0.772680 -0.015337
C42   C     C_R   0.115197 0.355833 0.273493 0.006622
C43   C     C_R   0.615198 0.144166 0.773493 0.006621
C44   C     C_R   0.614909 0.855743 0.272680 -0.015338
C45   C     C_3   0.016969 0.277005 0.147480 0.598049
C46   C     C_3   0.016658 0.722991 0.647253 0.599764
C47   C     C_3   0.516658 0.777009 0.147252 0.599764
C48   C     C_3   0.516969 0.222995 0.647481 0.598049
C49   C     C_R   0.149222 0.681473 0.828379 -0.135789
C50   C     C_R   0.149474 0.318597 0.329338 -0.123397
C51   C     C_R   0.649474 0.181402 0.829338 -0.123398
C52   C     C_R   0.649222 0.818527 0.328379 -0.135790
C53   C     C_R   0.171629 0.681705 0.977651 -0.004213
C54   C     C_R   0.172175 0.318518 0.478401 0.002045
C55   C     C_R   0.672175 0.181482 0.978402 0.002045
C56   C     C_R   0.671629 0.818295 0.477651 -0.004213
C57   C     C_R   0.109489 0.602244 0.870928 -0.076247
C58   C     C_R   0.110065 0.397920 0.371435 -0.085708
C59   C     C_R   0.610065 0.102079 0.871435 -0.085710
C60   C     C_R   0.609489 0.897755 0.370928 -0.076249
C61   C     C_3   0.028706 0.223831 0.175298 -0.215591
C62   C     C_3   0.028407 0.776147 0.675392 -0.216152
C63   C     C_3   0.528407 0.723853 0.175392 -0.216152
C64   C     C_3   0.528706 0.276169 0.675299 -0.215591
C65   C     C_3   0.194510 0.505795 0.288519 0.621762
C66   C     C_3   0.205440 0.480226 0.770170 0.601706
C67   C     C_3   0.705441 0.019776 0.270169 0.601709
C68   C     C_3   0.694510 0.994204 0.788517 0.621768
C69   C     C_3   0.233070 0.548366 0.306559 -0.265900
C70   C     C_3   0.249906 0.457694 0.684476 -0.301109
C71   C     C_3   0.749906 0.042305 0.184471 -0.301110
C72   C     C_3   0.733069 0.951633 0.806558 -0.265902
C73   C     C_3   0.831091 0.530458 0.042010 0.582439
C74   C     C_3   0.831179 0.469491 0.541882 0.582448
C75   C     C_3   0.331179 0.030509 0.041882 0.582448
C76   C     C_3   0.331091 0.969542 0.542010 0.582439
C77   C     C_3   0.790534 0.549343 0.149111 -0.160828
C78   C     C_3   0.790665 0.450588 0.649082 -0.160784
C79   C     C_3   0.290665 0.049412 0.149082 -0.160785
C80   C     C_3   0.290534 0.950657 0.649111 -0.160828
C81   C     C_3   0.978751 0.266386 0.629952 0.868725
C82   C     C_3   0.978326 0.733770 0.129940 0.869837
C83   C     C_3   0.478326 0.766230 0.629940 0.869837
C84   C     C_3   0.478751 0.233614 0.129952 0.868726
C85   C     C_2   0.913701 0.384336 0.293139 -0.242480
C86   C     C_2   0.913546 0.615660 0.793076 -0.241904
C87   C     C_2   0.413546 0.884340 0.293076 -0.241904
C88   C     C_2   0.413701 0.115664 0.793139 -0.242480
H1    H     H_    0.211265 0.580629 0.339365 0.056041
H2    H     H_    0.234708 0.425843 0.619181 0.074983
H3    H     H_    0.734708 0.074157 0.119172 0.074983
H4    H     H_    0.711264 0.919371 0.839370 0.056040
H5    H     H_    0.265732 0.541645 0.400566 0.126680
H6    H     H_    0.283992 0.446615 0.769155 0.145663
H7    H     H_    0.783992 0.053386 0.269148 0.145664
H8    H     H_    0.765733 0.958354 0.900559 0.126681
H9    H     H_    0.251677 0.555057 0.196800 0.175055
H10   H     H_    0.265281 0.483599 0.602534 0.167503
H11   H     H_    0.765281 0.016400 0.102532 0.167503
H12   H     H_    0.751674 0.944940 0.696798 0.175052
H13   H     H_    0.872237 0.543337 0.080794 0.008685
H14   H     H_    0.872355 0.456631 0.580475 0.008411
H15   H     H_    0.372355 0.043369 0.080476 0.008411
H16   H     H_    0.372237 0.956663 0.580793 0.008684
H17   H     H_    0.749524 0.534917 0.114225 0.158355
H18   H     H_    0.749635 0.464975 0.614219 0.158332
H19   H     H_    0.249635 0.035025 0.114219 0.158332
H20   H     H_    0.249524 0.965083 0.614225 0.158355
H21   H     H_    0.788473 0.588796 0.144835 0.111668
H22   H     H_    0.788638 0.411133 0.644884 0.111866
H23   H     H_    0.288638 0.088867 0.144884 0.111866
H24   H     H_    0.288473 0.911203 0.644835 0.111669
H25   H     H_    0.801974 0.538839 0.269523 0.148354
H26   H     H_    0.802101 0.461128 0.769458 0.148340
H27   H     H_    0.302101 0.038871 0.269458 0.148340
H28   H     H_    0.301974 0.961161 0.769522 0.148354
H29   H     H_    0.963861 0.211442 0.798711 0.143584
H30   H     H_    0.963284 0.788590 0.298968 0.142410
H31   H     H_    0.463284 0.711410 0.798968 0.142410
H32   H     H_    0.463861 0.288558 0.298711 0.143584
H33   H     H_    0.016227 0.196975 0.674766 0.109229
H34   H     H_    0.015510 0.803296 0.174829 0.109230
H35   H     H_    0.515510 0.696704 0.674829 0.109230
H36   H     H_    0.516227 0.303024 0.174767 0.109229
H37   H     H_    0.998817 0.208083 0.247435 0.154533
H38   H     H_    0.998697 0.791784 0.748349 0.154355
H39   H     H_    0.498697 0.708216 0.248349 0.154355
H40   H     H_    0.498817 0.291917 0.747435 0.154533
H41   H     H_    0.842495 0.293344 0.430524 0.135415
H42   H     H_    0.842147 0.706526 0.930544 0.134735
H43   H     H_    0.342147 0.793474 0.430544 0.134736
H44   H     H_    0.342495 0.206656 0.930524 0.135415
H45   H     H_    0.826266 0.361483 0.979082 0.099043
H46   H     H_    0.826143 0.638488 0.478913 0.098985
H47   H     H_    0.326143 0.861511 0.978913 0.098985
H48   H     H_    0.326266 0.138517 0.479082 0.099043
H49   H     H_    0.170568 0.643549 0.204986 0.103319
H50   H     H_    0.172481 0.357701 0.705243 0.102057
H51   H     H_    0.672481 0.142299 0.205243 0.102057
H52   H     H_    0.670569 0.856451 0.704987 0.103319
H53   H     H_    0.157063 0.710157 0.750121 0.114871
H54   H     H_    0.157100 0.289797 0.251303 0.111916
H55   H     H_    0.657100 0.210202 0.751303 0.111917
H56   H     H_    0.657063 0.789843 0.250121 0.114871
H57   H     H_    0.091542 0.570312 0.818725 0.098928
H58   H     H_    0.091800 0.429738 0.319334 0.080525
H59   H     H_    0.591800 0.070262 0.819334 0.080525
H60   H     H_    0.591542 0.929688 0.318725 0.098927
H61   H     H_    0.029804 0.239143 0.827047 0.149786
H62   H     H_    0.029359 0.761119 0.326951 0.150162
H63   H     H_    0.529359 0.738881 0.826950 0.150162
H64   H     H_    0.529804 0.260857 0.327048 0.149786
H65   H     H_    0.021587 0.296169 0.259876 0.015564
H66   H     H_    0.021354 0.703748 0.759500 0.016411
H67   H     H_    0.521354 0.796252 0.259500 0.016412
H68   H     H_    0.521587 0.203831 0.759876 0.015564
H69   H     H_    0.024711 0.204242 0.063419 0.127048
H70   H     H_    0.024126 0.795838 0.563711 0.127025
H71   H     H_    0.524126 0.704162 0.063711 0.127025
H72   H     H_    0.524711 0.295758 0.563420 0.127048
H73   H     H_    0.170079 0.502972 0.388536 0.018376
H74   H     H_    0.195261 0.456037 0.864512 0.080194
H75   H     H_    0.695262 0.043965 0.364507 0.080190
H76   H     H_    0.670080 0.997028 0.888536 0.018370
N1    N     N_R   0.234276 0.718700 0.185128 -0.216685
N2    N     N_R   0.234891 0.281541 0.685508 -0.215407
N3    N     N_R   0.734891 0.218459 0.185508 -0.215407
N4    N     N_R   0.734276 0.781300 0.685128 -0.216685
N5    N     N_R   0.771172 0.251309 0.236680 -0.202104
N6    N     N_R   0.770625 0.748510 0.736434 -0.203607
N7    N     N_R   0.270625 0.751490 0.236434 -0.203607
N8    N     N_R   0.271172 0.248691 0.736680 -0.202104
N9    N     N_R   0.761099 0.288573 0.994551 -0.211720
N10   N     N_R   0.760907 0.711370 0.494091 -0.212315
N11   N     N_R   0.260907 0.788630 0.994091 -0.212315
N12   N     N_R   0.261099 0.211427 0.494551 -0.211720
N13   N     N_R   0.224581 0.755818 0.942747 -0.206784
N14   N     N_R   0.224835 0.244297 0.443342 -0.205374
N15   N     N_R   0.724835 0.255703 0.943342 -0.205373
N16   N     N_R   0.724581 0.744181 0.442748 -0.206785
O1    O     O_2   0.893910 0.433590 0.874460 -0.481597
O2    O     O_2   0.893910 0.566410 0.374460 -0.481669
O3    O     O_2   0.393910 0.933590 0.874460 -0.481669
O4    O     O_2   0.393910 0.066410 0.374460 -0.481597
O5    O     O_3   0.160738 0.493564 0.665679 -0.639813
O6    O     O_3   0.161392 0.507147 0.147680 -0.600545
O7    O     O_3   0.661392 0.992853 0.647680 -0.600543
O8    O     O_3   0.660738 0.006436 0.165680 -0.639813
O9    O     O_3   0.050757 0.294411 0.038513 -0.590464
O10   O     O_3   0.050341 0.705661 0.537887 -0.588369
O11   O     O_3   0.550341 0.794339 0.037887 -0.588368
O12   O     O_3   0.550757 0.205588 0.538513 -0.590464
O13   O     O_3   0.061740 0.523180 0.062830 -0.438631
O14   O     O_3   0.061740 0.476820 0.562830 -0.438984
O15   O     O_3   0.561740 0.023180 0.062830 -0.438984
O16   O     O_3   0.561740 0.976820 0.562830 -0.438631
O17   O     O_3   0.938210 0.476710 0.126870 -0.522801
O18   O     O_3   0.938210 0.523290 0.626870 -0.521285
O19   O     O_3   0.438210 0.976710 0.126870 -0.521285
O20   O     O_3   0.438210 0.023290 0.626870 -0.522802
O21   O     O_3   0.981570 0.392580 0.636990 -0.428286
O22   O     O_3   0.981570 0.607420 0.136990 -0.431045
O23   O     O_3   0.481570 0.892580 0.636990 -0.431045
O24   O     O_3   0.481570 0.107420 0.136990 -0.428286
O25   O     O_2   0.880319 0.369282 0.677975 -0.497580
O26   O     O_2   0.880272 0.630635 0.177901 -0.497382
O27   O     O_2   0.380272 0.869365 0.677901 -0.497381
O28   O     O_2   0.380319 0.130717 0.177975 -0.497580
O29   O     O_3   0.826786 0.480631 0.034658 -0.598368
O30   O     O_3   0.826824 0.519316 0.534526 -0.598607
O31   O     O_3   0.326824 0.980684 0.034526 -0.598607
O32   O     O_3   0.326786 0.019369 0.534658 -0.598368
O33   O     O_3   0.947250 0.298467 0.710330 -0.522006
O34   O     O_3   0.947041 0.701528 0.210389 -0.521947
O35   O     O_3   0.447041 0.798472 0.710389 -0.521947
O36   O     O_3   0.447250 0.201533 0.210331 -0.522006
O37   O     O_2   0.105800 0.433150 0.815270 -0.458636
O38   O     O_2   0.105800 0.566850 0.315270 -0.488095
O39   O     O_2   0.605800 0.933150 0.815270 -0.488096
O40   O     O_2   0.605800 0.066850 0.315270 -0.458633
O41   O     O_3   0.018000 0.392500 0.052760 -0.418798
O42   O     O_3   0.018000 0.607500 0.552760 -0.418209
O43   O     O_3   0.518000 0.892500 0.052760 -0.418209
O44   O     O_3   0.518000 0.107500 0.552760 -0.418798
O45   O     O_2   0.111310 0.360044 0.956897 -0.436176
O46   O     O_2   0.111097 0.640123 0.456014 -0.442152
O47   O     O_2   0.611097 0.859877 0.956014 -0.442153
O48   O     O_2   0.611310 0.139956 0.456897 -0.436176
P1    P     P_3+3 0.888690 0.449140 0.046940 1.009280
P2    P     P_3+3 0.888690 0.550860 0.546940 1.009450
P3    P     P_3+3 0.388690 0.949140 0.046940 1.009450
P4    P     P_3+3 0.388690 0.050860 0.546940 1.009281
P5    P     P_3+3 0.111080 0.448680 0.642780 1.021981
P6    P     P_3+3 0.111080 0.551320 0.142780 1.044138
P7    P     P_3+3 0.611080 0.948680 0.642780 1.044139
P8    P     P_3+3 0.611080 0.051320 0.142780 1.021982
P9    P     P_3+3 0.073168 0.352185 0.085153 1.086825
P10   P     P_3+3 0.072996 0.647946 0.584382 1.080748
P11   P     P_3+3 0.572996 0.852054 0.084382 1.080747
P12   P     P_3+3 0.573168 0.147814 0.585153 1.086826
P13   P     P_3+3 0.929163 0.650126 0.100191 1.083972
P14   P     P_3+3 0.929234 0.349854 0.600233 1.085222
P15   P     P_3+3 0.429234 0.150146 0.100234 1.085222
P16   P     P_3+3 0.429163 0.849874 0.600191 1.083973
Cl1   Cl    Cl    0.038152 0.293973 0.568236 -0.792775
Cl2   Cl    Cl    0.037794 0.706437 0.067809 -0.796425
Cl3   Cl    Cl    0.537794 0.793563 0.567808 -0.796425
Cl4   Cl    Cl    0.538152 0.206027 0.068236 -0.792774
Cl5   Cl    Cl    0.808438 0.553914 0.857649 -0.813489
Cl6   Cl    Cl    0.808485 0.446021 0.357584 -0.813150
Cl7   Cl    Cl    0.308485 0.053979 0.857584 -0.813151
Cl8   Cl    Cl    0.308438 0.946086 0.357649 -0.813488
Cl9   Cl    Cl    0.939285 0.238402 0.472203 -0.723440
Cl10  Cl    Cl    0.938654 0.761681 0.972434 -0.725269
Cl11  Cl    Cl    0.438654 0.738319 0.472434 -0.725269
Cl12  Cl    Cl    0.439286 0.261598 0.972203 -0.723441
C89   C     C_2   0.951740 0.420531 0.355557 0.560643
H77   H     H_    0.937269 0.452834 0.405761 -0.004974
O49   O     O_2   0.999778 0.414463 0.350002 -0.606569
C90   C     C_2   0.951377 0.579346 0.855839 0.560552
H78   H     H_    0.936742 0.547125 0.906122 -0.004931
O50   O     O_2   0.999441 0.585152 0.849998 -0.608587
C91   C     C_2   0.451377 0.920654 0.355839 0.560552
H79   H     H_    0.436742 0.952875 0.406122 -0.004931
O51   O     O_2   0.499441 0.914847 0.349998 -0.608586
C92   C     C_2   0.451740 0.079469 0.855557 0.560643
H80   H     H_    0.437269 0.047166 0.905761 -0.004974
O52   O     O_2   0.499778 0.085537 0.850002 -0.606569
Cl13  Cl    Cl    0.948621 0.283139 0.068447 -0.659439
Cl14  Cl    Cl    0.948267 0.716910 0.568592 -0.660214
Cl15  Cl    Cl    0.448267 0.783090 0.068592 -0.660214
Cl16  Cl    Cl    0.448621 0.216860 0.568447 -0.659439
C93   C     C_2   0.083938 0.215763 0.256183 0.472138
H81   H     H_    0.093464 0.228200 0.374306 0.056392
O53   O     O_2   0.118300 0.194676 0.190729 -0.518699
C94   C     C_2   0.083785 0.784199 0.755319 0.472752
H82   H     H_    0.093564 0.771745 0.873315 0.057178
O54   O     O_2   0.117981 0.805302 0.689241 -0.519189
C95   C     C_2   0.583785 0.715801 0.255318 0.472751
H83   H     H_    0.593564 0.728255 0.373314 0.057178
O55   O     O_2   0.617981 0.694698 0.189240 -0.519188
C96   C     C_2   0.583938 0.284237 0.756184 0.472137
H84   H     H_    0.593464 0.271800 0.874307 0.056393
O56   O     O_2   0.618300 0.305324 0.690730 -0.518699
Cl17  Cl    Cl    0.233586 0.452680 0.285134 -0.700594
Cl18  Cl    Cl    0.231935 0.532963 0.862758 -0.688939
Cl19  Cl    Cl    0.731936 0.967039 0.362762 -0.688932
Cl20  Cl    Cl    0.733587 0.047319 0.785131 -0.700587

loop_
_geom_bond_atom_site_label_1
_geom_bond_atom_site_label_2
_ccdc_geom_bond_type
O2    P2    D    
C82   Cl2   S    
C75   C79   S    
C7    C87   A    
C48   H68   S    
C36   C56   S    
C51   C55   D    
C95   O55   D    
Ba2   O13   S    
C34   H50   S    
C70   H2    S    
O1    P1    D    
Ba1   O14   S    
O6    P6    S    
C37   C57   D    
C76   C80   S    
O5    P5    S    
O23   P16   S    
C74   O30   S    
Ba4   P8    S    
C33   H49   S    
C73   O29   S    
C26   N14   A    
C70   H6    S    
N2    N8    A    
C46   H66   S    
C81   Cl1   S    
N3    N5    A    
Ba1   O41   S    
O35   P16   S    
C80   H20   S    
C25   N13   A    
O12   P12   S    
C33   C37   A    
C30   N6    A    
C7    P16   S    
C78   H18   S    
C19   H47   S    
C12   C16   A    
C59   H59   S    
C94   O54   D    
C34   C38   A    
O28   P15   D    
O43   P11   S    
C43   P12   S    
C87   C91   S    
O8    P8    S    
C11   H43   S    
O41   P9    S    
C21   P1    S    
C1    H29   S    
Ba2   O38   S    
C88   C92   S    
C62   H70   S    
Ba1   O37   S    
Ba1   Ba2   S    
C82   O34   S    
C79   H27   S    
C64   H40   S    
C81   O33   S    
Ba4   O16   S    
C26   N2    A    
C5    C9    A    
C44   C60   S    
Ba3   P3    S    
C11   C15   A    
C7    C11   A    
C4    H36   S    
Ba4   O15   S    
C82   Cl10  S    
C8    C12   A    
Ba1   P1    S    
C90   H78   S    
C2    H30   S    
C32   N12   A    
C66   C70   S    
C42   C58   S    
Ba3   O15   S    
C23   C87   A    
Ba2   O22   S    
C42   P9    S    
C83   O35   S    
C67   O8    S    
C13   C17   A    
C14   C18   A    
C29   N5    A    
C38   C58   D    
C68   O7    S    
C48   C64   S    
C23   P3    S    
C70   H10   S    
C1    C81   S    
C22   P2    S    
C27   N3    A    
C75   O31   S    
C81   Cl9   S    
C28   N4    A    
C41   C49   A    
C80   H24   S    
Ba2   O14   S    
C93   H81   S    
O15   P8    S    
C71   H11   S    
Ba3   O20   S    
C68   H76   S    
C45   H65   S    
O30   P2    S    
Ba2   O17   S    
C13   C29   S    
Ba2   P6    S    
C44   P11   S    
O29   P1    S    
Ba1   O18   S    
C71   H7    S    
C38   P5    S    
N12   N14   A    
Ba4   O24   S    
C37   P6    S    
C64   H72   S    
O7    P7    S    
C33   C53   S    
C3    C83   S    
C67   C71   S    
C71   H3    S    
C47   Cl15  S    
C74   Cl6   S    
O34   P13   S    
C79   H23   S    
C67   Cl19  S    
O22   P13   S    
C73   Cl5   S    
C94   H82   S    
C2    H34   S    
C48   Cl16  S    
O21   P14   S    
C6    C10   A    
Ba3   O43   S    
C83   Cl11  S    
C89   O49   D    
C49   C53   D    
C96   H84   S    
C4    H32   S    
Ba4   O19   S    
C35   C39   A    
C10   H42   S    
Ba1   P5    S    
Ba4   O40   S    
C29   N9    A    
O38   P6    D    
C40   C60   D    
C17   H45   S    
C84   O36   S    
C43   C59   S    
O37   P5    D    
C4    C84   S    
C16   C32   S    
O27   P16   D    
C52   H56   S    
C15   C19   A    
C72   H12   S    
Ba2   O2    S    
O19   P3    S    
O46   P10   D    
O14   P5    S    
C63   H71   S    
C72   H4    S    
O18   P2    S    
O45   P9    D    
O13   P6    S    
C74   C78   S    
O17   P1    S    
O44   P12   S    
C73   C77   S    
C22   C86   A    
C80   H28   S    
C35   C55   S    
C42   C50   A    
C49   H53   S    
Ba3   O16   S    
N1    N7    A    
C75   H15   S    
C68   C72   S    
C47   O11   S    
C6    P13   S    
C47   C63   S    
O33   P14   S    
C62   C94   S    
C5    P14   S    
O40   P8    D    
C78   H22   S    
C2    H62   S    
C47   H67   S    
C45   C61   S    
C46   Cl14  S    
C24   P4    S    
C64   C96   S    
C51   H55   S    
C77   H25   S    
C63   C95   S    
O11   P11   S    
C60   H60   S    
O36   P15   S    
C25   C53   S    
C15   C31   S    
C69   H5    S    
C19   C23   A    
C93   O53   D    
O3    P3    D    
C61   C93   S    
O32   P4    S    
C79   H19   S    
C30   N10   A    
C85   C89   S    
Ba2   P2    S    
C28   C56   S    
C4    H64   S    
C5    C85   A    
Ba3   Ba4   S    
C20   H48   S    
C40   P7    S    
C66   Cl18  S    
C18   C22   A    
C86   C90   S    
Ba2   O42   S    
C43   C51   A    
C76   O32   S    
Ba4   P4    S    
C27   C55   S    
C44   C52   A    
O31   P3    S    
C17   C21   A    
C75   Cl7   S    
C69   H9    S    
C58   H58   S    
C27   N15   A    
O4    P4    D    
O48   P12   D    
C9    H41   S    
C10   C14   A    
C28   N16   A    
Ba1   O13   S    
C20   C24   A    
C3    H31   S    
C48   O12   S    
C41   P10   S    
C65   C69   S    
Ba3   O3    S    
C65   O6    S    
C61   H37   S    
C91   H79   S    
C46   C62   S    
C32   N8    A    
O10   P10   S    
Ba1   O1    S    
C72   H8    S    
C8    P15   S    
C76   H16   S    
C21   C85   A    
C73   H13   S    
C2    C82   S    
C35   H51   S    
C34   C54   S    
C50   H54   S    
C74   H14   S    
C31   N7    A    
Ba4   O4    S    
C3    H35   S    
C36   H52   S    
N11   N13   A    
C83   Cl3   S    
O24   P15   S    
Ba3   O23   S    
O20   P4    S    
O39   P7    D    
C77   H17   S    
C96   O56   D    
C46   O10   S    
C31   N11   A    
C18   H46   S    
C89   H77   S    
C45   O9    S    
C14   C30   S    
C1    H61   S    
C69   H1    S    
C26   C54   S    
C67   H75   S    
C41   C57   S    
Ba1   O21   S    
N4    N6    A    
C3    H63   S    
C65   Cl17  S    
C1    H33   S    
C92   O52   D    
Ba4   O44   S    
C68   Cl20  S    
C63   H39   S    
C65   H73   S    
O16   P7    S    
C66   H74   S    
O42   P10   S    
C39   P8    S    
C84   Cl12  S    
C45   Cl13  S    
C9    C13   A    
C24   C88   A    
O9    P9    S    
C52   C56   D    
O47   P11   D    
C36   C40   A    
C8    C88   A    
C50   C54   D    
C76   Cl8   S    
C6    C86   A    
C90   O50   D    
C39   C59   D    
C61   H69   S    
C95   H83   S    
Ba3   O39   S    
C78   H26   S    
C92   H80   S    
N9    N15   A    
O26   P13   D    
C25   N1    A    
C77   H21   S    
C57   H57   S    
O25   P14   D    
C16   C20   A    
N10   N16   A    
C84   Cl4   S    
C91   O51   D    
C66   O5    S    
Ba3   P7    S    
C62   H38   S    
C12   H44   S    
