data_mof_unit_51092.cif
_audit_creation_date              2013-03-05T16:14:39-0500
_audit_creation_method            fapswitch 2.2
_symmetry_space_group_name_H-M    P1
_symmetry_Int_Tables_number       1
_space_group_crystal_system       triclinic
_cell_length_a                    15.880388
_cell_length_b                    10.627136
_cell_length_c                    9.447545
_cell_angle_alpha                 89.974813
_cell_angle_beta                  90.109528
_cell_angle_gamma                 90.073039
_cell_volume                      1594.39208213

loop_
_atom_site_label
_atom_site_type_symbol
_atom_site_description
_atom_site_fract_x
_atom_site_fract_y
_atom_site_fract_z
_atom_type_partial_charge
O1    O     O_R   0.500040 0.316850 0.620870 -0.520476
O2    O     O_R   0.499960 0.683150 0.379130 -0.520480
O3    O     O_R   0.500000 0.316860 0.379090 -0.600972
O4    O     O_R   0.500000 0.683140 0.620910 -0.600970
C1    C     C_R   0.500609 0.259700 0.499908 0.863749
C2    C     C_R   0.499390 0.740300 0.500092 0.863751
O5    O     O_R   0.379090 0.499980 0.620870 -0.546966
O6    O     O_R   0.620910 0.500020 0.379130 -0.546965
O7    O     O_R   0.379060 0.499990 0.379090 -0.569349
O8    O     O_R   0.620940 0.500010 0.620910 -0.569348
C3    C     C_R   0.340173 0.499668 0.499866 0.843468
C4    C     C_R   0.659827 0.500332 0.500134 0.843468
Cu1   Cu    Cu3+1 0.500020 0.499990 0.643150 1.043276
Cu2   Cu    Cu3+1 0.499980 0.500010 0.356850 1.043273
C5    C     C_3   0.972145 0.452328 0.622688 -0.128408
C6    C     C_3   0.027855 0.547672 0.377312 -0.128408
C7    C     C_3   0.027664 0.381554 0.514544 -0.134158
C8    C     C_3   0.972336 0.618446 0.485456 -0.134158
C9    C     C_1   0.250798 0.499376 0.499548 -0.029780
C10   C     C_1   0.749202 0.500624 0.500452 -0.029780
C11   C     C_3   0.028680 0.570161 0.607615 -0.124952
C12   C     C_3   0.971320 0.429839 0.392385 -0.124953
C13   C     C_3   0.083919 0.499398 0.499471 -0.001987
C14   C     C_3   0.916081 0.500602 0.500529 -0.001987
C15   C     C_1   0.175454 0.499246 0.499349 0.172901
C16   C     C_1   0.824546 0.500754 0.500651 0.172901
C17   C     C_3   0.570866 0.039510 0.560357 -0.016981
C18   C     C_3   0.429134 0.960490 0.439642 -0.016983
C19   C     C_3   0.566704 0.956519 0.426794 -0.182533
C20   C     C_3   0.433296 0.043481 0.573206 -0.182529
H1    H     H_    0.621487 0.918714 0.367707 0.211115
H2    H     H_    0.378512 0.081285 0.632293 0.211114
C21   C     C_3   0.498754 0.876971 0.500324 -0.079075
C22   C     C_3   0.501246 0.123028 0.499676 -0.079073
C23   C     C_3   0.503801 0.958355 0.634819 -0.148573
C24   C     C_3   0.496199 0.041645 0.365181 -0.148578
H3    H     H_    0.507256 0.922673 0.745190 0.205390
H4    H     H_    0.492744 0.077327 0.254810 0.205389
C25   C     C_3   0.535588 0.597973 0.048404 0.467510
C26   C     C_3   0.464412 0.402027 0.951596 0.467511
C27   C     C_3   0.459893 0.597415 0.948673 -0.143944
C28   C     C_3   0.540107 0.402584 0.051327 -0.143944
H5    H     H_    0.427346 0.679685 0.901154 0.174512
H6    H     H_    0.572653 0.320315 0.098846 0.174512
N1    N     N_3   0.500060 0.499970 0.858290 -0.227950
N2    N     N_3   0.499940 0.500030 0.141710 -0.227951
C29   C     C_3   0.576586 0.502921 0.949415 -0.146467
C30   C     C_3   0.423413 0.497079 0.050585 -0.146472
H7    H     H_    0.640772 0.507478 0.903384 0.189089
H8    H     H_    0.359228 0.492522 0.096616 0.189090
C31   C     C_2   0.056580 0.247870 0.530593 0.946765
O9    O     O_2   0.004469 0.163719 0.541498 -0.532529
O10   O     O_R   0.142528 0.220071 0.532776 -0.724797
H9    H     H_    0.153884 0.126698 0.543672 0.367036
C32   C     C_2   0.943419 0.752130 0.469407 0.946765
O11   O     O_2   0.995531 0.836281 0.458502 -0.532529
O12   O     O_R   0.857472 0.779929 0.467224 -0.724796
H10   H     H_    0.846116 0.873302 0.456328 0.367037
C33   C     C_2   0.943048 0.399171 0.761503 0.937318
O13   O     O_2   0.995027 0.363558 0.848215 -0.518732
O14   O     O_R   0.857106 0.391059 0.791340 -0.761195
H11   H     H_    0.845626 0.353779 0.888216 0.343743
C34   C     C_2   0.056952 0.600829 0.238496 0.937318
O15   O     O_2   0.004973 0.636442 0.151785 -0.518733
O16   O     O_R   0.142894 0.608940 0.208660 -0.761196
H12   H     H_    0.154374 0.646220 0.111784 0.343743
C35   C     C_2   0.941260 0.350829 0.270633 0.931507
O17   O     O_2   0.992654 0.300279 0.193209 -0.515103
O18   O     O_R   0.855092 0.335425 0.246149 -0.750277
H13   H     H_    0.842973 0.280086 0.161109 0.342821
C36   C     C_2   0.058740 0.649170 0.729367 0.931507
O19   O     O_2   0.007346 0.699721 0.806791 -0.515103
O20   O     O_R   0.144908 0.664575 0.753851 -0.750276
H14   H     H_    0.157027 0.719914 0.838890 0.342822
C37   C     C_2   0.651791 0.080657 0.627984 0.876702
O21   O     O_2   0.700722 0.001449 0.673015 -0.541686
O22   O     O_R   0.671288 0.208478 0.638661 -0.765659
H15   H     H_    0.727777 0.223879 0.685727 0.357949
C38   C     C_2   0.348208 0.919343 0.372016 0.876699
O23   O     O_2   0.299280 0.998550 0.326980 -0.541686
O24   O     O_R   0.328710 0.791522 0.361343 -0.765661
H16   H     H_    0.272222 0.776121 0.314275 0.357949
N3    N     N_R   0.576887 0.709235 0.105722 0.136317
O25   O     O_R   0.545451 0.820299 0.082516 -0.368395
O26   O     O_R   0.648076 0.698612 0.172827 -0.330218
N4    N     N_R   0.423114 0.290765 0.894277 0.136318
O27   O     O_R   0.454555 0.179702 0.917470 -0.368395
O28   O     O_R   0.351922 0.301386 0.827178 -0.330219

loop_
_geom_bond_atom_site_label_1
_geom_bond_atom_site_label_2
_geom_bond_distance
_ccdc_geom_bond_type
C20   H2    1.110331 S    
C32   O11   1.222110 D    
C34   O16   1.396681 S    
C17   C19   1.541099 S    
C8    C11   1.546787 S    
O20   H14   1.013855 S    
O7    Cu2   1.932115 S    
C7    C31   1.501128 S    
O24   H16   1.013602 S    
Cu2   N2    2.032545 S    
O10   H9    1.013923 S    
O5    C3    1.298519 A    
C19   C24   1.552570 S    
C3    C9    1.419307 S    
C7    C13   1.544096 S    
C20   C23   1.552570 S    
C11   C36   1.501233 S    
C8    C14   1.544096 S    
C23   H3    1.110667 S    
C14   C16   1.453614 S    
O18   H13   1.013855 S    
N4    O28   1.300097 A    
C19   C21   1.536762 S    
C26   C30   1.524369 S    
C28   N2    1.487600 S    
C26   N4    1.455557 S    
O4    Cu1   1.957577 S    
C18   C38   1.498874 S    
C6    C12   1.546564 S    
C6    C34   1.501190 S    
C22   C24   1.539272 S    
C30   H8    1.109938 S    
C33   O13   1.222143 D    
Cu1   Cu2   2.704831 S    
C27   H5    1.110394 S    
O2    C2    1.294448 A    
C28   H6    1.110394 S    
C17   C37   1.498874 S    
N1    C29   1.488270 S    
C17   C22   1.529187 S    
C26   N1    1.476659 S    
N2    C30   1.488271 S    
C33   O14   1.396679 S    
C20   C22   1.536760 S    
C35   O17   1.222094 D    
C38   O23   1.222047 D    
O4    C2    1.292795 A    
C38   O24   1.396480 S    
N4    O27   1.300470 A    
C17   C23   1.540440 S    
O22   H15   1.013601 S    
C31   O9    1.222109 D    
C35   O18   1.396784 S    
C37   O21   1.222047 D    
O7    C3    1.298465 A    
N3    O25   1.300472 A    
O5    Cu1   1.931515 S    
O6    C4    1.298519 A    
C1    C22   1.452473 S    
C4    C10   1.419308 S    
C37   O22   1.396481 S    
C18   C24   1.540442 S    
O3    Cu2   1.957577 S    
O8    C4    1.298466 A    
C8    C32   1.501128 S    
C25   N2    1.476659 S    
C5    C14   1.544186 S    
N3    O26   1.300096 A    
C18   C21   1.529186 S    
C6    C13   1.544186 S    
C32   O12   1.396960 S    
O1    C1    1.294448 A    
O1    Cu1   1.957696 S    
C24   H4    1.110667 S    
C25   C29   1.524368 S    
C5    C7    1.546833 S    
O6    Cu2   1.931516 S    
C5    C33   1.501191 S    
O3    C1    1.292794 A    
O8    Cu1   1.932117 S    
C29   H7    1.109940 S    
C7    C12   1.546786 S    
C2    C21   1.452473 S    
C11   C13   1.544236 S    
C25   N3    1.455558 S    
C18   C20   1.541099 S    
C19   H1    1.110330 S    
Cu1   N1    2.032543 S    
O12   H10   1.013923 S    
C10   C16   1.196484 T    
C26   C28   1.525922 S    
C21   C23   1.539273 S    
C27   C30   1.548952 S    
C12   C14   1.544237 S    
C28   C29   1.548950 S    
C13   C15   1.453614 S    
O14   H11   1.013899 S    
O2    Cu2   1.957697 S    
C12   C35   1.501234 S    
C9    C15   1.196486 T    
C34   O15   1.222142 D    
C5    C11   1.546564 S    
C36   O19   1.222094 D    
C25   C27   1.525923 S    
C6    C8    1.546833 S    
O16   H12   1.013897 S    
C36   O20   1.396784 S    
C27   N1    1.487600 S    
C31   O10   1.396960 S    
