data_mof_unit_67043.cif
_audit_creation_date              2013-03-05T15:58:16-0500
_audit_creation_method            fapswitch 2.2
_symmetry_space_group_name_H-M    P1
_symmetry_Int_Tables_number       1
_space_group_crystal_system       triclinic
_cell_length_a                    8.460192
_cell_length_b                    13.066046
_cell_length_c                    14.512078
_cell_angle_alpha                 94.486222
_cell_angle_beta                  90.418792
_cell_angle_gamma                 98.107675
_cell_volume                      1583.00996874

loop_
_atom_site_label
_atom_site_type_symbol
_atom_site_description
_atom_site_fract_x
_atom_site_fract_y
_atom_site_fract_z
_atom_type_partial_charge
P1    P     P_3+3 0.054400 0.427280 0.286870 0.494000
O1    O     O_2   0.887370 0.460630 0.272300 -0.381244
O2    O     O_3   0.129410 0.451380 0.388510 -0.406003
O3    O     O_3   0.670210 0.653170 0.329170 -0.413507
O4    O     O_2   0.785171 0.597265 0.165181 -0.364343
O5    O     O_3   0.994925 0.293662 0.270376 -0.522022
O6    O     O_3   0.669502 0.771702 0.184068 -0.549849
H1    H     H_    0.875468 0.785682 0.265475 0.141223
C1    C     C_3   0.847134 0.931646 0.218965 0.541479
H2    H     H_    0.953477 0.961310 0.262133 0.030656
P2    P     P_3+3 0.668300 0.742890 0.573060 0.546739
P3    P     P_3+3 0.152968 0.837752 0.379980 0.384494
O7    O     O_2   0.845380 0.761330 0.544970 -0.355274
O8    O     O_3   0.088930 0.704860 0.376040 -0.401204
O9    O     O_2   0.017442 0.894737 0.420639 -0.451184
O10   O     O_3   0.644958 0.792629 0.691698 -0.624228
O11   O     O_3   0.163844 0.865170 0.264389 -0.555526
C2    C     C_3   0.239693 0.788596 0.216477 0.370283
H3    H     H_    0.154438 0.715765 0.203938 0.106178
H4    H     H_    0.346163 0.772119 0.255437 0.086194
C3    C     C_3   0.296418 0.825240 0.124090 -0.623177
H5    H     H_    0.218153 0.785505 0.066744 0.262284
H6    H     H_    0.301639 0.910272 0.122645 0.303011
C4    C     C_3   0.248479 0.746809 0.643046 0.589113
H7    H     H_    0.377483 0.752175 0.640164 0.067975
H8    H     H_    0.200323 0.700881 0.579204 0.054677
C5    C     C_3   0.202275 0.855443 0.639750 -0.809726
H9    H     H_    0.174100 0.888685 0.708978 0.321293
H10   H     H_    0.298625 0.907677 0.610186 0.171066
H11   H     H_    0.096997 0.853924 0.594623 0.253074
Ba1   Ba    Ba6+2 0.855630 0.555280 0.454520 1.605341
C6    C     C_3   0.111257 0.240374 0.305856 0.256117
H12   H     H_    0.065267 0.208065 0.370632 0.105907
H13   H     H_    0.225925 0.288964 0.322353 0.085046
C7    C     C_3   0.137615 0.151198 0.236691 -0.041107
H14   H     H_    0.020386 0.116457 0.208530 0.205740
H15   H     H_    0.193460 0.092680 0.272270 0.082579
C8    C     C_3   0.731145 0.770202 0.771092 0.806871
C9    C     C_3   0.710664 0.851217 0.854867 0.512221
H16   H     H_    0.770252 0.823631 0.914194 0.110574
P4    P     P_3+3 0.135310 0.572810 0.713130 0.608489
O12   O     O_2   0.302330 0.539400 0.727760 -0.380881
O13   O     O_3   0.060300 0.548700 0.611500 -0.383525
O14   O     O_3   0.519500 0.346920 0.670840 -0.432174
O15   O     O_3   0.201964 0.705860 0.727801 -0.408382
P5    P     P_3+3 0.055591 0.159649 0.619847 0.459801
O16   O     O_3   0.614310 0.373510 0.452640 -0.407145
O17   O     O_3   0.100780 0.295230 0.623970 -0.439680
O18   O     O_2   0.192703 0.115867 0.567041 -0.416444
O19   O     O_3   0.081422 0.127463 0.733913 -0.458251
Ba2   Ba    Ba6+2 0.334200 0.444810 0.545490 1.643900
P6    P     P_3+3 0.641202 0.642407 0.209650 0.456758
C10   C     C_3   0.774369 0.828300 0.251801 0.311722
H17   H     H_    0.710753 0.841875 0.317414 0.082362
O20   O     O_3   0.575400 0.626570 0.547370 -0.397361
C11   C     C_3   0.541823 0.318773 0.260974 0.465104
H18   H     H_    0.428187 0.348552 0.251134 0.002849
H19   H     H_    0.622550 0.379807 0.300552 0.136317
C12   C     C_3   0.617473 0.307807 0.166875 -0.734529
H20   H     H_    0.544761 0.251212 0.118063 0.302426
H21   H     H_    0.630959 0.383929 0.136604 0.166636
H22   H     H_    0.736348 0.283526 0.174770 0.284602
P7    P     P_3+3 0.525356 0.241565 0.423644 0.462627
O21   O     O_2   0.344320 0.238700 0.455090 -0.422827
O22   O     O_3   0.516855 0.222516 0.301639 -0.525307
H23   H     H_    0.417971 0.806405 0.112962 0.241224
C13   C     C_3   0.098090 0.219417 0.793421 0.434695
H24   H     H_    0.198031 0.276039 0.771572 0.138726
H25   H     H_    0.985237 0.253494 0.793777 0.026268
C14   C     C_3   0.139207 0.199835 0.892395 -0.645321
H26   H     H_    0.189208 0.274496 0.930580 0.215381
H27   H     H_    0.031514 0.168144 0.929106 0.286265
H28   H     H_    0.229068 0.145866 0.893912 0.279410
P8    P     P_3+3 0.552969 0.349298 0.790025 0.474895
C15   C     C_3   0.502117 0.160041 0.733531 0.314138
H29   H     H_    0.627869 0.168667 0.709700 0.089840
O23   O     O_2   0.430359 0.412518 0.837624 -0.364350
O24   O     O_3   0.488717 0.222832 0.815488 -0.524699
H30   H     H_    0.419801 0.175868 0.678411 0.167118
H31   H     H_    0.516352 0.037779 0.813009 0.342366
C16   C     C_3   0.451819 0.050274 0.751148 -0.710861
H32   H     H_    0.487014 0.999117 0.692877 0.215668
H33   H     H_    0.322314 0.036046 0.763944 0.269737
C17   C     C_R   0.988179 0.440224 0.058255 -0.068020
C18   C     C_R   0.180589 0.487945 0.193981 0.255424
C19   C     C_R   0.333180 0.534688 0.224164 -0.531968
C20   C     C_R   0.444219 0.578608 0.163408 0.223277
C21   C     C_R   0.400590 0.581997 0.070387 -0.219542
C22   C     C_R   0.245318 0.541250 0.037146 0.025092
C23   C     C_R   0.135877 0.488800 0.097452 0.034759
H34   H     H_    0.367736 0.535598 0.296243 0.163531
C24   C     C_R   0.056607 0.499702 0.903305 -0.056691
C25   C     C_R   0.948853 0.443716 0.962900 0.065512
C26   C     C_R   0.016635 0.499072 0.805446 0.286549
C27   C     C_R   0.875815 0.436453 0.772768 -0.367656
C28   C     C_R   0.760448 0.394677 0.833247 0.325292
C29   C     C_R   0.799173 0.395207 0.927346 -0.215910
C30   C     C_R   0.199254 0.552049 0.944245 -0.043199
H35   H     H_    0.488861 0.616104 0.024212 0.235829
H36   H     H_    0.711130 0.359053 0.972902 0.155944
H37   H     H_    0.848746 0.427642 0.699357 0.174482
H38   H     H_    0.904464 0.397526 0.101171 0.145957
H39   H     H_    0.271653 0.603694 0.904267 0.236890
C31   C     C_R   0.766342 0.173424 0.527450 -0.469414
C32   C     C_R   0.443021 0.813610 0.460964 -0.518380
C33   C     C_R   0.407731 0.991350 0.438424 -0.133327
C34   C     C_R   0.350104 0.885148 0.431901 0.274808
C35   C     C_R   0.589090 0.845560 0.506511 0.268819
C36   C     C_R   0.651594 0.956286 0.513764 -0.091152
C37   C     C_R   0.558875 0.029573 0.477611 -0.023852
C38   C     C_R   0.619180 0.139046 0.482723 0.312503
C39   C     C_R   0.858670 0.104708 0.563227 0.268686
C40   C     C_R   0.802767 0.996942 0.554703 -0.065717
H40   H     H_    0.333318 0.043323 0.411736 0.158643
H41   H     H_    0.877435 0.946284 0.582636 0.182709
H42   H     H_    0.812434 0.255311 0.532072 0.165218
H43   H     H_    0.395019 0.732046 0.453881 0.148335
N1    N     N_R   0.234736 0.184677 0.159210 0.260571
O25   O     O_R   0.199530 0.260847 0.114161 -0.433539
O26   O     O_R   0.322509 0.120666 0.119388 -0.354030
N2    N     N_R   0.898553 0.771977 0.754332 0.191339
O27   O     O_R   0.996427 0.781540 0.825277 -0.378780
O28   O     O_R   0.928184 0.710613 0.685462 -0.352392
S1    S     S_3+6 0.666419 0.643400 0.802141 -0.003774
O29   O     O_2   0.768823 0.619795 0.880414 -0.324593
O30   O     O_2   0.500290 0.633536 0.833256 -0.282732
O31   O     O_3   0.680630 0.562278 0.708515 -0.532911
H44   H     H_    0.570468 0.538791 0.686542 0.410532
S2    S     S_3+6 0.816041 0.978110 0.837449 0.004561
O32   O     O_2   0.780883 0.004405 0.742075 -0.361595
O33   O     O_2   0.768489 0.061413 0.904464 -0.201341
O34   O     O_3   0.013686 0.978278 0.848274 -0.497249
H45   H     H_    0.031685 0.963245 0.912760 0.405537
S3    S     S_3+6 0.507599 0.858584 0.891635 -0.002050
O35   O     O_2   0.399562 0.847234 0.809163 -0.287055
O36   O     O_2   0.455681 0.772799 0.951513 -0.340364
O37   O     O_3   0.484528 0.969408 0.954349 -0.461004
H46   H     H_    0.367535 0.968492 0.958777 0.388830
S4    S     S_3+6 0.715411 0.027330 0.235929 -0.043972
O38   O     O_2   0.773532 0.095662 0.320383 -0.367768
O39   O     O_2   0.717719 0.093437 0.155766 -0.202713
O40   O     O_3   0.528387 0.970086 0.250964 -0.579111
H47   H     H_    0.460919 0.025498 0.246180 0.404829
S5    S     S_3+6 0.903893 0.914549 0.101314 0.004527
O41   O     O_2   0.049457 0.987942 0.081246 -0.293228
O42   O     O_2   0.932313 0.805239 0.074740 -0.286911
O43   O     O_3   0.750463 0.940338 0.040184 -0.410090
H48   H     H_    0.657328 0.897775 0.065212 0.399721

loop_
_geom_bond_atom_site_label_1
_geom_bond_atom_site_label_2
_geom_bond_distance
_ccdc_geom_bond_type
O5    C6    1.400172 S    
C20   C21   1.402566 A    
P7    O22   1.768079 S    
P5    C39   1.875195 S    
C3    H23   1.100801 S    
C5    H10   1.099239 S    
C2    C3    1.517277 S    
C17   H38   1.072418 S    
P4    O12   1.554468 D    
O43   H48   0.987032 S    
C4    C5    1.528620 S    
O8    Ba1   2.881942 S    
S3    O37   1.685039 S    
C16   H32   1.105406 S    
C24   C30   1.403682 A    
C10   H17   1.111651 S    
C35   C36   1.464029 A    
S2    O33   1.502004 D    
C32   C34   1.390551 A    
P5    O18   1.546502 D    
Ba1   O13   2.865376 S    
O3    P6    1.741928 S    
C4    O15   1.415844 S    
C7    H15   1.111081 S    
C4    H8    1.105892 S    
O6    P6    1.741970 S    
P1    O1    1.554089 D    
C19   H34   1.082758 S    
O16   P7    1.797646 S    
C8    C9    1.575461 S    
S4    O40   1.675515 S    
C33   C34   1.400048 A    
C11   O22   1.420449 S    
P1    Ba1   3.429401 S    
C11   H18   1.099207 S    
C2    H3    1.111891 S    
N1    O25   1.299680 A    
C31   H42   1.082604 S    
O17   Ba2   2.882543 S    
C7    H14   1.093051 S    
O34   H45   0.986244 S    
P8    O23   1.548674 D    
P3    O11   1.742896 S    
O4    P6    1.549994 D    
C14   H26   1.110533 S    
C1    H2    1.098874 S    
C2    H4    1.115200 S    
C36   C40   1.420828 A    
O12   Ba2   2.861786 S    
S2    O34   1.678010 S    
P2    Ba1   3.457748 S    
C12   H20   1.100176 S    
Ba1   O16   2.903612 S    
C3    H5    1.108126 S    
C5    H11   1.098648 S    
O3    Ba1   2.879932 S    
P4    O13   1.591986 S    
C32   H43   1.082324 S    
C17   C23   1.413227 A    
S5    O43   1.654920 S    
C1    S4    1.792861 S    
C39   C40   1.416227 A    
C16   H33   1.104711 S    
C1    S5    1.782728 S    
P1    C18   1.880068 S    
C32   C35   1.391996 A    
P5    O17   1.755005 S    
C12   H21   1.110106 S    
C13   H24   1.107686 S    
C21   H35   1.079566 S    
C6    C7    1.519352 S    
P8    C28   1.859640 S    
C4    H7    1.085063 S    
S5    O42   1.502827 D    
Ba1   Ba2   4.699719 S    
C9    H16   1.103985 S    
C31   C39   1.396660 A    
O2    Ba2   2.865965 S    
C19   C20   1.388672 A    
C15   C16   1.479944 S    
O16   Ba2   2.961826 S    
C9    S2    1.805420 S    
C18   C19   1.399612 A    
P1    O5    1.744585 S    
O1    Ba1   2.861257 S    
P1    O2    1.592109 S    
C6    H13   1.095730 S    
O14   P8    1.747770 S    
C15   H29   1.114364 S    
P3    C34   1.830329 S    
P2    O10   1.814304 S    
P4    C26   1.918289 S    
P3    O9    1.548915 D    
C18   C23   1.449647 A    
C28   C29   1.401249 A    
C14   H28   1.108649 S    
C24   C26   1.456560 A    
O11   C2    1.405356 S    
C37   C38   1.445271 A    
S4    O39   1.500862 D    
O2    Ba1   2.973464 S    
N2    O27   1.303639 A    
S1    O31   1.672449 S    
O14   Ba2   2.879320 S    
C33   H40   1.079653 S    
C3    H6    1.107513 S    
C1    C10   1.516540 S    
O6    C10   1.410191 S    
O31   H44   0.981906 S    
C25   C29   1.408685 A    
C5    H9    1.104181 S    
C29   H36   1.082519 S    
P2    O20   1.623814 S    
S1    O30   1.470779 D    
S2    O32   1.489752 D    
O19   C13   1.413267 S    
C13   H25   1.108818 S    
C12   H22   1.104188 S    
O7    Ba1   2.914348 S    
P6    C20   1.851153 S    
Ba2   O21   2.914593 S    
P3    O8    1.740820 S    
H31   C16   1.082388 S    
H1    C10   1.109131 S    
C31   C38   1.399282 A    
S3    O36   1.491126 D    
S4    O38   1.495734 D    
S3    O35   1.485889 D    
O37   H46   0.990788 S    
P5    O19   1.759063 S    
C11   C12   1.517554 S    
C22   C30   1.423727 A    
S5    O41   1.495601 D    
C13   C14   1.524709 S    
C6    H12   1.111014 S    
C27   C28   1.399320 A    
C36   C37   1.446362 A    
P2    O7    1.546319 D    
O13   Ba2   2.974252 S    
C24   C25   1.427067 A    
C11   H19   1.096024 S    
Ba2   O20   2.902922 S    
C17   C25   1.426578 A    
P7    C38   1.904998 S    
C26   C27   1.403483 A    
C15   O24   1.405746 S    
N1    O26   1.300282 A    
N2    O28   1.280470 A    
C8    N2    1.436058 S    
P7    O21   1.597556 D    
C27   H37   1.081883 S    
C21   C22   1.412472 A    
C33   C37   1.404540 A    
P8    O24   1.734240 S    
P2    C35   1.904772 S    
P4    O15   1.746232 S    
O40   H47   0.989271 S    
C7    N1    1.455983 S    
C14   H27   1.104806 S    
Ba1   O20   2.962636 S    
C22   C23   1.421099 A    
C15   H30   1.107230 S    
P4    Ba2   3.429877 S    
C8    S1    1.764184 S    
C30   H39   1.056865 S    
O10   C8    1.430332 S    
S1    O29   1.500583 D    
C40   H41   1.075950 S    
C9    S3    1.815872 S    
