data_mof_unit_39709.cif
_audit_creation_date              2013-03-05T16:00:29-0500
_audit_creation_method            fapswitch 2.2
_symmetry_space_group_name_H-M    P1
_symmetry_Int_Tables_number       1
_space_group_crystal_system       triclinic
_cell_length_a                    6.934195
_cell_length_b                    28.882307
_cell_length_c                    31.906901
_cell_angle_alpha                 101.255218
_cell_angle_beta                  89.70925
_cell_angle_gamma                 90.271814
_cell_volume                      6267.14658713

loop_
_atom_site_label
_atom_site_type_symbol
_atom_site_description
_atom_site_fract_x
_atom_site_fract_y
_atom_site_fract_z
_atom_type_partial_charge
O1    O     O_R   0.494350 0.453160 0.452490 -0.589365
O2    O     O_R   0.820990 0.455850 0.538220 -0.555776
O3    O     O_R   0.994300 0.546840 0.547510 -0.561415
C1    C     C_R   0.651169 0.444221 0.550329 1.100581
O4    O     O_R   0.823860 0.447580 0.452250 -0.604815
O5    O     O_R   0.997190 0.538510 0.460920 -0.608328
C2    C     C_R   0.655046 0.434482 0.436493 0.948643
O6    O     O_R   0.491450 0.461490 0.539080 -0.556092
O7    O     O_3   0.661790 0.529840 0.502950 -0.286577
V1    V     V_3+5 0.935470 0.494460 0.499450 1.252185
O8    O     O_R   0.327090 0.544150 0.461780 -0.604432
C3    C     C_R   0.158698 0.554294 0.448300 0.943160
O9    O     O_R   0.324210 0.552420 0.547750 -0.600956
C4    C     C_R   0.155464 0.564778 0.563829 1.076464
V2    V     V_3+5 0.435840 0.505540 0.500550 1.234795
O10   O     O_3   0.159650 0.470160 0.497050 -0.240301
C5    C     C_R   0.129575 0.589997 0.644475 0.301473
C6    C     C_R   0.155079 0.625940 0.681644 0.391894
C7    C     C_R   0.155428 0.674000 0.677523 -0.119508
C8    C     C_R   0.167089 0.684812 0.636577 -0.147825
H1    H     H_    0.172841 0.721239 0.632740 0.156965
C9    C     C_R   0.171225 0.649031 0.600141 -0.210597
H2    H     H_    0.185658 0.658432 0.569016 0.138368
C10   C     C_R   0.148282 0.601706 0.603439 -0.324101
N1    N     N_R   0.239933 0.753712 0.718321 -0.067847
N2    N     N_R   0.223336 0.788359 0.752587 -0.068580
C11   C     C_R   0.101078 0.784223 0.785191 0.174561
N3    N     N_R   0.994785 0.744000 0.781711 -0.044187
N4    N     N_R   0.011630 0.709341 0.747540 -0.010343
C12   C     C_R   0.135780 0.713233 0.715292 0.263273
C13   C     C_R   0.944177 0.820425 0.855369 -0.184419
H3    H     H_    0.848853 0.790131 0.852206 0.171494
C14   C     C_R   0.923702 0.856969 0.891303 0.357107
C15   C     C_R   0.046133 0.897153 0.896667 -0.459027
C16   C     C_R   0.185869 0.899832 0.864444 0.400098
C17   C     C_R   0.203786 0.862672 0.828868 -0.206844
H4    H     H_    0.310362 0.865597 0.804583 0.174439
C18   C     C_R   0.083274 0.822828 0.823706 0.007888
C19   C     C_R   0.152962 0.658108 0.282412 0.568243
N5    N     N_R   0.137467 0.676864 0.325240 -0.172525
C20   C     C_R   0.128365 0.724881 0.339195 0.571935
C21   C     C_R   0.128650 0.755589 0.309719 -0.112132
C22   C     C_R   0.125890 0.736587 0.265805 0.014253
C23   C     C_R   0.136173 0.687219 0.251919 -0.078777
C24   C     C_R   0.130616 0.804678 0.323400 -0.228500
C25   C     C_R   0.129375 0.835543 0.294353 0.488146
C26   C     C_R   0.119279 0.816646 0.249387 -0.269673
C27   C     C_R   0.114375 0.766805 0.235713 -0.032802
C28   C     C_R   0.099714 0.746740 0.191801 -0.044741
C29   C     C_R   0.107289 0.697409 0.178405 -0.093272
C30   C     C_R   0.129074 0.668094 0.208013 -0.076288
C31   C     C_R   0.114855 0.844651 0.217173 0.620084
N6    N     N_R   0.081624 0.824416 0.175194 -0.177616
C32   C     C_R   0.076953 0.776408 0.162148 0.550015
O11   O     O_2   0.186710 0.611572 0.269319 -0.476905
O12   O     O_2   0.118185 0.742960 0.381454 -0.533492
H5    H     H_    0.135472 0.819120 0.357298 0.216374
O13   O     O_2   0.147358 0.891445 0.227002 -0.402179
O14   O     O_2   0.050616 0.757370 0.120462 -0.515427
H6    H     H_    0.098260 0.681233 0.144860 0.183940
H7    H     H_    0.135929 0.630304 0.196416 0.187796
C33   C     C_R   0.211522 0.855172 0.113986 -0.006592
H8    H     H_    0.337380 0.833211 0.114330 0.183039
C34   C     C_R   0.202518 0.885036 0.084416 -0.114840
H9    H     H_    0.321946 0.885472 0.062480 0.156549
C35   C     C_R   0.040569 0.913615 0.082854 -0.193303
C36   C     C_R   0.887574 0.911594 0.111555 -0.292482
H10   H     H_    0.761871 0.933420 0.110488 0.181997
C37   C     C_R   0.896996 0.882464 0.142151 0.582552
C38   C     C_R   0.062277 0.854158 0.143703 0.017247
C39   C     C_R   0.292592 0.648179 0.384605 -0.023007
H11   H     H_    0.410010 0.672704 0.383306 0.176337
C40   C     C_R   0.299996 0.618462 0.414349 -0.108231
H12   H     H_    0.423046 0.620827 0.435444 0.143079
C41   C     C_R   0.150229 0.586284 0.416978 -0.196471
C42   C     C_R   0.992277 0.584695 0.389255 -0.306839
H13   H     H_    0.875879 0.560015 0.391018 0.186089
C43   C     C_R   0.983943 0.614089 0.358881 0.595971
C44   C     C_R   0.137470 0.646035 0.356127 0.012364
C45   C     C_R   0.440232 0.210825 0.825423 0.476039
N7    N     N_R   0.578518 0.176909 0.825662 -0.184389
C46   C     C_R   0.724391 0.170791 0.795760 0.526042
C47   C     C_R   0.736334 0.199500 0.764803 -0.105186
C48   C     C_R   0.593527 0.233546 0.763688 0.009903
C49   C     C_R   0.442891 0.239033 0.794037 -0.024893
C50   C     C_R   0.885289 0.193927 0.734370 -0.195999
C51   C     C_R   0.893287 0.221237 0.702562 0.379503
C52   C     C_R   0.752306 0.256750 0.701755 -0.229607
C53   C     C_R   0.600929 0.262134 0.732239 0.003631
C54   C     C_R   0.455844 0.296013 0.731393 0.003448
C55   C     C_R   0.304558 0.300590 0.761414 -0.101792
C56   C     C_R   0.298450 0.272561 0.792399 -0.114567
C57   C     C_R   0.758065 0.287740 0.672265 0.550826
N8    N     N_R   0.614861 0.320376 0.671865 -0.181018
C58   C     C_R   0.465171 0.324686 0.700561 0.522154
O15   O     O_2   0.301343 0.217762 0.855751 -0.552233
O16   O     O_2   0.856045 0.136447 0.795341 -0.541605
H14   H     H_    0.994348 0.167172 0.734335 0.209167
O17   O     O_2   0.906046 0.285775 0.644435 -0.476106
O18   O     O_2   0.327090 0.357283 0.699789 -0.523738
H15   H     H_    0.190347 0.325992 0.761179 0.169860
H16   H     H_    0.179732 0.277220 0.815005 0.173384
C59   C     C_R   0.780660 0.381053 0.639729 -0.023392
H17   H     H_    0.897022 0.382162 0.662421 0.173976
C60   C     C_R   0.790092 0.409885 0.609407 -0.018437
H18   H     H_    0.915136 0.432296 0.609326 0.231104
C61   C     C_R   0.640248 0.410273 0.579922 -0.339942
C62   C     C_R   0.481947 0.378870 0.580118 0.339769
C63   C     C_R   0.474179 0.350093 0.611021 -0.112121
H19   H     H_    0.354961 0.325721 0.611030 0.195476
C64   C     C_R   0.622616 0.350960 0.640921 0.113666
C65   C     C_R   0.397334 0.122259 0.862697 -0.053006
H20   H     H_    0.271915 0.125447 0.843390 0.164642
C66   C     C_R   0.386654 0.093301 0.893022 -0.104556
H21   H     H_    0.251786 0.075531 0.896812 0.171938
C67   C     C_R   0.548856 0.086656 0.917451 -0.145357
C68   C     C_R   0.720437 0.110901 0.911727 -0.166625
H22   H     H_    0.847443 0.106950 0.930318 0.141128
C69   C     C_R   0.729110 0.141160 0.882376 -0.043382
H23   H     H_    0.861772 0.160145 0.879241 0.150747
C70   C     C_R   0.568277 0.146784 0.857116 0.180570
C71   C     C_R   0.470164 0.371116 0.387132 -0.102963
H24   H     H_    0.341795 0.380020 0.406453 0.152435
C72   C     C_R   0.459235 0.334724 0.351020 -0.118740
H25   H     H_    0.322554 0.316841 0.343372 0.125701
C73   C     C_R   0.621437 0.322227 0.324651 0.122078
C74   C     C_R   0.795704 0.346639 0.335682 -0.104026
H26   H     H_    0.923617 0.337754 0.316207 0.122421
C75   C     C_R   0.807608 0.382489 0.372266 -0.133825
H27   H     H_    0.944076 0.400514 0.379808 0.129942
C76   C     C_R   0.644558 0.395455 0.398310 -0.129747
N9    N     N_R   0.734415 0.282473 0.252772 -0.056085
N10   N     N_R   0.720139 0.248856 0.217680 -0.004690
C77   C     C_R   0.579720 0.215439 0.214170 0.251507
N11   N     N_R   0.455189 0.216719 0.247345 -0.036551
N12   N     N_R   0.468201 0.250547 0.282280 -0.060878
C78   C     C_R   0.608098 0.284215 0.285782 0.099701
C79   C     C_R   0.400417 0.173246 0.148330 0.560438
C80   C     C_R   0.391376 0.136150 0.112403 -0.286175
H28   H     H_    0.265578 0.132586 0.092055 0.184197
C81   C     C_R   0.545403 0.104427 0.101779 -0.192106
C82   C     C_R   0.709369 0.110248 0.128016 -0.111911
H29   H     H_    0.830391 0.086390 0.120875 0.140433
C83   C     C_R   0.717763 0.146266 0.164361 -0.062935
H30   H     H_    0.843953 0.148971 0.184504 0.193571
C84   C     C_R   0.564416 0.177978 0.175131 -0.102807
O19   O     O_R   0.699050 0.038480 0.960880 -0.596022
O20   O     O_R   0.366680 0.052470 0.047720 -0.603724
O21   O     O_R   0.193410 0.961530 0.039110 -0.601663
C85   C     C_R   0.535433 0.065499 0.063520 0.954385
O22   O     O_R   0.369510 0.044100 0.961740 -0.587748
O23   O     O_R   0.196260 0.953110 0.952520 -0.556866
C86   C     C_R   0.538766 0.054407 0.948434 1.004261
O24   O     O_R   0.696210 0.046900 0.047470 -0.606178
O25   O     O_3   0.528780 0.970170 0.997070 -0.239075
V3    V     V_3+5 0.255080 0.005530 0.000540 1.226804
O26   O     O_R   0.866350 0.947520 0.952280 -0.549813
C87   C     C_R   0.035209 0.934891 0.936140 1.061243
O27   O     O_R   0.863520 0.955880 0.038260 -0.595517
C88   C     C_R   0.031930 0.945706 0.051676 0.971263
V4    V     V_3+5 0.754720 0.994440 0.999470 1.246401
O28   O     O_3   0.030880 0.029830 0.002930 -0.290714
S1    S     S_3+6 0.050342 0.531959 0.647567 0.008599
O29   O     O_2   0.199325 0.496918 0.627244 -0.282302
O30   O     O_2   0.010620 0.524914 0.692197 -0.164089
O31   O     O_3   0.843655 0.521649 0.620033 -0.562048
H31   H     H_    0.752694 0.545860 0.634797 0.352351
S2    S     S_3+6 0.135327 0.896876 0.317207 0.081072
O32   O     O_2   0.317969 0.918278 0.303801 -0.140117
O33   O     O_2   0.965020 0.921257 0.302336 -0.170958
O34   O     O_3   0.130361 0.906052 0.370940 -0.485629
H32   H     H_    0.993817 0.901394 0.378485 0.361366
S3    S     S_3+6 0.698066 0.880988 0.176915 -0.017978
O35   O     O_2   0.752401 0.903760 0.221708 -0.184088
O36   O     O_2   0.530605 0.907381 0.163439 -0.294768
O37   O     O_3   0.633787 0.824543 0.175815 -0.569276
H33   H     H_    0.535966 0.826044 0.198763 0.363105
S4    S     S_3+6 0.222620 0.611566 0.731403 0.043744
O38   O     O_2   0.044167 0.605212 0.756662 -0.217654
O39   O     O_2   0.339021 0.566896 0.723936 -0.187129
O40   O     O_3   0.358881 0.654880 0.759764 -0.536190
H34   H     H_    0.377247 0.645717 0.787812 0.392094
S5    S     S_3+6 0.777071 0.610958 0.326062 -0.028639
O41   O     O_2   0.822083 0.582900 0.282353 -0.209687
O42   O     O_2   0.615132 0.586861 0.344897 -0.308682
O43   O     O_3   0.708703 0.665663 0.321876 -0.576611
H35   H     H_    0.596436 0.660937 0.302412 0.369793
N13   N     N_R   0.039550 0.210199 0.670251 0.266769
O44   O     O_R   0.989109 0.194140 0.630848 -0.273164
O45   O     O_R   0.217210 0.204954 0.681327 -0.390611
N14   N     N_R   0.334924 0.373511 0.547894 0.247652
O46   O     O_R   0.382317 0.370667 0.507956 -0.402924
O47   O     O_R   0.159291 0.362882 0.557147 -0.373651
S6    S     S_3+6 0.211724 0.215074 0.157261 -0.032404
O48   O     O_2   0.294817 0.263363 0.157701 -0.263466
O49   O     O_2   0.062256 0.204425 0.122724 -0.264204
O50   O     O_3   0.106923 0.213992 0.204669 -0.567808
H36   H     H_    0.112317 0.246959 0.220783 0.371394
N15   N     N_R   0.780566 0.851915 0.922584 0.232732
O51   O     O_R   0.618095 0.874389 0.923264 -0.355218
O52   O     O_R   0.793321 0.817229 0.942993 -0.366662
N16   N     N_R   0.304486 0.941052 0.866146 0.246243
O53   O     O_R   0.226777 0.982756 0.874349 -0.427994
O54   O     O_R   0.482298 0.936848 0.852742 -0.369974

loop_
_geom_bond_atom_site_label_1
_geom_bond_atom_site_label_2
_geom_bond_distance
_ccdc_geom_bond_type
S6    O49   1.503117 D    
C51   C52   1.424226 A    
C73   C78   1.490195 S    
C73   C74   1.407334 A    
C20   C21   1.413046 A    
O24   V4    1.974745 S    
C7    C8    1.403158 A    
C30   H7    1.083096 S    
C1    O6    1.297446 A    
C68   C69   1.401017 A    
C65   C66   1.398494 A    
C66   H21   1.082200 S    
C54   C58   1.405213 A    
C20   O12   1.349169 S    
N6    C32   1.367989 A    
C62   C63   1.408877 A    
C60   C61   1.406740 A    
C24   H5    1.081218 S    
N2    C11   1.361517 A    
N4    C12   1.359295 A    
C25   S2    1.779554 S    
N13   O45   1.300988 A    
N3    N4    1.333512 A    
S1    O30   1.501225 D    
O21   V3    1.977972 S    
C42   C43   1.409093 A    
C6    C7    1.419600 A    
C72   C73   1.406740 A    
S5    O42   1.501840 D    
O27   C88   1.300291 A    
O5    C3    1.298636 A    
S6    O50   1.680567 S    
C14   N15   1.431086 S    
C11   C18   1.494510 S    
C43   S5    1.771875 S    
C28   C32   1.404834 A    
N8    C64   1.448258 S    
C67   C68   1.406795 A    
C33   C38   1.404102 A    
C59   C64   1.400472 A    
C15   C16   1.422039 A    
C40   H12   1.083079 S    
C4    C10   1.486943 S    
C33   C34   1.398871 A    
C5    S1    1.782351 S    
O1    C2    1.298328 A    
C52   C57   1.419922 A    
O8    V2    1.974433 S    
S2    O34   1.683136 S    
C19   O11   1.348530 S    
O23   V3    1.975115 S    
N9    N10   1.334935 A    
C61   C62   1.421362 A    
C13   C14   1.405762 A    
C62   N14   1.437850 S    
O37   H33   0.990409 S    
O1    V2    1.974513 S    
C45   O15   1.349347 S    
C22   C27   1.420729 A    
C57   O17   1.347701 S    
C2    C76   1.491378 S    
C56   H16   1.083135 S    
C11   N3    1.359235 A    
C79   S6    1.769041 S    
S6    O48   1.504042 D    
V3    O28   1.703988 S    
N15   O51   1.300852 A    
S3    O35   1.501117 D    
O9    C4    1.298530 A    
O26   C87   1.301483 A    
C40   C41   1.403455 A    
O50   H36   0.990503 S    
C37   S3    1.771247 S    
C55   H15   1.083167 S    
C50   H14   1.083627 S    
N6    C38   1.450812 S    
C35   C88   1.487720 S    
C65   H20   1.082891 S    
C49   C56   1.404688 A    
C81   C85   1.491121 S    
V4    O28   2.159517 S    
C32   O14   1.349382 S    
C69   C70   1.407717 A    
C77   C84   1.485798 S    
C1    C61   1.489497 S    
O23   C87   1.300071 A    
O25   V3    2.151597 S    
C5    C10   1.419933 A    
C82   H29   1.083145 S    
N16   O53   1.300529 A    
C36   H10   1.082686 S    
S4    O40   1.682910 S    
C26   C27   1.420663 A    
S4    O38   1.503298 D    
N11   N12   1.334301 A    
S1    O31   1.679625 S    
C48   C49   1.409000 A    
C83   C84   1.403693 A    
O19   V4    1.975819 S    
S5    O43   1.682001 S    
C55   C56   1.395061 A    
O4    C2    1.301413 A    
C43   C44   1.419081 A    
N12   C78   1.359710 A    
N7    C46   1.375030 A    
C29   C30   1.395359 A    
N1    N2    1.335184 A    
O40   H34   0.990488 S    
O25   V4    1.709285 S    
C39   C44   1.404928 A    
N14   O46   1.301442 A    
N7    C70   1.452204 S    
N13   O44   1.301281 A    
C36   C37   1.409588 A    
C16   C17   1.407150 A    
C34   C35   1.403690 A    
O2    C1    1.300408 A    
C41   C42   1.406298 A    
C74   C75   1.403513 A    
S5    O41   1.501968 D    
C45   C49   1.408949 A    
S4    O39   1.503578 D    
C47   C48   1.404294 A    
C80   H28   1.082517 S    
C8    H1    1.083201 S    
C33   H8    1.082654 S    
O27   V4    1.974043 S    
C5    C6    1.426603 A    
N5    C44   1.451401 S    
N8    C58   1.370503 A    
C59   C60   1.395398 A    
C57   N8    1.374200 A    
O22   V3    1.980702 S    
C31   O13   1.344671 S    
O3    C4    1.297519 A    
O34   H32   0.990774 S    
C67   C86   1.485912 S    
C77   N11   1.357652 A    
S3    O36   1.501928 D    
N16   O54   1.301419 A    
O43   H35   0.990541 S    
C15   C87   1.497979 S    
C23   C30   1.403022 A    
S2    O32   1.503093 D    
C8    C9    1.396882 A    
C28   C29   1.406513 A    
O6    V2    1.974524 S    
O9    V2    1.975519 S    
C22   C23   1.410147 A    
C85   O24   1.298545 A    
O31   H31   0.990612 S    
C46   O16   1.349383 S    
C82   C83   1.399850 A    
C48   C53   1.419085 A    
C19   C23   1.410151 A    
C71   C72   1.401967 A    
C74   H26   1.083072 S    
O2    V1    1.980931 S    
O26   V4    1.975938 S    
C71   C76   1.407889 A    
C19   N5    1.372035 A    
C31   N6    1.372941 A    
C50   C51   1.402415 A    
C39   C40   1.399573 A    
C75   H27   1.083121 S    
O7    V1    2.151702 S    
S3    O37   1.681824 S    
N1    C12   1.358826 A    
C25   C26   1.433958 A    
N5    C20   1.372985 A    
C58   O18   1.349663 S    
C51   N13   1.434334 S    
C13   H3    1.083225 S    
O20   C85   1.301067 A    
C45   N7    1.375136 A    
O5    V1    1.978189 S    
C66   C67   1.406679 A    
C69   H23   1.082856 S    
C16   N16   1.436233 S    
C71   H24   1.083150 S    
C26   C31   1.427159 A    
C60   H18   1.079857 S    
C13   C18   1.404502 A    
C83   H30   1.081803 S    
C29   H6    1.083070 S    
C34   H9    1.083175 S    
C63   C64   1.403788 A    
N9    C78   1.359933 A    
O4    V1    1.976418 S    
O3    V1    1.975225 S    
V1    O10   1.703850 S    
C81   C82   1.405231 A    
N14   O47   1.301069 A    
C17   C18   1.402854 A    
C42   H13   1.082801 S    
C80   C81   1.406963 A    
C54   C55   1.406137 A    
N10   C77   1.357260 A    
C79   C84   1.416317 A    
C27   C28   1.411801 A    
S2    O33   1.503210 D    
C14   C15   1.418330 A    
C35   C36   1.406394 A    
C9    C10   1.399492 A    
O22   C86   1.298950 A    
O7    V2    1.709695 S    
C37   C38   1.417615 A    
O19   C86   1.298163 A    
O21   C88   1.298294 A    
S1    O29   1.502983 D    
C79   C80   1.409444 A    
C24   C25   1.405825 A    
C65   C70   1.406278 A    
C47   C50   1.402149 A    
C39   H11   1.082600 S    
C52   C53   1.415682 A    
C6    S4    1.782988 S    
C17   H4    1.082979 S    
C46   C47   1.410058 A    
C21   C22   1.401707 A    
C3    C41   1.489103 S    
C63   H19   1.083265 S    
C59   H17   1.083017 S    
N15   O52   1.300612 A    
C9    H2    1.083489 S    
O20   V3    1.976916 S    
C53   C54   1.410765 A    
C68   H22   1.083127 S    
C7    C12   1.490480 S    
C21   C24   1.399733 A    
V2    O10   2.159522 S    
O8    C3    1.300691 A    
C72   H25   1.083098 S    
C75   C76   1.407848 A    
