data_mof_unit_67960.cif
_audit_creation_date              2013-03-05T16:46:09-0500
_audit_creation_method            fapswitch 2.2
_symmetry_space_group_name_H-M    P1
_symmetry_Int_Tables_number       1
_space_group_crystal_system       triclinic
_cell_length_a                    11.047444
_cell_length_b                    10.884099
_cell_length_c                    10.26559
_cell_angle_alpha                 89.573279
_cell_angle_beta                  92.135517
_cell_angle_gamma                 89.543422
_cell_volume                      1233.41619423

loop_
_atom_site_label
_atom_site_type_symbol
_atom_site_description
_atom_site_fract_x
_atom_site_fract_y
_atom_site_fract_z
_atom_type_partial_charge
O1    O     O_R   0.500020 0.316790 0.614690 -0.582159
O2    O     O_R   0.500000 0.316760 0.385350 -0.635827
C1    C     C_R   0.515838 0.262658 0.499503 0.908169
O3    O     O_R   0.316770 0.500030 0.614670 -0.594431
O4    O     O_R   0.316750 0.499990 0.385330 -0.600264
C2    C     C_R   0.260643 0.500206 0.496949 0.920149
Zn1   Zn    Zn3+2 0.500010 0.500020 0.653130 1.018584
Zn2   Zn    Zn3+2 0.499990 0.499980 0.346870 1.021294
O5    O     O_R   0.500000 0.683240 0.614650 -0.589678
O6    O     O_R   0.499980 0.683210 0.385310 -0.607093
O7    O     O_R   0.683250 0.500010 0.614670 -0.622433
O8    O     O_R   0.683230 0.499970 0.385330 -0.601285
C3    C     C_R   0.495263 0.739019 0.499423 0.940792
C4    C     C_R   0.738891 0.499674 0.501263 0.864489
H1    H     H_    0.108707 0.229519 0.940798 0.234430
C5    C     C_R   0.120159 0.402193 0.043107 -0.116677
C6    C     C_R   0.114629 0.459360 0.165329 0.204746
C7    C     C_R   0.102139 0.387257 0.278116 -0.001313
C8    C     C_R   0.093832 0.259503 0.268692 -0.170243
H2    H     H_    0.079334 0.206160 0.356260 0.223492
C9    C     C_R   0.092409 0.202144 0.147167 0.029744
C10   C     C_R   0.104547 0.274075 0.034518 -0.299545
C11   C     C_R   0.930668 0.446066 0.400237 -0.121490
H3    H     H_    0.879238 0.394534 0.329494 0.199236
C12   C     C_R   0.871947 0.502924 0.500226 -0.070845
C13   C     C_R   0.941250 0.557110 0.599508 -0.074431
C14   C     C_R   0.065880 0.575484 0.585268 0.000274
C15   C     C_R   0.126701 0.508081 0.490219 -0.113408
C16   C     C_R   0.056016 0.444943 0.394989 0.022781
C17   C     C_R   0.856049 0.651850 0.793837 -0.132437
H4    H     H_    0.857402 0.740196 0.744228 0.197234
C18   C     C_R   0.827510 0.644513 0.924788 -0.107216
C19   C     C_R   0.822216 0.525643 0.983385 -0.090085
C20   C     C_R   0.848407 0.420968 0.911185 -0.226897
H5    H     H_    0.842725 0.329275 0.951949 0.224332
C21   C     C_R   0.885161 0.430527 0.786067 0.249014
C22   C     C_R   0.895776 0.547558 0.729647 0.125770
C23   C     C_R   0.432155 0.071288 0.557306 -0.044680
C24   C     C_R   0.521438 0.129681 0.494283 -0.113375
C25   C     C_R   0.605868 0.057524 0.428794 0.188931
C26   C     C_R   0.594180 0.928821 0.430985 -0.195528
H6    H     H_    0.663108 0.872794 0.387345 0.210329
C27   C     C_R   0.498450 0.872165 0.496146 -0.140461
C28   C     C_R   0.406759 0.947197 0.546462 0.100265
C29   C     C_3   0.348351 0.961660 0.678499 0.304218
C30   C     C_3   0.416630 0.079353 0.697244 -0.404481
H7    H     H_    0.360632 0.160331 0.720454 0.186653
C31   C     C_R   0.497814 0.393634 0.072490 0.151723
N1    N     N_R   0.499160 0.499140 0.142800 -0.173519
C32   C     C_R   0.512233 0.605065 0.068529 0.028892
C33   C     C_R   0.523688 0.602072 0.928635 -0.211135
H8    H     H_    0.547894 0.684226 0.877140 0.209426
N2    N     N_R   0.499160 0.499180 0.857150 -0.133119
C34   C     C_R   0.496705 0.393220 0.932833 0.346411
C35   C     C_3   0.402252 0.295234 0.934285 -0.569689
C36   C     C_3   0.404282 0.298958 0.081627 -0.296305
H9    H     H_    0.317630 0.319510 0.882062 0.222756
H10   H     H_    0.434702 0.205802 0.906202 0.229536
H11   H     H_    0.324023 0.337321 0.126354 0.181589
C37   C     C_2   0.777715 0.500673 0.112146 0.883618
O9    O     O_2   0.762540 0.583774 0.188218 -0.557020
O10   O     O_R   0.748451 0.378981 0.143187 -0.824884
H12   H     H_    0.697468 0.367413 0.221102 0.376021
I1    I     I_    0.921409 0.261230 0.691773 -0.282489
I2    I     I_    0.763764 0.130766 0.350169 -0.270176
I3    I     I_    0.159196 0.009329 0.642429 -0.211249
I4    I     I_    0.360714 0.851181 0.849428 -0.216416
C38   C     C_2   0.544780 0.066625 0.763084 1.006980
O11   O     O_2   0.595267 0.966392 0.771290 -0.543592
O12   O     O_R   0.610986 0.171099 0.797783 -0.779396
H13   H     H_    0.693781 0.150407 0.838309 0.378190
C39   C     C_2   0.497524 0.725785 0.127424 1.041676
O13   O     O_2   0.581437 0.798023 0.133414 -0.601347
O14   O     O_R   0.383757 0.759643 0.170319 -0.721035
H14   H     H_    0.382137 0.845554 0.206843 0.342689
C40   C     C_2   0.160141 0.470611 0.927889 0.946497
O15   O     O_2   0.137195 0.431869 0.818650 -0.653193
O16   O     O_R   0.239969 0.568236 0.943894 -0.742121
H15   H     H_    0.275356 0.594272 0.858768 0.373730
C41   C     C_2   0.444731 0.180178 0.145598 1.017781
O17   O     O_2   0.541399 0.132126 0.120091 -0.562325
O18   O     O_R   0.366951 0.122900 0.230707 -0.805172
H16   H     H_    0.400032 0.041705 0.264947 0.337094
I5    I     I_    0.111132 0.654533 0.181380 -0.153839
C42   C     C_2   0.076884 0.067401 0.139634 1.003237
O19   O     O_2   0.075228 0.015461 0.034313 -0.586257
O20   O     O_R   0.063287 0.999483 0.254200 -0.768848
H17   H     H_    0.049192 0.909367 0.237407 0.385183
C43   C     C_2   0.127512 0.675700 0.657813 0.953303
O21   O     O_2   0.211732 0.728686 0.609015 -0.631826
O22   O     O_R   0.086459 0.713506 0.778078 -0.789826
H18   H     H_    0.118108 0.795142 0.808746 0.395821
C44   C     C_2   0.806763 0.762867 0.992284 1.048833
O23   O     O_2   0.753628 0.846476 0.933709 -0.549191
O24   O     O_R   0.854573 0.783633 0.117894 -0.721216
H19   H     H_    0.834647 0.868770 0.150821 0.375551

loop_
_geom_bond_atom_site_label_1
_geom_bond_atom_site_label_2
_geom_bond_distance
_ccdc_geom_bond_type
C35   C36   1.512734 S    
C44   O23   1.221183 D    
C26   H6    1.083739 S    
O24   H19   1.014070 S    
O20   H17   1.009429 S    
C42   O19   1.223386 D    
C31   C34   1.433297 A    
C13   C14   1.405713 A    
O4    C2    1.322911 A    
C11   C16   1.387792 A    
C21   C22   1.402916 A    
C8    C9    1.398789 A    
C40   O16   1.393015 S    
C20   H5    1.082487 S    
C17   H4    1.085213 S    
O7    C4    1.336622 A    
C37   O10   1.403074 S    
C7    C8    1.398067 A    
O5    C3    1.324642 A    
C32   C39   1.460849 S    
C30   H7    1.105311 S    
H1    C10   1.082957 S    
C2    C15   1.480529 S    
C8    H2    1.084104 S    
C38   O11   1.222204 D    
C29   I4    2.119334 S    
C11   H3    1.070146 S    
O12   H13   1.013607 S    
C43   O22   1.394826 S    
O22   H18   1.005867 S    
C18   C44   1.487431 S    
C1    C24   1.449637 S    
C44   O24   1.395795 S    
O1    Zn1   2.035840 S    
C9    C10   1.402839 A    
C26   C27   1.415330 A    
O3    Zn1   2.047984 S    
C23   C28   1.386083 A    
C19   C20   1.397981 A    
Zn1   O5    2.030044 S    
C42   O20   1.397922 S    
C23   C24   1.358983 A    
C9    C42   1.480162 S    
O14   H14   1.010290 S    
C33   H8    1.076018 S    
C40   O15   1.219491 D    
C39   O14   1.394854 S    
C24   C25   1.407717 A    
O16   H15   1.010111 S    
C39   O13   1.220419 D    
C32   C33   1.446934 A    
C12   C13   1.389510 A    
N2    C34   1.386775 A    
C17   C22   1.392877 A    
C37   O9    1.214036 D    
O1    C1    1.341648 A    
Zn1   O7    2.076865 S    
C27   C28   1.411342 A    
C30   C38   1.550641 S    
O10   H12   1.003018 S    
Zn2   O8    2.047985 S    
C6    C7    1.405547 A    
C7    C16   1.464574 S    
C41   O18   1.395247 S    
C25   C26   1.407869 A    
O8    C4    1.319048 A    
N1    C32   1.388921 A    
C19   C37   1.451873 S    
C25   I2    2.108840 S    
C35   H9    1.089853 S    
O3    C2    1.337528 A    
Zn1   N2    2.094709 S    
C3    C27   1.450049 S    
C28   C29   1.531371 S    
C31   C36   1.470066 S    
C34   C35   1.498352 S    
C15   C16   1.413987 A    
C5    C10   1.409441 A    
C5    C40   1.476368 S    
O2    Zn2   2.030041 S    
C41   O17   1.223342 D    
O6    C3    1.326124 A    
O4    Zn2   2.076865 S    
C13   C22   1.448007 S    
C36   C41   1.502847 S    
C36   H11   1.094814 S    
C6    I5    2.132046 S    
C18   C19   1.425270 A    
O2    C1    1.312781 A    
C17   C18   1.394011 A    
C5    C6    1.407780 A    
C31   N1    1.360760 A    
C14   C43   1.481244 S    
C20   C21   1.364903 A    
C11   C12   1.382053 A    
C4    C12   1.471070 S    
C23   C30   1.456286 S    
C29   C30   1.501725 S    
Zn2   O6    2.035840 S    
O18   H16   1.009332 S    
C35   H10   1.079551 S    
C29   I3    2.166841 S    
C38   O12   1.398119 S    
C33   N2    1.366878 A    
C43   O21   1.219918 D    
C21   I1    2.129878 S    
Zn2   N1    2.094666 S    
C14   C15   1.411881 A    
