data_mof_unit_24424.cif
_audit_creation_date              2013-03-05T15:47:35-0500
_audit_creation_method            fapswitch 2.2
_symmetry_space_group_name_H-M    P1
_symmetry_Int_Tables_number       1
_space_group_crystal_system       triclinic
_cell_length_a                    7.229368
_cell_length_b                    15.012595
_cell_length_c                    22.432594
_cell_angle_alpha                 89.998105
_cell_angle_beta                  90.007601
_cell_angle_gamma                 93.266204
_cell_volume                      2430.68986726

loop_
_atom_site_label
_atom_site_type_symbol
_atom_site_description
_atom_site_fract_x
_atom_site_fract_y
_atom_site_fract_z
_atom_type_partial_charge
O1    O     O_R   0.390810 0.844810 0.447340 -0.598966
O2    O     O_R   0.109190 0.155190 0.947340 -0.598965
O3    O     O_R   0.890810 0.655190 0.552660 -0.579145
O4    O     O_R   0.609190 0.344810 0.052660 -0.579194
O5    O     O_R   0.720550 0.655820 0.440420 -0.586497
O6    O     O_R   0.779450 0.344180 0.940420 -0.586487
O7    O     O_R   0.220550 0.844180 0.559580 -0.593481
O8    O     O_R   0.279450 0.155820 0.059580 -0.593462
C1    C     C_R   0.547868 0.626273 0.426499 0.931857
C2    C     C_R   0.952114 0.373723 0.926496 0.931811
C3    C     C_R   0.056763 0.874169 0.573442 0.932971
C4    C     C_R   0.443253 0.125834 0.073445 0.933047
O9    O     O_R   0.720530 0.844130 0.440420 -0.588135
O10   O     O_R   0.779470 0.155870 0.940420 -0.588175
O11   O     O_R   0.220530 0.655870 0.559580 -0.594183
O12   O     O_R   0.279470 0.344130 0.059580 -0.594292
O13   O     O_R   0.890830 0.844810 0.552660 -0.583271
O14   O     O_R   0.609170 0.155190 0.052660 -0.583314
O15   O     O_R   0.390830 0.655190 0.447340 -0.585877
O16   O     O_R   0.109170 0.344810 0.947340 -0.585745
C5    C     C_R   0.556468 0.873308 0.425846 0.969324
C6    C     C_R   0.943512 0.126688 0.925848 0.969302
C7    C     C_R   0.048300 0.626711 0.573818 0.972561
C8    C     C_R   0.451722 0.373291 0.073817 0.972672
O17   O     O_3   0.557310 0.749980 0.536820 -0.278471
O18   O     O_3   0.942690 0.250020 0.036820 -0.278594
O19   O     O_3   0.057310 0.750020 0.463180 -0.288637
O20   O     O_3   0.442690 0.249980 0.963180 -0.288584
V1    V     V_3+5 0.832160 0.749980 0.493170 1.194429
V2    V     V_3+5 0.667840 0.250020 0.993170 1.194347
V3    V     V_3+5 0.332160 0.750020 0.506830 1.185499
V4    V     V_3+5 0.167840 0.249980 0.006830 1.185396
C9    C     C_R   0.152507 0.588207 0.862391 -0.111924
C10   C     C_R   0.346604 0.412019 0.362324 -0.112028
C11   C     C_R   0.236592 0.927974 0.155661 -0.118776
C12   C     C_R   0.263614 0.071909 0.655737 -0.118633
H1    H     H_    0.116963 0.533954 0.950050 0.132430
H2    H     H_    0.382168 0.466220 0.449993 0.132433
H3    H     H_    0.212182 0.980600 0.067939 0.136323
H4    H     H_    0.288161 0.019291 0.568026 0.136300
H5    H     H_    0.273123 0.699074 0.777601 0.188967
H6    H     H_    0.225431 0.301358 0.277496 0.189015
H7    H     H_    0.150588 0.828345 0.248846 0.169461
H8    H     H_    0.349671 0.171450 0.748942 0.169319
H9    H     H_    0.230006 0.647115 0.878810 0.160609
H10   H     H_    0.268667 0.353221 0.378713 0.160699
H11   H     H_    0.126886 0.877040 0.147791 0.157483
H12   H     H_    0.373467 0.122782 0.647910 0.157265
C13   C     C_R   0.981174 0.448505 0.884011 -0.147574
C14   C     C_R   0.518711 0.551494 0.384013 -0.147690
C15   C     C_R   0.429206 0.052320 0.117594 -0.160938
C16   C     C_R   0.070849 0.947669 0.617598 -0.161047
C17   C     C_R   0.939935 0.471309 0.592716 -0.382416
C18   C     C_R   0.560806 0.528587 0.092729 -0.382233
C19   C     C_R   0.698384 0.018957 0.397177 -0.366591
C20   C     C_R   0.801334 0.981111 0.897162 -0.366563
C21   C     C_R   0.909784 0.396605 0.628695 0.766455
C22   C     C_R   0.591387 0.603255 0.128710 0.766319
C23   C     C_R   0.739020 0.087975 0.357566 0.760233
C24   C     C_R   0.760295 0.912203 0.857507 0.760180
C25   C     C_R   0.953181 0.400093 0.689662 0.145050
C26   C     C_R   0.547822 0.599844 0.189661 0.145065
C27   C     C_R   0.657557 0.088563 0.300941 0.147737
C28   C     C_R   0.841571 0.911628 0.800864 0.148016
C29   C     C_R   0.013917 0.483090 0.716193 -0.136979
C30   C     C_R   0.486379 0.516939 0.216178 -0.136980
C31   C     C_R   0.535840 0.015194 0.282197 -0.140522
C32   C     C_R   0.963756 0.984855 0.782165 -0.140713
C33   C     C_R   0.066706 0.555857 0.677171 0.048060
C34   C     C_R   0.433193 0.444241 0.177140 0.048195
C35   C     C_R   0.483147 0.948268 0.326070 0.062806
C36   C     C_R   0.016696 0.051707 0.826071 0.062896
C37   C     C_R   0.028041 0.496596 0.779635 0.176784
C38   C     C_R   0.471950 0.503458 0.279618 0.176759
C39   C     C_R   0.462549 0.005008 0.222405 0.171402
C40   C     C_R   0.037249 0.994995 0.722395 0.171296
C41   C     C_R   0.126156 0.574826 0.801070 0.111851
C42   C     C_R   0.373228 0.425372 0.301015 0.112054
C43   C     C_R   0.319865 0.937558 0.211802 0.142847
C44   C     C_R   0.180159 0.062358 0.711845 0.143258
C45   C     C_R   0.196790 0.639724 0.761326 -0.074194
C46   C     C_R   0.302249 0.360586 0.261248 -0.074355
C47   C     C_R   0.260441 0.879129 0.256971 -0.101110
C48   C     C_R   0.239652 0.120739 0.757031 -0.101048
C49   C     C_R   0.160363 0.632444 0.700700 -0.076208
C50   C     C_R   0.338922 0.367801 0.200638 -0.076496
C51   C     C_R   0.345913 0.881723 0.312142 -0.088386
C52   C     C_R   0.154123 0.118172 0.812180 -0.088527
C53   C     C_R   0.945166 0.436905 0.822775 -0.149179
C54   C     C_R   0.555054 0.563032 0.322794 -0.149287
C55   C     C_R   0.524691 0.057537 0.172292 -0.156029
C56   C     C_R   0.975172 0.942501 0.672253 -0.156475
C57   C     C_R   0.084816 0.524670 0.903190 -0.128986
C58   C     C_R   0.414557 0.475459 0.403149 -0.128799
C59   C     C_R   0.287581 0.985945 0.109675 -0.109023
C60   C     C_R   0.212632 0.013974 0.609733 -0.108661
C61   C     C_R   0.024899 0.550067 0.615359 -0.241176
C62   C     C_R   0.475247 0.449949 0.115347 -0.241342
C63   C     C_R   0.569652 0.949238 0.383056 -0.257016
C64   C     C_R   0.930232 0.050760 0.883057 -0.257114
H13   H     H_    0.855939 0.380096 0.810052 0.152968
H14   H     H_    0.644694 0.619712 0.310113 0.153110
H15   H     H_    0.643522 0.103810 0.174186 0.171133
H16   H     H_    0.856220 0.896310 0.674066 0.171514
H17   H     H_    0.904132 0.466409 0.545850 0.181602
H18   H     H_    0.596812 0.533424 0.045880 0.181617
H19   H     H_    0.767305 0.020544 0.440133 0.187132
H20   H     H_    0.732475 0.979529 0.940123 0.187123
H21   H     H_    0.208121 0.687361 0.672365 0.136471
H22   H     H_    0.290863 0.312950 0.172293 0.136708
H23   H     H_    0.300064 0.831296 0.344003 0.149966
H24   H     H_    0.200111 0.168548 0.844058 0.150060
N1    N     N_R   0.966263 0.317283 0.720844 0.238869
O21   O     O_R   0.114488 0.303601 0.751584 -0.445037
O22   O     O_R   0.842192 0.251997 0.713256 -0.358024
N2    N     N_R   0.535352 0.682696 0.220831 0.238933
O23   O     O_R   0.387187 0.696671 0.251510 -0.445088
O24   O     O_R   0.659966 0.747755 0.213287 -0.357998
N3    N     N_R   0.682293 0.169352 0.267299 0.242703
O25   O     O_R   0.846907 0.207487 0.259894 -0.364988
O26   O     O_R   0.538315 0.211483 0.251366 -0.441171
N4    N     N_R   0.815849 0.830991 0.767119 0.242723
O27   O     O_R   0.650744 0.793497 0.759520 -0.365304
O28   O     O_R   0.959202 0.788297 0.751331 -0.440969
F1    F     F_    0.847557 0.318717 0.602978 -0.643265
F2    F     F_    0.654261 0.681050 0.103009 -0.643372
F3    F     F_    0.854963 0.157117 0.375563 -0.649775
F4    F     F_    0.643999 0.843168 0.875455 -0.649930

loop_
_geom_bond_atom_site_label_1
_geom_bond_atom_site_label_2
_geom_bond_distance
_ccdc_geom_bond_type
O17   V3    1.761192 S    
C47   C51   1.382777 A    
C22   C26   1.403407 A    
C19   C23   1.383762 A    
O19   V1    1.761294 S    
C9    H9    1.084052 S    
O3    C7    1.326526 A    
H6    C46   1.084265 S    
C44   C48   1.391986 A    
C11   H11   1.084311 S    
C36   C64   1.422767 A    
C29   C37   1.440337 A    
O1    C5    1.338475 A    
C8    C62   1.482896 S    
C28   C32   1.433227 A    
O9    V1    2.044244 S    
C50   H22   1.081885 S    
H4    C60   1.083978 S    
C49   H21   1.081909 S    
C21   F1    1.357386 S    
O4    C8    1.326512 A    
C28   N4    1.430903 S    
C51   H23   1.079460 S    
C23   F3    1.357868 S    
C30   C38   1.440385 A    
O1    V3    1.979151 S    
H7    C47   1.084509 S    
N2    O23   1.300309 A    
O2    V4    1.979138 S    
O3    V1    2.013516 S    
C12   C60   1.385909 A    
C54   H14   1.078025 S    
C3    C16   1.481990 S    
C15   C55   1.407768 A    
C1    O15   1.323711 A    
C20   H20   1.084404 S    
C2    O16   1.323712 A    
C14   C54   1.407093 A    
O2    C6    1.338498 A    
C16   C60   1.398703 A    
O14   V2    1.979601 S    
C39   C55   1.430796 A    
C53   H13   1.078046 S    
O11   C7    1.334890 A    
O15   V3    2.014122 S    
O12   C8    1.334969 A    
O10   V2    2.044422 S    
C36   C52   1.402457 A    
O16   V4    2.013985 S    
O5    V1    1.979745 S    
N3    O26   1.298506 A    
C27   C31   1.433111 A    
O7    V3    2.044465 S    
C18   H18   1.084180 S    
H1    C57   1.083841 S    
O8    V4    2.044287 S    
C40   C44   1.423764 A    
C24   F4    1.357877 S    
C6    C64   1.489146 S    
C12   C44   1.399672 A    
C13   C53   1.407076 A    
C5    C63   1.489107 S    
C26   C30   1.427330 A    
O18   V4    1.761357 S    
C14   C58   1.398688 A    
C17   C61   1.396606 A    
C46   C50   1.388328 A    
C35   C63   1.422751 A    
C20   C24   1.383670 A    
C19   H19   1.084401 S    
C32   C36   1.442233 A    
C19   C63   1.396745 A    
O7    C3    1.327513 A    
O5    C1    1.337740 A    
C25   C29   1.427301 A    
C27   N3    1.431006 S    
C42   C46   1.395752 A    
C41   C45   1.395783 A    
O8    C4    1.327532 A    
H5    C45   1.084262 S    
H2    C58   1.083841 S    
O9    C5    1.328382 A    
O11   V3    1.979768 S    
H3    C59   1.083980 S    
C40   C56   1.430838 A    
C10   H10   1.084055 S    
C7    C61   1.482820 S    
C10   C58   1.390576 A    
C22   F2    1.357389 S    
C25   N1    1.434256 S    
C35   C51   1.402484 A    
C16   C56   1.407748 A    
C32   C40   1.447126 A    
C20   C64   1.396711 A    
N4    O28   1.298492 A    
C34   C50   1.403627 A    
C4    C15   1.482002 S    
C33   C49   1.403653 A    
N1    O21   1.300334 A    
C18   C22   1.388772 A    
C3    O13   1.337998 A    
C17   C21   1.388810 A    
O6    V2    1.979818 S    
C1    C14   1.478548 S    
C48   C52   1.382666 A    
C55   H15   1.074418 S    
H8    C48   1.084505 S    
C9    C57   1.390624 A    
O6    C2    1.337686 A    
N3    O25   1.301533 A    
C21   C25   1.403436 A    
C11   C59   1.385983 A    
O12   V4    1.979696 S    
C23   C27   1.400287 A    
C24   C28   1.400214 A    
O10   C6    1.328348 A    
O20   V2    1.761129 S    
C37   C53   1.427379 A    
O13   V1    1.979589 S    
C10   C42   1.401565 A    
C43   C47   1.392048 A    
C9    C41   1.401599 A    
C30   C34   1.434571 A    
C29   C33   1.434513 A    
C38   C54   1.427433 A    
C11   C43   1.399685 A    
N2    O24   1.301509 A    
C12   H12   1.084312 S    
C31   C35   1.442101 A    
O4    V2    2.013653 S    
C26   N2    1.434228 S    
C56   H16   1.074288 S    
C52   H24   1.079439 S    
C17   H17   1.084177 S    
C31   C39   1.446988 A    
C38   C42   1.420812 A    
C4    O14   1.338013 A    
C37   C41   1.420795 A    
C18   C62   1.396628 A    
C13   C57   1.398664 A    
N4    O27   1.301534 A    
C2    C13   1.478494 S    
C39   C43   1.423687 A    
C45   C49   1.388368 A    
C34   C62   1.420721 A    
C15   C59   1.398742 A    
N1    O22   1.301507 A    
C33   C61   1.420710 A    
