data_mof_unit_29740.cif
_audit_creation_date              2012-12-11T15:52:33-0500
_audit_creation_method            fapswitch 2.2
_symmetry_space_group_name_H-M    P1
_symmetry_Int_Tables_number       1
_space_group_crystal_system       triclinic
_cell_length_a                    6.927857
_cell_length_b                    14.602623
_cell_length_c                    15.973064
_cell_angle_alpha                 90.232316
_cell_angle_beta                  90.1239
_cell_angle_gamma                 90.219631
_cell_volume                      1615.88417823

loop_
_atom_site_label
_atom_site_type_symbol
_atom_type_description
_atom_site_fract_x
_atom_site_fract_y
_atom_site_fract_z
_atom_type_partial_charge
O1    O     O_R   0.494400 0.415640 0.412830 -0.541016
O2    O     O_R   0.823920 0.405510 0.586560 -0.536970
O3    O     O_R   0.994250 0.584360 0.587170 -0.540908
C1    C     C_R   0.654964 0.384327 0.615801 0.748445
O4    O     O_R   0.824110 0.404610 0.413450 -0.544767
O5    O     O_R   0.994440 0.583460 0.412820 -0.541522
C2    C     C_R   0.654800 0.382209 0.384327 0.688920
O6    O     O_R   0.494210 0.416540 0.587180 -0.538937
O7    O     O_3   0.660810 0.558680 0.500000 -0.375540
V1    V     V_3+5 0.935650 0.489110 0.500000 1.430972
O8    O     O_R   0.324150 0.594490 0.413440 -0.544280
C3    C     C_R   0.155133 0.616569 0.384271 0.690954
O9    O     O_R   0.323970 0.595390 0.586550 -0.546810
C4    C     C_R   0.155674 0.615099 0.617525 0.689913
V2    V     V_3+5 0.435660 0.510890 0.500000 1.416279
O10   O     O_3   0.160630 0.441320 0.500000 -0.365838
C5    C     C_3   0.943249 0.678499 0.732830 -0.340200
H1    H     H_    0.829766 0.699791 0.687492 0.116805
H2    H     H_    0.909681 0.606323 0.749693 0.197258
C6    C     C_3   0.933951 0.742463 0.810743 0.339392
H3    H     H_    0.807908 0.788554 0.802297 0.081510
H4    H     H_    0.073035 0.796559 0.606239 0.154030
H5    H     H_    0.018927 0.892032 0.715674 0.248110
C7    C     C_3   0.176356 0.781473 0.657802 -0.368619
C8    C     C_3   0.301298 0.663733 0.757712 -0.271288
C9    C     C_3   0.144908 0.682914 0.689858 0.007975
H6    H     H_    0.447274 0.662039 0.728843 0.150336
H7    H     H_    0.275814 0.595303 0.785975 0.205071
C10   C     C_3   0.121765 0.803111 0.815962 -0.111345
C11   C     C_3   0.148517 0.851361 0.729945 -0.329875
C12   C     C_3   0.298784 0.738992 0.827111 -0.233533
H8    H     H_    0.298916 0.707401 0.890166 0.220518
H9    H     H_    0.434265 0.779930 0.822983 0.163549
H10   H     H_    0.324546 0.788542 0.631768 0.165852
H11   H     H_    0.273987 0.899171 0.732053 0.201015
C13   C     C_R   0.953322 0.772818 0.215162 -0.107384
H12   H     H_    0.812545 0.790589 0.190695 0.122279
C14   C     C_R   0.964390 0.709685 0.280784 -0.146237
H13   H     H_    0.831563 0.680634 0.304685 0.120187
C15   C     C_R   0.144030 0.684368 0.314914 -0.049371
C16   C     C_R   0.312307 0.723815 0.281366 -0.143798
H14   H     H_    0.453107 0.705979 0.305763 0.117053
C17   C     C_R   0.301235 0.786963 0.215759 -0.142005
H15   H     H_    0.434068 0.815976 0.191822 0.116218
C18   C     C_R   0.121568 0.812462 0.181791 -0.022589
C19   C     C_R   0.758843 0.238528 0.682206 -0.218148
H16   H     H_    0.855202 0.228034 0.629759 0.169368
C20   C     C_R   0.743162 0.171476 0.744363 0.432083
C21   C     C_R   0.619922 0.185278 0.814415 -0.287514
C22   C     C_R   0.505894 0.266346 0.816924 0.430340
C23   C     C_R   0.516077 0.329385 0.750759 -0.180195
H17   H     H_    0.427455 0.390328 0.751969 0.169002
C24   C     C_R   0.644063 0.316720 0.684187 -0.177315
C25   C     C_R   0.812134 0.275163 0.280953 -0.142247
H18   H     H_    0.953008 0.294570 0.304708 0.117696
C26   C     C_R   0.801358 0.211223 0.215454 -0.127951
H19   H     H_    0.934352 0.183245 0.190938 0.113135
C27   C     C_R   0.621726 0.183751 0.182234 -0.023195
C28   C     C_R   0.453184 0.222120 0.216379 -0.157411
H20   H     H_    0.312328 0.202741 0.192581 0.114070
C29   C     C_R   0.463961 0.286127 0.281820 -0.135451
H21   H     H_    0.330976 0.314183 0.306265 0.121230
C30   C     C_R   0.643586 0.313509 0.315128 -0.046379
O11   O     O_R   0.771300 0.080930 0.910090 -0.495567
O12   O     O_R   0.441270 0.092800 0.083770 -0.549884
O13   O     O_R   0.271080 0.913920 0.084380 -0.563313
C31   C     C_R   0.610536 0.114998 0.113096 0.678116
O14   O     O_R   0.441580 0.091910 0.910670 -0.502214
O15   O     O_R   0.271390 0.913020 0.910040 -0.548714
C32   C     C_R   0.610430 0.115627 0.882839 0.895710
O16   O     O_R   0.770990 0.081830 0.084440 -0.558471
O17   O     O_3   0.604750 0.938760 0.997250 -0.382467
V3    V     V_3+5 0.329850 0.008280 0.997210 1.592387
O18   O     O_R   0.941680 0.901940 0.910610 -0.504566
C33   C     C_R   0.110948 0.876166 0.884519 0.808870
O19   O     O_R   0.941370 0.902830 0.083720 -0.541286
C34   C     C_R   0.110416 0.880649 0.112787 0.678796
V4    V     V_3+5 0.829860 0.986420 0.997150 1.628073
O20   O     O_3   0.104830 0.056030 0.997180 -0.345490
S1    S     S_3+6 0.867475 0.067809 0.727670 -0.048638
O21   O     O_2   0.045918 0.066989 0.781296 -0.313961
O22   O     O_2   0.739386 0.988560 0.751019 -0.406092
O23   O     O_3   0.933365 0.056854 0.626823 -0.514511
H22   H     H_    0.811099 0.046687 0.595826 0.328291
S2    S     S_3+6 0.353505 0.294061 0.902350 0.037006
O24   O     O_2   0.297133 0.393343 0.899265 -0.305880
O25   O     O_2   0.174150 0.236001 0.897908 -0.304247
O26   O     O_3   0.469501 0.274205 0.992932 -0.520312
H23   H     H_    0.375267 0.290210 0.037131 0.356924
S3    S     S_3+6 0.884313 0.675266 0.903611 -0.029167
O27   O     O_2   0.024593 0.597465 0.911306 -0.308202
O28   O     O_2   0.894456 0.733186 0.981389 -0.353565
O29   O     O_3   0.660722 0.631250 0.894790 -0.519450
H24   H     H_    0.640144 0.596221 0.947009 0.390894

loop_
_geom_bond_atom_site_label_1
_geom_bond_atom_site_label_2
_ccdc_geom_bond_type
C8    C12   S    
O29   H24   S    
C1    C24   S    
C16   H14   S    
C1    O6    A    
S2    O24   D    
C8    H7    S    
C11   H11   S    
C5    C9    S    
C13   H12   S    
O19   V4    S    
O5    C3    A    
C14   H13   S    
C25   C30   A    
V2    O10   S    
C5    C6    S    
O12   V3    S    
C26   H19   S    
C29   C30   A    
O17   V4    S    
C22   S2    S    
C19   H16   S    
O8    V2    S    
C12   H8    S    
O12   C31   A    
C12   H9    S    
O15   V3    S    
O1    V2    S    
O11   C32   A    
O7    V1    S    
C28   H20   S    
O9    C4    A    
C16   C17   A    
S1    O23   S    
C8    C9    S    
C5    H1    S    
C25   C26   A    
C6    C10   S    
S2    O25   D    
C19   C20   A    
C28   C29   A    
O18   C33   A    
C23   H17   S    
H5    C11   S    
O19   C34   A    
S1    O22   D    
O4    C2    A    
V4    O20   S    
O17   V3    S    
O14   V3    S    
O13   V3    S    
C6    S3    S    
C7    H10   S    
C23   C24   A    
C3    C15   S    
O2    C1    A    
C17   H15   S    
C10   C11   S    
S3    O28   D    
O23   H22   S    
C6    H3    S    
C22   C23   A    
V3    O20   S    
C13   C18   A    
C4    C9    S    
C17   C18   A    
C2    C30   S    
O3    C4    A    
C20   C21   A    
O6    V2    S    
C21   C32   S    
O9    V2    S    
H4    C7    S    
O2    V1    S    
S3    O29   S    
S2    O26   S    
O13   C34   A    
C25   H18   S    
C15   C16   A    
O1    C2    A    
O11   V4    S    
C7    C9    S    
S1    O21   D    
O5    V1    S    
O8    C3    A    
C10   C33   S    
C8    H6    S    
C20   S1    S    
C13   C14   A    
C27   C28   A    
O4    V1    S    
C10   C12   S    
O3    V1    S    
V1    O10   S    
C14   C15   A    
S3    O27   D    
C19   C24   A    
C5    H2    S    
C26   C27   A    
O15   C33   A    
C31   O16   A    
O7    V2    S    
C29   H21   S    
C7    C11   S    
C27   C31   S    
O26   H23   S    
O14   C32   A    
C21   C22   A    
O18   V4    S    
C18   C34   S    
O16   V4    S    
