data_mof_unit_28326.cif
_audit_creation_date              2013-03-05T15:58:06-0500
_audit_creation_method            fapswitch 2.2
_symmetry_space_group_name_H-M    P1
_symmetry_Int_Tables_number       1
_space_group_crystal_system       triclinic
_cell_length_a                    15.076507
_cell_length_b                    13.695547
_cell_length_c                    10.74028
_cell_angle_alpha                 90.011878
_cell_angle_beta                  89.879105
_cell_angle_gamma                 89.745817
_cell_volume                      2217.63705276

loop_
_atom_site_label
_atom_site_type_symbol
_atom_site_description
_atom_site_fract_x
_atom_site_fract_y
_atom_site_fract_z
_atom_type_partial_charge
O1    O     O_R   0.370250 0.582280 0.500040 -0.591070
O2    O     O_R   0.370250 0.417720 0.500040 -0.596191
C1    C     C_R   0.328658 0.500193 0.500300 0.801275
O3    O     O_R   0.499970 0.582270 0.317700 -0.598941
O4    O     O_R   0.499970 0.417730 0.317700 -0.593430
C2    C     C_R   0.500275 0.499839 0.259736 0.794667
Cu1   Cu    Cu3+1 0.499990 0.597420 0.500010 0.993068
Cu2   Cu    Cu3+1 0.499990 0.402580 0.500010 1.005255
O5    O     O_R   0.629730 0.582260 0.499980 -0.586945
O6    O     O_R   0.629730 0.417740 0.499980 -0.517910
O7    O     O_R   0.500000 0.582270 0.682320 -0.564461
O8    O     O_R   0.500000 0.417730 0.682320 -0.580591
C3    C     C_R   0.671459 0.499679 0.496565 0.917441
C4    C     C_R   0.501759 0.499996 0.740302 0.844160
C5    C     C_3   0.420542 0.555314 0.071002 -0.341798
C6    C     C_3   0.500914 0.393236 0.071471 -0.370003
H1    H     H_    0.358414 0.522811 0.108452 0.164632
H2    H     H_    0.440117 0.355044 0.104232 0.200054
C7    C     C_3   0.419453 0.550855 0.927797 -0.402991
C8    C     C_3   0.502777 0.393284 0.929070 -0.373689
H3    H     H_    0.360124 0.509136 0.897132 0.172304
H4    H     H_    0.442519 0.355276 0.894412 0.216912
H5    H     H_    0.411069 0.625356 0.888625 0.234447
H6    H     H_    0.560503 0.349683 0.896304 0.240019
H7    H     H_    0.593902 0.623579 0.116709 0.195045
H8    H     H_    0.645805 0.507585 0.112523 0.201441
C9    C     C_3   0.588135 0.549396 0.075413 -0.431268
C10   C     C_3   0.502217 0.499476 0.122027 0.029537
C11   C     C_3   0.505134 0.500072 0.878359 -0.052800
C12   C     C_3   0.591110 0.553808 0.929673 0.562677
C13   C     C_R   0.815321 0.419194 0.438957 0.317635
C14   C     C_R   0.768433 0.498748 0.491768 -0.174626
C15   C     C_R   0.814277 0.577804 0.543021 -0.214109
C16   C     C_R   0.906538 0.578519 0.544425 0.098078
C17   C     C_R   0.953931 0.498611 0.494273 0.016241
C18   C     C_R   0.908553 0.418554 0.441339 -0.000622
C19   C     C_R   0.952135 0.657988 0.595536 -0.146266
C20   C     C_R   0.044582 0.658828 0.596514 -0.175224
C21   C     C_R   0.092446 0.579970 0.546965 0.098653
C22   C     C_R   0.047083 0.499314 0.496040 0.093449
C23   C     C_R   0.094917 0.419548 0.446418 0.108727
C24   C     C_R   0.049891 0.340791 0.393664 -0.199168
C25   C     C_R   0.957652 0.340545 0.390131 -0.111326
C26   C     C_R   0.184976 0.580279 0.547269 -0.221172
C27   C     C_R   0.232183 0.500331 0.499213 -0.074225
C28   C     C_R   0.187200 0.420160 0.449460 -0.220746
H9    H     H_    0.777909 0.638544 0.583547 0.202326
H10   H     H_    0.078634 0.721049 0.636028 0.182497
H11   H     H_    0.220240 0.641964 0.586288 0.177769
H12   H     H_    0.224111 0.358906 0.411222 0.161002
H13   H     H_    0.086070 0.279520 0.354350 0.164292
C29   C     C_R   0.450712 0.792738 0.586875 0.141768
C30   C     C_R   0.450973 0.207701 0.587193 0.090977
N1    N     N_R   0.499930 0.743810 0.499950 -0.201957
N2    N     N_R   0.499930 0.256190 0.499950 -0.209972
C31   C     C_R   0.548582 0.793516 0.413692 0.041522
C32   C     C_R   0.548422 0.205920 0.413620 0.081808
C33   C     C_R   0.549088 0.896390 0.412331 0.032746
C34   C     C_R   0.549295 0.103058 0.412633 0.027730
C35   C     C_R   0.498668 0.948164 0.501617 0.044624
C36   C     C_R   0.499308 0.051772 0.502351 0.042359
C37   C     C_R   0.448080 0.896202 0.589856 -0.166728
C38   C     C_R   0.449987 0.104223 0.591995 -0.165326
C39   C     C_R   0.598904 0.948301 0.323949 -0.163497
C40   C     C_R   0.598860 0.050688 0.323939 -0.134548
C41   C     C_R   0.399875 0.052241 0.681757 0.252291
C42   C     C_R   0.398128 0.948612 0.679809 0.260563
H14   H     H_    0.414125 0.750275 0.654200 0.169634
H15   H     H_    0.412202 0.250468 0.652183 0.170083
H16   H     H_    0.587211 0.752868 0.346035 0.130131
H17   H     H_    0.586133 0.246080 0.345043 0.177253
H18   H     H_    0.637858 0.909674 0.254655 0.161604
H19   H     H_    0.637706 0.088965 0.254565 0.171506
H20   H     H_    0.422248 0.632924 0.101584 0.222423
H21   H     H_    0.559262 0.351572 0.106821 0.213095
H22   H     H_    0.925461 0.278801 0.346981 0.205579
N3    N     N_R   0.349416 0.104013 0.774251 0.139236
O9    O     O_R   0.264711 0.088599 0.785838 -0.284946
O10   O     O_R   0.389422 0.159766 0.854333 -0.372744
N4    N     N_R   0.346906 0.897254 0.771403 0.148069
O11   O     O_R   0.360683 0.912241 0.889398 -0.265206
O12   O     O_R   0.281761 0.841429 0.737092 -0.376721
N5    N     N_R   0.592536 0.656946 0.888335 0.116291
O13   O     O_R   0.646302 0.684460 0.800111 -0.308221
O14   O     O_R   0.541703 0.722555 0.940103 -0.374092
N6    N     N_R   0.674545 0.506327 0.887592 0.106716
O15   O     O_R   0.676487 0.444917 0.795160 -0.380716
O16   O     O_R   0.749890 0.537133 0.931408 -0.308076
N7    N     N_R   0.768553 0.341556 0.378504 0.106379
O17   O     O_R   0.767234 0.254698 0.427507 -0.361580
O18   O     O_R   0.726661 0.358043 0.274746 -0.404379
H23   H     H_    0.916255 0.719633 0.634399 0.170296

loop_
_geom_bond_atom_site_label_1
_geom_bond_atom_site_label_2
_geom_bond_distance
_ccdc_geom_bond_type
C26   H11   1.084797 S    
C6    C10   1.553137 S    
C6    H21   1.113843 S    
C23   C24   1.397541 A    
C3    C14   1.462832 S    
C7    H5    1.110545 S    
C17   C18   1.414733 A    
C30   H15   1.080289 S    
Cu1   Cu2   2.668439 S    
N3    O9    1.301012 A    
C5    C7    1.539388 S    
H8    C9    1.113482 S    
C19   C20   1.393929 A    
C37   C42   1.416901 A    
C7    H3    1.113872 S    
C20   C21   1.400565 A    
O7    C4    1.287737 A    
N6    O16   1.302398 A    
C32   C34   1.408800 A    
C33   C35   1.411419 A    
C16   C19   1.402300 A    
C40   H19   1.083524 S    
C35   C37   1.410086 A    
C16   C17   1.410525 A    
C12   N5    1.480996 S    
C36   C38   1.409924 A    
O5    C3    1.292233 A    
C2    C10   1.479270 S    
N5    O13   1.302511 A    
C13   N7    1.434440 S    
C23   C28   1.391811 A    
N7    O18   1.301365 A    
C20   H10   1.083743 S    
C29   H14   1.080121 S    
C6    C8    1.529630 S    
C24   H13   1.083874 S    
N3    O10   1.301007 A    
C41   C42   1.419772 A    
C38   C41   1.417407 A    
C9    C12   1.567024 S    
O3    Cu1   1.968981 S    
Cu2   N2    2.004895 S    
C29   N1    1.365156 A    
C8    C11   1.561265 S    
C30   N2    1.365826 A    
C33   C39   1.404498 A    
N1    C31   1.364385 A    
C34   C36   1.411279 A    
C8    H6    1.109891 S    
N4    O12   1.301171 A    
C21   C22   1.412498 A    
N6    O15   1.301185 A    
C27   C28   1.399616 A    
C1    C27   1.454576 S    
C35   C36   1.419059 A    
O1    C1    1.289711 A    
Cu1   O7    1.969066 S    
C11   C12   1.592756 S    
C13   C14   1.414131 A    
Cu2   O8    1.968981 S    
C15   C16   1.391161 A    
C6    H2    1.113787 S    
C32   H17   1.081403 S    
O3    C2    1.289083 A    
C22   C23   1.410216 A    
N5    O14   1.302204 A    
O8    C4    1.287613 A    
C31   H16   1.082725 S    
N2    C32   1.364036 A    
C15   H9    1.084847 S    
C12   N6    1.483124 S    
C24   C25   1.391259 A    
C4    C11   1.483752 S    
C7    C11   1.556704 S    
C26   C27   1.401106 A    
C25   H22   1.081586 S    
C5    H1    1.113316 S    
C41   N3    1.435290 S    
C19   H23   1.083741 S    
O1    Cu1   1.967899 S    
O2    Cu2   1.966070 S    
C42   N4    1.435536 S    
C8    H4    1.113736 S    
N4    O11   1.301034 A    
O6    C3    1.289436 A    
O4    Cu2   1.969066 S    
C21   C26   1.395059 A    
H7    C9    1.112323 S    
C28   H12   1.084839 S    
C14   C15   1.400353 A    
C17   C22   1.404648 A    
C29   C37   1.417734 A    
C34   C40   1.404370 A    
C30   C38   1.418290 A    
C5    C10   1.547934 S    
O4    C2    1.285482 A    
C39   C40   1.402242 A    
C31   C33   1.409048 A    
O2    C1    1.289460 A    
C39   H18   1.083466 S    
Cu1   O5    1.966099 S    
C5    H20   1.112872 S    
Cu2   O6    1.967931 S    
C9    C10   1.549593 S    
C13   C18   1.405887 A    
C18   C25   1.408149 A    
Cu1   N1    2.004888 S    
N7    O17   1.301111 A    
