data_mof_unit_12932.cif
_audit_creation_date              2012-12-11T16:21:50-0500
_audit_creation_method            fapswitch 2.2
_symmetry_space_group_name_H-M    P1
_symmetry_Int_Tables_number       1
_space_group_crystal_system       triclinic
_cell_length_a                    13.549563
_cell_length_b                    14.054832
_cell_length_c                    30.107101
_cell_angle_alpha                 97.738794
_cell_angle_beta                  90.599484
_cell_angle_gamma                 118.702223
_cell_volume                      4964.55443896

loop_
_atom_site_label
_atom_site_type_symbol
_atom_type_description
_atom_site_fract_x
_atom_site_fract_y
_atom_site_fract_z
_atom_type_partial_charge
C1    C     C_R   0.723170 0.099719 0.568497 0.533964
C2    C     C_1   0.371845 0.688045 0.769353 0.015232
C3    C     C_3   0.097670 0.634017 0.682973 -0.102199
C4    C     C_3   0.512562 0.400587 0.223838 -0.116628
C5    C     C_3   0.979957 0.484130 0.119790 -0.052852
C6    C     C_3   0.734247 0.341883 0.189932 -0.132192
C7    C     C_3   0.743520 0.884108 0.369775 -0.083084
C8    C     C_3   0.748448 0.964581 0.054679 -0.095665
C9    C     C_3   0.633768 0.795508 0.601841 -0.065530
C10   C     C_3   0.560142 0.638449 0.800530 -0.132900
C11   C     C_3   0.523041 0.563545 0.901035 -0.053342
C12   C     C_3   0.472666 0.537622 0.649346 -0.117967
C13   C     C_1   0.370134 0.687994 0.729509 0.030583
C14   C     C_3   0.075178 0.896546 0.721678 -0.136961
C15   C     C_R   0.385455 0.793039 0.552677 0.571523
C16   C     C_R   0.304938 0.610734 0.899702 -0.050732
C17   C     C_3   0.240592 0.145673 0.721811 -0.151325
C18   C     C_3   0.228644 0.060741 0.752169 0.247776
C19   C     C_1   0.293173 0.195235 0.877004 0.007961
C20   C     C_1   0.374939 0.130137 0.616008 -0.007873
C21   C     C_3   0.322505 0.238949 0.759154 0.242493
C22   C     C_3   0.307683 0.153773 0.789550 0.074176
C23   C     C_R   0.361791 0.692809 0.682492 -0.022612
C24   C     C_3   0.424916 0.232944 0.740943 0.330488
C25   C     C_3   0.344384 0.139671 0.703314 -0.021637
C26   C     C_3   0.408442 0.146286 0.770391 0.053356
C27   C     C_R   0.399769 0.117437 0.570329 0.539829
C28   C     C_3   0.329871 0.051284 0.732820 -0.146846
C29   C     C_1   0.297926 0.171428 0.837658 0.029054
C30   C     C_1   0.360448 0.135482 0.655375 -0.019041
C31   C     C_3   0.914008 0.268834 0.733451 0.294134
C32   C     C_3   0.815640 0.244038 0.763388 0.094875
C33   C     C_1   0.896566 0.203048 0.878028 0.014549
C34   C     C_R   0.281283 0.717745 0.666667 0.264566
C35   C     C_1   0.780332 0.134581 0.612486 -0.016191
C36   C     C_3   0.949442 0.200786 0.759092 0.068986
C37   C     C_3   0.851774 0.177068 0.789639 0.032505
C38   C     C_3   0.873574 0.096466 0.725664 0.055052
C39   C     C_R   0.719909 0.095614 0.442537 0.568968
C40   C     C_3   0.837390 0.164031 0.699702 0.030468
C41   C     C_3   0.775503 0.071283 0.756014 0.266181
C42   C     C_3   0.738749 0.138733 0.730291 0.091426
C43   C     C_1   0.869786 0.189477 0.838524 0.018465
C44   C     C_1   0.814824 0.152866 0.651270 -0.010826
C45   C     C_R   0.285707 0.747296 0.623935 0.036957
C46   C     C_3   0.248041 0.642412 0.259772 0.279947
C47   C     C_3   0.304704 0.732673 0.230307 0.103956
C48   C     C_1   0.309555 0.608450 0.110908 -0.010149
C49   C     C_1   0.368951 0.739185 0.378272 0.000843
C50   C     C_3   0.285664 0.569500 0.230021 0.060727
C51   C     C_R   0.382495 0.785014 0.424472 0.545399
C52   C     C_3   0.341346 0.659693 0.199900 0.042181
C53   C     C_3   0.397823 0.617685 0.259980 -0.132192
C54   C     C_3   0.360012 0.692437 0.289547 -0.003441
C55   C     C_3   0.452765 0.709364 0.229954 0.274602
C56   C     C_R   0.261075 0.670632 0.833232 0.253918
C57   C     C_3   0.415819 0.782563 0.259758 0.117689
C58   C     C_1   0.327956 0.637194 0.150878 -0.009999
C59   C     C_1   0.364488 0.713454 0.338397 -0.005783
C60   C     C_R   0.350275 0.132622 0.402248 0.000010
C61   C     C_R   0.399322 0.236422 0.388202 0.091157
C62   C     C_R   0.373157 0.243728 0.343765 0.069066
C63   C     C_R   0.395121 0.114657 0.443315 0.576339
C64   C     C_R   0.297285 0.148039 0.314545 0.070698
C65   C     C_R   0.237245 0.047573 0.329988 0.249771
C66   C     C_R   0.265931 0.040241 0.373745 -0.149324
C67   C     C_R   0.229903 0.630408 0.873615 0.048233
C68   C     C_R   0.258779 0.089135 0.146726 0.056955
C69   C     C_R   0.257812 0.110776 0.102441 0.265789
C70   C     C_R   0.360437 0.308186 0.131029 0.044510
C71   C     C_R   0.359490 0.286018 0.174979 0.265327
C72   C     C_R   0.304369 0.177067 0.182740 -0.031950
C73   C     C_1   0.293594 0.158446 0.228342 0.031393
C74   C     C_1   0.290845 0.151074 0.267449 0.089155
C75   C     C_R   0.368463 0.745522 0.595206 -0.050472
C76   C     C_R   0.308986 0.220610 0.094482 -0.003219
C77   C     C_R   0.779551 0.134930 0.401934 0.023810
C78   C     C_R   0.415228 0.643402 0.886071 0.257039
C79   C     C_R   0.816640 0.070328 0.374236 0.287024
C80   C     C_R   0.847799 0.093763 0.330815 0.107139
C81   C     C_R   0.837622 0.178282 0.314724 -0.027337
C82   C     C_R   0.811120 0.247592 0.343089 -0.130889
C83   C     C_R   0.784790 0.229072 0.386938 0.049120
C84   C     C_R   0.856895 0.286502 0.163181 0.229278
C85   C     C_R   0.882448 0.296476 0.118066 0.227509
C86   C     C_R   0.859576 0.111184 0.107498 0.213582
C87   C     C_R   0.444621 0.712224 0.610830 0.233807
C88   C     C_R   0.844925 0.106613 0.153240 0.068995
C89   C     C_R   0.443122 0.678517 0.843915 0.258728
C90   C     C_R   0.849341 0.196436 0.181281 -0.006878
C91   C     C_1   0.847483 0.195551 0.228813 0.053143
C92   C     C_1   0.845533 0.189999 0.268206 -0.012202
C93   C     C_R   0.891587 0.211239 0.090947 -0.029937
C94   C     C_R   0.283151 0.232483 0.922159 0.546056
C95   C     C_R   0.266373 0.548685 0.938261 0.570669
C96   C     C_R   0.945244 0.221963 0.922853 0.543592
C97   C     C_R   0.291737 0.245505 0.049949 0.599381
C98   C     C_R   0.275355 0.558701 0.064994 0.546755
C99   C     C_R   0.437050 0.680675 0.653894 0.211237
C100  C     C_R   0.361455 0.682723 0.816357 -0.030563
C101  C     C_R   0.952009 0.231673 0.049401 0.568680
C102  C     C_3   0.582802 0.392336 0.773387 -0.124844
C103  C     C_3   0.329785 0.395456 0.740174 -0.134023
C104  C     C_3   0.046023 0.450780 0.757224 -0.099821
C105  C     C_3   0.662283 0.884767 0.735379 -0.080089
C106  C     C_3   0.220622 0.799310 0.813700 -0.062022
C107  C     C_3   0.053116 0.547852 0.249335 -0.087368
C108  C     C_3   0.639622 0.756028 0.242283 -0.128187
C109  C     C_3   0.092012 0.971965 0.065744 -0.052734
C110  C     C_3   0.059534 0.895359 0.318384 -0.122317
Cr1   Cr    Cr6+3 0.583430 0.162610 0.509470 1.058290
Cr2   Cr    Cr6+3 0.584210 0.916680 0.495400 1.038413
Cr3   Cr    Cr6+3 0.332380 0.920740 0.495100 1.012086
Cr4   Cr    Cr6+3 0.086810 0.177030 0.983130 1.052523
Cr5   Cr    Cr6+3 0.337180 0.419300 0.994610 1.049205
Cr6   Cr    Cr6+3 0.084840 0.422330 0.995830 1.034572
H1    H     H_    0.171542 0.142569 0.700459 0.123968
H2    H     H_    0.619712 0.356717 0.794275 0.174940
H3    H     H_    0.525473 0.410999 0.794013 0.128278
H4    H     H_    0.652070 0.470746 0.765654 0.118972
H5    H     H_    0.270459 0.345109 0.710036 0.112557
H6    H     H_    0.417883 0.433175 0.730665 0.147605
H7    H     H_    0.311008 0.462630 0.752082 0.142728
H8    H     H_    0.785979 0.370547 0.759164 0.255869
H9    H     H_    0.847051 0.377378 0.809219 0.218182
H10   H     H_    0.058967 0.419840 0.787693 0.152466
H11   H     H_    0.999774 0.497069 0.765597 0.154251
H12   H     H_    0.334629 0.975166 0.721548 0.142957
H13   H     H_    0.131092 0.508556 0.748306 0.176179
H14   H     H_    0.569014 0.044367 0.732263 0.236517
H15   H     H_    0.608401 0.061418 0.680752 0.214431
H16   H     H_    0.637557 0.904258 0.703850 0.088373
H17   H     H_    0.586608 0.816103 0.745231 0.187762
H18   H     H_    0.724649 0.855636 0.729634 0.129669
H19   H     H_    0.918983 0.979790 0.729660 0.257493
H20   H     H_    0.850021 0.965043 0.680030 0.207244
H21   H     H_    0.303389 0.846311 0.799934 0.128353
H22   H     H_    0.224622 0.832947 0.849740 0.131070
H23   H     H_    0.433937 0.569689 0.272935 0.140402
H24   H     H_    0.157559 0.811005 0.794863 0.183659
H25   H     H_    0.108979 0.245589 0.746968 0.273866
H26   H     H_    0.063255 0.167355 0.787565 0.267423
H27   H     H_    0.228329 0.826398 0.241796 0.292445
H28   H     H_    0.186767 0.742979 0.191903 0.212378
H29   H     H_    0.033070 0.461018 0.247612 0.160539
H30   H     H_    0.065175 0.572173 0.215380 0.099521
H31   H     H_    0.979127 0.554070 0.261509 0.158705
H32   H     H_    0.522886 0.937857 0.249139 0.258860
H33   H     H_    0.550936 0.909093 0.298560 0.211151
H34   H     H_    0.228290 0.960246 0.384171 0.150070
H35   H     H_    0.623638 0.673421 0.247829 0.105107
H36   H     H_    0.644271 0.806925 0.274629 0.094624
H37   H     H_    0.723125 0.796889 0.228562 0.148399
H38   H     H_    0.183138 0.412284 0.239947 0.252518
H39   H     H_    0.150611 0.442052 0.191283 0.204463
H40   H     H_    0.055829 0.927738 0.031210 0.136119
H41   H     H_    0.058524 0.030103 0.074332 0.167520
H42   H     H_    0.061828 0.909787 0.088634 0.146211
H43   H     H_    0.147294 0.961139 0.175447 0.230530
H44   H     H_    0.276442 0.971044 0.171538 0.263363
H45   H     H_    0.807887 0.314919 0.330512 0.122201
H46   H     H_    0.031110 0.949523 0.338030 0.156590
H47   H     H_    0.065591 0.838997 0.339445 0.132904
H48   H     H_    0.993471 0.843785 0.290451 0.137355
H49   H     H_    0.100182 0.555326 0.676411 0.148998
H50   H     H_    0.056845 0.643658 0.653034 0.140238
H51   H     H_    0.043677 0.628991 0.710958 0.144418
H52   H     H_    0.447545 0.388915 0.422107 0.224922
H53   H     H_    0.555564 0.368131 0.404678 0.232784
H54   H     H_    0.518283 0.330453 0.234489 0.117265
H55   H     H_    0.544471 0.467641 0.253111 0.131647
H56   H     H_    0.068906 0.523335 0.885445 0.250867
H57   H     H_    0.568324 0.431873 0.196486 0.091061
H58   H     H_    0.491322 0.463118 0.134668 0.243505
H59   H     H_    0.364644 0.455247 0.143650 0.278788
H60   H     H_    0.514135 0.377346 0.330163 0.212706
H61   H     H_    0.408212 0.402203 0.347025 0.231384
H62   H     H_    0.053704 0.476643 0.131701 0.097094
H63   H     H_    0.951072 0.522055 0.147659 0.146092
H64   H     H_    0.009316 0.541487 0.094932 0.153952
H65   H     H_    0.682089 0.262872 0.202472 0.118982
H66   H     H_    0.700014 0.338826 0.155683 0.153420
H67   H     H_    0.126772 0.651935 0.917831 0.254299
H68   H     H_    0.728395 0.407176 0.212912 0.112775
H69   H     H_    0.757744 0.362409 0.398003 0.212284
H70   H     H_    0.825774 0.346754 0.440866 0.229054
H71   H     H_    0.773151 0.856577 0.339013 0.119877
H72   H     H_    0.661259 0.880924 0.361848 0.098494
H73   H     H_    0.727760 0.824334 0.393021 0.137273
H74   H     H_    0.257582 0.869824 0.608428 0.259730
H75   H     H_    0.157366 0.738294 0.584279 0.249543
H76   H     H_    0.755118 0.943314 0.155170 0.265647
H77   H     H_    0.896736 0.998369 0.165077 0.249505
H78   H     H_    0.568651 0.174665 0.785020 0.297048
H79   H     H_    0.740550 0.016247 0.031430 0.134081
H80   H     H_    0.677036 0.936957 0.076506 0.119446
H81   H     H_    0.742196 0.890262 0.033800 0.153974
H82   H     H_    0.968851 0.084407 0.294752 0.245399
H83   H     H_    0.834881 0.992394 0.273828 0.234458
H84   H     H_    0.668149 0.770615 0.628948 0.143249
H85   H     H_    0.633809 0.873805 0.614566 0.106176
H86   H     H_    0.692158 0.812039 0.574812 0.147535
H87   H     H_    0.546067 0.649254 0.765721 0.144744
H88   H     H_    0.499814 0.553341 0.805245 0.103862
H89   H     H_    0.467134 0.064391 0.803874 0.232009
H90   H     H_    0.646627 0.649414 0.804499 0.134050
H91   H     H_    0.452159 0.489468 0.880360 0.119498
H92   H     H_    0.543268 0.536446 0.931149 0.148713
H93   H     H_    0.599805 0.595576 0.882448 0.133781
H94   H     H_    0.485284 0.532330 0.612878 0.178818
H95   H     H_    0.382546 0.482596 0.654371 0.099947
H96   H     H_    0.524076 0.507254 0.665253 0.147558
H97   H     H_    0.127043 0.857495 0.710950 0.182565
H98   H     H_    0.061087 0.934431 0.693847 0.136208
H99   H     H_    0.991720 0.830771 0.728637 0.133355
N1    N     N_3   0.119692 0.607791 0.886019 -0.582948
N2    N     N_3   0.213003 0.977889 0.154569 -0.601777
N3    N     N_3   0.477799 0.332732 0.418492 -0.591485
N4    N     N_3   0.405322 0.420013 0.123970 -0.567082
N5    N     N_3   0.426786 0.346724 0.327266 -0.630355
N6    N     N_3   0.759502 0.303799 0.415542 -0.575651
N7    N     N_3   0.210832 0.787733 0.612893 -0.613745
N8    N     N_3   0.828134 0.011344 0.171643 -0.620736
N9    N     N_3   0.888505 0.030570 0.303406 -0.634389
N10   N     N_3   0.493443 0.145880 0.800317 -0.634464
N11   N     N_3   0.784180 0.324125 0.783799 -0.636931
N12   N     N_3   0.622812 0.103398 0.713558 -0.594630
N13   N     N_3   0.912350 0.022176 0.704868 -0.647666
N14   N     N_3   0.064216 0.233971 0.775386 -0.596417
N15   N     N_3   0.257319 0.796605 0.214197 -0.612707
N16   N     N_3   0.485634 0.899489 0.276517 -0.594376
N17   N     N_3   0.217429 0.452691 0.212698 -0.592455
O1    O     O_R   0.493980 0.188910 0.559650 -0.497461
O2    O     O_R   0.170560 0.527890 0.952050 -0.532257
O3    O     O_R   0.987620 0.318470 0.945550 -0.503949
O4    O     O_R   0.678640 0.153520 0.554450 -0.490064
O5    O     O_R   0.976400 0.159270 0.031530 -0.484421
O6    O     O_R   0.194000 0.188570 0.028560 -0.490016
O7    O     O_R   0.365260 0.335720 0.039020 -0.480320
O8    O     O_R   0.330440 0.515580 0.044910 -0.475377
O9    O     O_R   0.177310 0.536200 0.050190 -0.524044
O10   O     O_R   0.993870 0.326170 0.036530 -0.460959
O11   O     O_3   0.169610 0.339550 0.991190 -0.269615
O12   O     O_R   0.480180 0.824400 0.444640 -0.507388
O13   O     O_R   0.698130 0.004030 0.549500 -0.529260
O14   O     O_R   0.481060 0.827210 0.535360 -0.451913
O15   O     O_R   0.309260 0.811560 0.537660 -0.534627
O16   O     O_R   0.341620 0.023400 0.546290 -0.510790
O17   O     O_R   0.493030 0.185890 0.461780 -0.451828
O18   O     O_R   0.677760 0.150720 0.463730 -0.473188
O19   O     O_R   0.697180 0.001010 0.451640 -0.479932
O20   O     O_3   0.528369 0.321399 0.732607 -0.554178
O21   O     O_3   0.316789 0.334957 0.775480 -0.589451
O22   O     O_3   0.989126 0.368897 0.719478 -0.590118
O23   O     O_R   0.308310 0.808540 0.439800 -0.500617
O24   O     O_3   0.702326 0.972550 0.771329 -0.545453
O25   O     O_3   0.185696 0.686050 0.807796 -0.563500
O26   O     O_3   0.146876 0.615895 0.280393 -0.566725
O27   O     O_3   0.557106 0.747233 0.210809 -0.552885
O28   O     O_3   0.211080 0.025490 0.066405 -0.541807
O29   O     O_3   0.162817 0.955360 0.299756 -0.576719
O30   O     O_3   0.205748 0.725666 0.695548 -0.564299
O31   O     O_3   0.400300 0.371816 0.210779 -0.530252
O32   O     O_3   0.888891 0.383382 0.098756 -0.544680
O33   O     O_3   0.848688 0.369025 0.190500 -0.605460
O34   O     O_R   0.340740 0.020600 0.455570 -0.516565
O35   O     O_3   0.828330 0.988689 0.390934 -0.534662
O36   O     O_3   0.853564 0.020415 0.080520 -0.571820
O37   O     O_3   0.525804 0.710008 0.583735 -0.550022
O38   O     O_3   0.553064 0.718195 0.832176 -0.517102
O39   O     O_3   0.497374 0.648431 0.915647 -0.532502
O40   O     O_3   0.509562 0.646956 0.669690 -0.608757
O41   O     O_3   0.125341 0.973548 0.761271 -0.573687
O42   O     O_3   0.500010 0.000010 0.499990 -0.264406
O43   O     O_R   0.969650 0.150960 0.933380 -0.495712
O44   O     O_R   0.187740 0.180870 0.937580 -0.488799
O45   O     O_R   0.358510 0.327410 0.940870 -0.530363
O46   O     O_R   0.324180 0.507870 0.953930 -0.463820

loop_
_geom_bond_atom_site_label_1
_geom_bond_atom_site_label_2
_ccdc_geom_bond_type
C46   O26   S    
C23   C99   A    
C89   C100  A    
Cr3   O23   S    
C22   C29   S    
C80   C81   A    
C110  O29   S    
C73   C74   T    
H39   N17   S    
C15   C75   S    
C56   O25   S    
C86   O36   S    
C8    O36   S    
C103  H7    S    
C21   O21   S    
C81   C82   A    
C110  H46   S    
Cr4   O44   S    
C10   O38   S    
C47   N15   S    
C20   C30   T    
C42   N12   S    
C25   C28   S    
Cr2   O14   S    
C97   O6    A    
C104  H11   S    
C41   O24   S    
C13   C23   S    
C4    H54   S    
C6    H66   S    
C107  O26   S    
C102  O20   S    
C45   N7    S    
C39   C77   S    
H78   N10   S    
C105  H17   S    
C36   C37   S    
C4    H55   S    
Cr2   O42   S    
C66   H34   S    
H74   N7    S    
C94   O44   A    
Cr5   O8    S    
C107  H29   S    
C86   C88   A    
C106  H22   S    
C98   O8    A    
C77   C83   A    
C26   N10   S    
H25   N14   S    
C99   O40   S    
C25   C30   S    
C104  O22   S    
C31   C40   S    
C14   H98   S    
C69   C76   A    
C41   C42   S    
Cr1   O42   S    
C50   C52   S    
C2    C13   T    
C109  H40   S    
Cr3   O34   S    
C5    H63   S    
C98   O9    A    
C62   C64   A    
C32   N11   S    
C108  H36   S    
C81   C92   S    
C85   C93   A    
C80   N9    S    
C108  H37   S    
C51   O12   A    
C36   N14   S    
C49   C51   S    
C84   O33   S    
C5    O32   S    
C79   O35   S    
Cr6   O9    S    
C50   N17   S    
C70   C71   A    
C95   O2    A    
C10   H87   S    
C55   O27   S    
C87   O37   S    
C102  H2    S    
C9    H84   S    
C17   H1    S    
H76   N8    S    
Cr4   O6    S    
C18   O41   S    
C105  O24   S    
Cr5   O45   S    
C40   C42   S    
H53   N3    S    
H20   N13   S    
Cr6   O11   S    
C109  H41   S    
C95   O46   A    
H69   N6    S    
C21   C22   S    
C67   N1    S    
C61   C62   A    
C84   C90   A    
C109  H42   S    
Cr4   O43   S    
Cr1   O4    S    
C105  H16   S    
C87   C99   A    
C54   C59   S    
C53   C55   S    
C78   C89   A    
C71   O31   S    
Cr2   O13   S    
C97   O7    A    
Cr6   O10   S    
C88   N8    S    
C50   C53   S    
H19   N13   S    
C34   O30   S    
C8    H81   S    
C3    H51   S    
C89   O38   S    
H33   N16   S    
C7    H72   S    
C24   O20   S    
C18   C28   S    
C84   C85   A    
C12   H96   S    
C38   C41   S    
Cr6   O3    S    
C93   C101  S    
C91   C92   T    
C34   C45   A    
C107  H30   S    
C110  H48   S    
C68   C69   A    
H26   N14   S    
C6    H65   S    
H43   N2    S    
C76   C97   S    
Cr3   O15   S    
C101  O5    A    
C17   C21   S    
C14   H97   S    
C6    H68   S    
C60   C61   A    
Cr1   O18   S    
C33   C43   T    
C37   C43   S    
C48   C58   T    
H82   N9    S    
C5    H64   S    
C35   C44   T    
C86   C93   A    
C47   C57   S    
C108  H35   S    
C107  H31   S    
C15   O15   A    
C8    H80   S    
C106  H24   S    
H44   N2    S    
C11   H91   S    
C15   O14   A    
Cr2   O12   S    
C68   C72   A    
C3    O30   S    
C46   C54   S    
C6    O33   S    
C17   C18   S    
C77   C79   A    
C104  H10   S    
H32   N16   S    
C32   C37   S    
C24   C25   S    
H89   N10   S    
C101  O10   A    
H75   N7    S    
C19   C94   S    
C52   C58   S    
C61   N3    S    
Cr4   O5    S    
Cr5   O11   S    
C16   C67   A    
Cr5   O46   S    
C75   C87   A    
C63   O17   A    
H70   N6    S    
C88   C90   A    
H14   N12   S    
C82   C83   A    
H59   N4    S    
C4    H57   S    
C69   O28   S    
C70   C76   A    
C103  O21   S    
C60   C63   S    
C51   O23   A    
C56   C100  A    
C85   O32   S    
H60   N5    S    
H9    N11   S    
C19   C29   T    
C33   C96   S    
C102  H4    S    
C3    H49   S    
Cr2   O19   S    
C38   N13   S    
C8    H79   S    
C7    H71   S    
H67   N1    S    
C9    O37   S    
C46   C47   S    
C23   C34   A    
C64   C74   S    
C31   O22   S    
H38   N17   S    
C18   C22   S    
C11   O39   S    
C31   C32   S    
C65   O29   S    
C12   O40   S    
C12   H95   S    
C24   C26   S    
C72   C73   S    
C106  H21   S    
C78   O39   S    
Cr3   O42   S    
H8    N11   S    
C110  H47   S    
C52   C55   S    
C53   C54   S    
C47   C52   S    
H58   N4    S    
C82   H45   S    
C20   C27   S    
Cr1   O17   S    
C56   C67   A    
C48   C98   S    
C46   C50   S    
C26   C28   S    
C70   N4    S    
C49   C59   T    
C68   N2    S    
C45   C75   A    
C17   C25   S    
H28   N15   S    
C109  O28   S    
C55   C57   S    
C11   H92   S    
C10   H90   S    
H77   N8    S    
C12   H94   S    
C71   C72   A    
C1    O13   A    
C27   O16   A    
C7    O35   S    
C94   O45   A    
C38   C40   S    
C16   C95   S    
C14   O41   S    
C90   C91   S    
C39   O18   A    
C4    O31   S    
C57   N16   S    
C64   C65   A    
C36   C38   S    
C106  O25   S    
Cr1   O1    S    
C96   O3    A    
C14   H99   S    
Cr4   O11   S    
Cr3   O16   S    
C16   C78   A    
H27   N15   S    
C37   C41   S    
C104  H13   S    
C63   O34   A    
C5    H62   S    
C53   H23   S    
C9    H86   S    
C27   O1    A    
C60   C66   A    
C79   C80   A    
C83   N6    S    
H15   N12   S    
C40   C44   S    
C39   O19   A    
C9    H85   S    
Cr5   O7    S    
C65   C66   A    
C22   C26   S    
C21   C24   S    
Cr6   O2    S    
C2    C100  S    
C96   O43   A    
C32   C42   S    
C31   C36   S    
C7    H73   S    
C108  O27   S    
H83   N9    S    
H61   N5    S    
C1    C35   S    
H52   N3    S    
H56   N1    S    
C103  H6    S    
C10   H88   S    
C1    O4    A    
C11   H93   S    
C102  H3    S    
C28   H12   S    
C3    H50   S    
C62   N5    S    
C105  H18   S    
C54   C57   S    
C103  H5    S    
