data_mof_unit_11932.cif
_audit_creation_date              2012-12-11T14:27:08-0500
_audit_creation_method            fapswitch 2.2
_symmetry_space_group_name_H-M    P1
_symmetry_Int_Tables_number       1
_space_group_crystal_system       triclinic
_cell_length_a                    14.975598
_cell_length_b                    14.866185
_cell_length_c                    14.937541
_cell_angle_alpha                 109.638077
_cell_angle_beta                  109.422839
_cell_angle_gamma                 109.165921
_cell_volume                      2565.85844239

loop_
_atom_site_label
_atom_site_type_symbol
_atom_type_description
_atom_site_fract_x
_atom_site_fract_y
_atom_site_fract_z
_atom_type_partial_charge
C1    C     C_R   0.927593 0.743205 0.020966 -0.153537
C2    C     C_R   0.205186 0.802123 0.298389 -0.136308
C3    C     C_R   0.968101 0.408394 0.222546 -0.113298
C4    C     C_R   0.778551 0.244081 0.685904 -0.137040
C5    C     C_R   0.313474 0.590808 0.068002 -0.079491
C6    C     C_R   0.040227 0.501047 0.325617 0.129191
C7    C     C_R   0.324990 0.498804 0.051864 -0.031323
C8    C     C_R   0.296218 0.867940 0.299987 0.064872
C9    C     C_R   0.953231 0.141289 0.950648 0.139850
C10   C     C_3   0.531272 0.395143 0.069993 -0.392780
C11   C     C_3   0.426951 0.394507 0.065404 -0.360610
C12   C     C_R   0.675753 0.213836 0.674821 0.127218
C13   C     C_3   0.634584 0.601394 0.178056 -0.477109
C14   C     C_3   0.538418 0.503432 0.970307 -0.389933
C15   C     C_3   0.603492 0.499986 0.072872 0.378017
C16   C     C_R   0.095886 0.590145 0.792747 -0.129056
C17   C     C_3   0.427346 0.499472 0.065796 0.276486
C18   C     C_3   0.530562 0.604742 0.171527 -0.207998
C19   C     C_3   0.433957 0.500011 0.964350 -0.399528
C20   C     C_2   0.376370 0.034479 0.473043 -0.130362
C21   C     C_2   0.367261 0.986307 0.374637 -0.159037
C22   C     C_2   0.478414 0.131457 0.566664 -0.119600
C23   C     C_R   0.068241 0.498671 0.701260 0.117405
C24   C     C_2   0.574257 0.149477 0.571290 -0.170467
C25   C     C_2   0.072948 0.409981 0.534446 -0.109302
C26   C     C_2   0.113358 0.500527 0.629115 -0.193735
C27   C     C_2   0.072377 0.415913 0.438247 -0.106766
C28   C     C_R   0.700931 0.408732 0.004664 -0.151678
C29   C     C_2   0.082140 0.505395 0.430221 -0.180300
C30   C     C_2   0.923114 0.958361 0.840832 -0.111835
C31   C     C_2   0.925444 0.029745 0.926605 -0.195765
C32   C     C_2   0.923076 0.857953 0.835321 -0.101072
C33   C     C_2   0.887134 0.814314 0.889934 -0.184653
C34   C     C_R   0.699813 0.499859 0.068082 0.013466
C35   C     C_R   0.005165 0.407972 0.702089 -0.125499
C36   C     C_R   0.790683 0.591057 0.095958 -0.147661
C37   C     C_R   0.686765 0.245295 0.778111 -0.116111
C38   C     C_R   0.021098 0.743910 0.931150 -0.076455
C39   C     C_R   0.941455 0.766360 0.942587 0.110062
C40   C     C_2   0.356331 0.847508 0.156420 0.941303
C41   C     C_2   0.526871 0.623736 0.276127 1.006738
C42   C     C_R   0.057947 0.592502 0.313923 -0.140316
C43   C     C_R   0.223134 0.407511 0.974610 -0.126438
C44   C     C_R   0.295233 0.805056 0.206420 -0.051911
C45   C     C_R   0.917839 0.202104 0.006293 -0.154306
C46   C     C_R   0.006978 0.200475 0.912981 -0.124127
H1    H     H_    0.871019 0.751021 0.048537 0.101480
H2    H     H_    0.356507 0.319054 0.989218 0.140025
H3    H     H_    0.798681 0.230345 0.621208 0.106803
H4    H     H_    0.419067 0.388038 0.134566 0.199370
H5    H     H_    0.680157 0.597664 0.251464 0.180911
H6    H     H_    0.588358 0.579800 0.973006 0.160392
H7    H     H_    0.517541 0.432348 0.894411 0.158798
H8    H     H_    0.362901 0.425218 0.887319 0.166538
H9    H     H_    0.431687 0.572448 0.959459 0.164725
H10   H     H_    0.689304 0.679302 0.186855 0.145783
H11   H     H_    0.535678 0.677607 0.163132 0.117282
H12   H     H_    0.202262 0.322418 0.936448 0.093858
H13   H     H_    0.317188 0.992821 0.492113 0.121237
H14   H     H_    0.157406 0.673399 0.824788 0.127513
H15   H     H_    0.423396 0.031962 0.355295 0.176367
H16   H     H_    0.475633 0.174187 0.639676 0.117869
H17   H     H_    0.578914 0.105469 0.500103 0.154540
H18   H     H_    0.021305 0.329319 0.519008 0.118128
H19   H     H_    0.170599 0.580791 0.648365 0.127781
H20   H     H_    0.042723 0.339247 0.366319 0.119192
H21   H     H_    0.109634 0.582623 0.499847 0.126145
H22   H     H_    0.938631 0.981303 0.783593 0.120799
H23   H     H_    0.859714 0.172539 0.031463 0.094586
H24   H     H_    0.913143 0.009699 0.986478 0.131707
H25   H     H_    0.972188 0.834335 0.803756 0.116143
H26   H     H_    0.647136 0.323658 0.975469 0.088530
H27   H     H_    0.831388 0.832000 0.914207 0.130702
H28   H     H_    0.984156 0.324032 0.652911 0.087040
H29   H     H_    0.820404 0.676121 0.151551 0.090129
H30   H     H_    0.623269 0.231935 0.799403 0.087818
H31   H     H_    0.051388 0.751629 0.876401 0.094715
H32   H     H_    0.108493 0.677692 0.378054 0.097675
H33   H     H_    0.358028 0.831038 0.017436 0.312524
H34   H     H_    0.031841 0.170815 0.854232 0.081700
H35   H     H_    0.516227 0.718631 0.400966 0.328290
H36   H     H_    0.170649 0.829883 0.347648 0.093118
H37   H     H_    0.934150 0.323476 0.202329 0.090942
H38   H     H_    0.377107 0.675326 0.118454 0.121063
H39   H     H_    0.577281 0.391986 0.143608 0.175601
H40   H     H_    0.506561 0.319497 0.996482 0.142854
N1    N     N_R   0.993980 0.704500 0.053430 -0.047567
N2    N     N_R   0.053690 0.556380 0.849240 -0.033649
N3    N     N_R   0.790390 0.443640 0.997160 -0.034070
N4    N     N_R   0.998260 0.443670 0.792970 -0.048123
N5    N     N_R   0.845830 0.556350 0.053430 -0.034119
N6    N     N_R   0.792820 0.295510 0.849240 -0.045012
N7    N     N_R   0.051260 0.704510 0.997160 -0.037159
N8    N     N_R   0.001740 0.556330 0.207030 -0.040899
N9    N     N_R   0.154170 0.443650 0.946570 -0.043197
N10   N     N_R   0.207180 0.704490 0.150760 -0.059754
N11   N     N_R   0.948740 0.295490 0.002840 -0.040131
N12   N     N_R   0.006020 0.295500 0.946570 -0.042638
N13   N     N_R   0.149890 0.704480 0.207030 -0.050121
N14   N     N_R   0.946310 0.443620 0.150760 -0.043485
N15   N     N_R   0.209610 0.556360 0.002840 -0.024139
N16   N     N_R   0.850110 0.295520 0.792970 -0.045289
Ni1   Ni    Ni4+2 0.997880 0.629240 0.129060 0.208936
Ni2   Ni    Ni4+2 0.002120 0.370760 0.870940 0.209268
Ni3   Ni    Ni4+2 0.129260 0.629260 0.000000 0.261822
Ni4   Ni    Ni4+2 0.870740 0.370740 0.000000 0.211976
O1    O     O_2   0.449270 0.925329 0.213959 -0.659680
O2    O     O_R   0.308202 0.795993 0.042402 -0.832033
O3    O     O_2   0.532541 0.561815 0.312040 -0.650683
O4    O     O_R   0.518113 0.713982 0.332392 -0.810130

loop_
_geom_bond_atom_site_label_1
_geom_bond_atom_site_label_2
_ccdc_geom_bond_type
C1    N1    A    
N13   Ni1   S    
N10   Ni3   S    
C10   H39   S    
C9    C45   A    
C27   C29   D    
C3    C6    A    
N11   N12   A    
C35   H28   S    
C33   C39   S    
C13   C18   S    
C10   C15   S    
C38   C39   A    
C24   H17   S    
C19   H9    S    
N10   N13   A    
C16   H14   S    
C23   C26   S    
C12   C37   A    
C43   H12   S    
N7    Ni3   S    
C13   H5    S    
C3    N14   A    
C31   H24   S    
C10   H40   S    
C7    C17   S    
C4    N16   A    
N3    Ni4   S    
C43   N9    A    
C28   N3    A    
C7    C43   A    
C4    C12   A    
C15   C34   S    
C21   H15   S    
N6    N16   A    
C40   O2    S    
C13   H10   S    
C46   N12   A    
C28   C34   A    
C9    C46   A    
C41   O3    D    
C11   H2    S    
C28   H26   S    
C8    C21   S    
C32   H25   S    
N15   Ni3   S    
C5    N15   A    
C45   H23   S    
C30   C32   S    
C18   C41   S    
N5    Ni1   S    
C5    C7    A    
C5    H38   S    
C9    C31   S    
C1    H1    S    
C25   C26   D    
C25   H18   S    
C44   N10   A    
C36   H29   S    
C22   H16   S    
C18   H11   S    
N8    N14   A    
C6    C29   S    
C17   C18   S    
H35   O4    S    
C20   H13   S    
N16   Ni2   S    
N4    Ni2   S    
C40   O1    D    
N1    Ni1   S    
N11   Ni4   S    
C19   H8    S    
N6    Ni4   S    
C37   H30   S    
N2    N4    A    
N8    Ni1   S    
C42   H32   S    
C16   C23   A    
C23   C35   A    
C41   O4    S    
C13   C15   S    
C3    H37   S    
C22   C24   D    
C2    H36   S    
N3    N5    A    
N9    Ni2   S    
C36   N5    A    
C16   N2    A    
C33   H27   S    
C11   C17   S    
C37   N6    A    
C42   N8    A    
C26   H19   S    
C14   C19   S    
C2    C8    A    
C8    C44   A    
C20   C22   S    
C2    N13   A    
C38   H31   S    
C25   C27   S    
C12   C24   S    
N14   Ni4   S    
C4    H3    S    
C32   C33   D    
C27   H20   S    
C45   N11   A    
C46   H34   S    
N2    Ni3   S    
C30   C31   D    
N12   Ni2   S    
N1    N7    A    
C38   N7    A    
C14   H6    S    
C17   C19   S    
H33   O2    S    
C34   C36   A    
C10   C11   S    
C1    C39   A    
C35   N4    A    
C40   C44   S    
C14   H7    S    
C20   C21   D    
C6    C42   A    
C11   H4    S    
C14   C15   S    
C29   H21   S    
C30   H22   S    
N9    N15   A    
