data_mof_unit_42361.cif
_audit_creation_date              2012-12-10T18:31:59-0500
_audit_creation_method            fapswitch 2.2
_symmetry_space_group_name_H-M    P1
_symmetry_Int_Tables_number       1
_space_group_crystal_system       triclinic
_cell_length_a                    10.659486
_cell_length_b                    14.967945
_cell_length_c                    15.367464
_cell_angle_alpha                 82.77751
_cell_angle_beta                  89.510653
_cell_angle_gamma                 104.089544
_cell_volume                      2357.30396108

loop_
_atom_site_label
_atom_site_type_symbol
_atom_type_description
_atom_site_fract_x
_atom_site_fract_y
_atom_site_fract_z
_atom_type_partial_charge
C1    C     C_R   0.478953 0.442151 0.662706 0.887882
C2    C     C_R   0.398822 0.440383 0.901710 -0.073566
C3    C     C_R   0.366767 0.343684 0.932771 -0.015522
C4    C     C_R   0.742151 0.500633 0.500174 0.986896
C5    C     C_R   0.391334 0.505039 0.959542 -0.000454
C6    C     C_R   0.392482 0.477138 0.049703 -0.065250
C7    C     C_R   0.354527 0.381213 0.081423 0.664223
C8    C     C_R   0.338398 0.313890 0.023632 -0.043306
C9    C     C_R   0.379988 0.595975 0.930590 -0.041420
C10   C     C_R   0.387174 0.660637 0.989224 -0.209671
C11   C     C_R   0.416526 0.638683 0.077095 0.033677
C12   C     C_3   0.121488 0.501108 0.500401 -0.241322
C13   C     C_R   0.426966 0.546733 0.105373 -0.032572
C14   C     C_R   0.437917 0.705776 0.136898 0.120135
C15   C     C_R   0.474882 0.679194 0.222264 -0.267736
C16   C     C_R   0.515548 0.557825 0.337523 0.968668
C17   C     C_R   0.482116 0.528260 0.185379 0.679328
C18   C     C_R   0.663333 0.835277 0.653481 -0.252723
C19   C     C_R   0.645018 0.749538 0.623947 0.135389
C20   C     C_R   0.520474 0.795313 0.507081 0.069103
C21   C     C_R   0.528467 0.881999 0.536655 0.014087
C22   C     C_R   0.604596 0.901558 0.610476 0.049645
C23   C     C_3   0.068269 0.485292 0.408595 -0.499631
C24   C     C_R   0.465582 0.949545 0.495970 -0.137076
C25   C     C_R   0.493653 0.039824 0.524034 -0.093421
C26   C     C_R   0.564034 0.053886 0.601285 0.603297
C27   C     C_R   0.618974 0.985929 0.642591 -0.246548
C28   C     C_R   0.257859 0.499838 0.500164 0.937247
C29   C     C_R   0.371616 0.929749 0.431316 0.638722
C30   C     C_R   0.317507 0.998299 0.390178 -0.220827
C31   C     C_R   0.354115 0.088429 0.410587 -0.044073
C32   C     C_R   0.444709 0.111101 0.476219 0.026370
C33   C     C_R   0.298823 0.156091 0.366645 -0.347180
C34   C     C_3   0.104319 0.596936 0.522535 1.045253
C35   C     C_R   0.334424 0.245939 0.387606 0.841209
C36   C     C_R   0.484068 0.205325 0.489251 -0.106515
C37   C     C_3   0.900421 0.423281 0.570125 -0.575993
C38   C     C_3   0.044324 0.422698 0.570090 -0.488757
C39   C     C_3   0.924059 0.485269 0.408542 0.434160
C40   C     C_3   0.960995 0.597276 0.523337 1.046207
C41   C     C_3   0.879232 0.502203 0.500348 -0.279106
C42   C     C_3   0.295264 0.211813 0.061202 -0.360364
C43   C     C_3   0.151510 0.172597 0.045801 -0.343957
C44   C     C_3   0.108584 0.069016 0.079154 -0.856017
C45   C     C_R   0.446416 0.407360 0.755764 -0.172967
C46   C     C_3   0.418153 0.802949 0.109238 -0.404174
C47   C     C_3   0.436219 0.867967 0.180663 -0.328959
C48   C     C_3   0.411076 0.961883 0.145945 -0.868297
C49   C     C_R   0.497473 0.591151 0.246000 -0.239392
C50   C     C_R   0.366115 0.280324 0.872002 -0.160666
C51   C     C_R   0.403018 0.312021 0.784201 -0.254798
C52   C     C_R   0.448431 0.470841 0.815509 0.598369
F1    F     F_    0.172091 0.668017 0.460220 -0.576423
F2    F     F_    0.922386 0.611923 0.605928 -0.641606
F3    F     F_    0.153356 0.613596 0.604123 -0.621489
F4    F     F_    0.903370 0.552624 0.343439 -0.595155
F5    F     F_    0.529962 0.451652 0.202185 -0.606001
F6    F     F_    0.510367 0.561685 0.792122 -0.674875
F7    F     F_    0.319193 0.353315 0.167618 -0.607705
F8    F     F_    0.277420 0.311287 0.348552 -0.606916
F9    F     F_    0.570592 0.128816 0.643821 -0.701793
F10   F     F_    0.320263 0.843107 0.411712 -0.634683
F11   F     F_    0.942531 0.669885 0.463044 -0.564400
H1    H     H_    0.842416 0.354527 0.555732 0.231640
H2    H     H_    0.561965 0.231558 0.530325 0.222731
H3    H     H_    0.245440 0.980294 0.341713 0.183590
H4    H     H_    0.720410 0.848921 0.710559 0.162182
H5    H     H_    0.685743 0.696324 0.658451 0.197271
H6    H     H_    0.474224 0.775729 0.448277 0.202232
H7    H     H_    0.082228 0.432366 0.636428 0.232848
H8    H     H_    0.227492 0.139287 0.317524 0.178148
H9    H     H_    0.054909 0.353815 0.555564 0.232246
H10   H     H_    0.867419 0.416627 0.392946 0.138150
H11   H     H_    0.079727 0.417569 0.391356 0.224919
H12   H     H_    0.123880 0.540428 0.357522 0.254150
H13   H     H_    0.161004 0.029863 0.041334 0.258235
H14   H     H_    0.127687 0.056030 0.150012 0.265065
H15   H     H_    0.003180 0.043539 0.070387 0.262062
H16   H     H_    0.092613 0.209856 0.080906 0.251586
H17   H     H_    0.132638 0.183132 0.974722 0.226799
H18   H     H_    0.356320 0.171342 0.032942 0.190130
H19   H     H_    0.309821 0.202097 0.132988 0.252455
H20   H     H_    0.478526 0.996295 0.089399 0.264013
H21   H     H_    0.309837 0.952524 0.125026 0.266097
H22   H     H_    0.425986 0.007487 0.198566 0.255648
H23   H     H_    0.485674 0.725944 0.271313 0.193026
H24   H     H_    0.367181 0.836114 0.237102 0.277776
H25   H     H_    0.536906 0.879892 0.203515 0.225903
H26   H     H_    0.487312 0.837055 0.053398 0.203500
H27   H     H_    0.318065 0.795284 0.085941 0.215610
H28   H     H_    0.375811 0.728764 0.963666 0.147031
H29   H     H_    0.337453 0.206033 0.890928 0.164791
H30   H     H_    0.399265 0.261657 0.738854 0.215095
H31   H     H_    0.867852 0.432948 0.636550 0.252870
H32   H     H_    0.359720 0.616743 0.863249 0.205862
H33   H     H_    0.672177 0.999220 0.701378 0.175198
N1    N     N_R   0.573860 0.731700 0.552730 -0.135948
N2    N     N_R   0.426060 0.268290 0.447230 -0.180512
O1    O     O_R   0.462770 0.383110 0.605620 -0.636825
O2    O     O_R   0.510160 0.531900 0.639510 -0.553779
O3    O     O_R   0.661510 0.425600 0.483070 -0.653157
O4    O     O_R   0.708900 0.574390 0.516960 -0.547088
O5    O     O_R   0.489840 0.468100 0.360490 -0.506251
O6    O     O_R   0.537230 0.616890 0.394380 -0.641488
O7    O     O_R   0.291100 0.425610 0.483040 -0.601155
O8    O     O_R   0.338490 0.574400 0.516930 -0.549678
Zn1   Zn    Zn3+2 0.468350 0.400660 0.477370 1.030386
Zn2   Zn    Zn3+2 0.531650 0.599340 0.522630 1.070074

loop_
_geom_bond_atom_site_label_1
_geom_bond_atom_site_label_2
_ccdc_geom_bond_type
O3    Zn1   S    
C38   H7    S    
C42   H19   S    
C1    O1    A    
C19   N1    A    
C7    C8    A    
C39   C41   S    
C46   H26   S    
O7    Zn1   S    
C12   C23   S    
C26   C27   A    
C37   C38   S    
C40   F11   S    
C12   C28   S    
C34   C40   S    
C32   C36   A    
C44   H14   S    
C26   F9    S    
C8    C42   S    
C30   C31   A    
C11   C14   A    
C4    C41   S    
C45   C51   A    
C43   H16   S    
C18   C19   A    
C44   H13   S    
C24   C29   A    
C46   C47   S    
N1    Zn2   S    
C16   O6    A    
C20   N1    A    
C39   F4    S    
C28   O8    A    
C4    O4    A    
C31   C33   A    
O4    Zn2   S    
C35   N2    A    
C9    C10   A    
C9    H32   S    
C25   C32   A    
C15   C49   A    
C34   F3    S    
C21   C22   A    
C12   C38   S    
C27   H33   S    
C42   H18   S    
C1    O2    A    
C7    F7    S    
C25   C26   A    
C3    C50   A    
C52   F6    S    
C38   H9    S    
O2    Zn2   S    
C24   C25   A    
C14   C46   S    
C3    C8    A    
C17   C49   A    
C36   H2    S    
C45   C52   A    
C18   H4    S    
N2    Zn1   S    
C48   H21   S    
C35   F8    S    
C47   H24   S    
C43   C44   S    
C5    C9    A    
C29   C30   A    
C16   O5    A    
C47   C48   S    
C14   C15   A    
C28   O7    A    
C4    O3    A    
C50   C51   A    
C19   H5    S    
C16   C49   S    
C30   H3    S    
C2    C52   A    
C51   H30   S    
C15   H23   S    
C50   H29   S    
C40   C41   S    
C10   H28   S    
C40   F2    S    
C22   C27   A    
C20   H6    S    
C2    C5    A    
C42   C43   S    
C23   H11   S    
C12   C34   S    
O6    Zn2   S    
C37   H1    S    
C29   F10   S    
C18   C22   A    
C31   C32   A    
C23   H12   S    
O5    Zn1   S    
C6    C7    A    
C46   H27   S    
O1    Zn1   S    
C48   H20   S    
C13   C17   A    
C47   H25   S    
C44   H15   S    
C2    C3    A    
C43   H17   S    
C6    C13   A    
C11   C13   A    
C1    C45   S    
C5    C6    A    
O8    Zn2   S    
C23   C39   S    
C33   C35   A    
C37   H31   S    
C39   H10   S    
C37   C41   S    
C10   C11   A    
C33   H8    S    
C20   C21   A    
C34   F1    S    
C21   C24   A    
C48   H22   S    
C36   N2    A    
C17   F5    S    
