data_mof_unit_8049.cif
_audit_creation_date              2012-10-26T18:50:23-0400
_audit_creation_method            fapswitch 2.2
_symmetry_space_group_name_H-M    P1
_symmetry_Int_Tables_number       1
_space_group_crystal_system       triclinic
_cell_length_a                    9.640921
_cell_length_b                    10.962496
_cell_length_c                    15.345472
_cell_angle_alpha                 84.065037
_cell_angle_beta                  75.470668
_cell_angle_gamma                 87.927478
_cell_volume                      1561.47001145

loop_
_atom_site_label
_atom_site_type_symbol
_atom_type_description
_atom_site_fract_x
_atom_site_fract_y
_atom_site_fract_z
_atom_type_partial_charge
C1    C     C_R   0.002687 0.261926 0.502634 0.538630
C2    C     C_R   0.225384 0.560844 0.041272 0.012735
C3    C     C_R   0.323301 0.516391 0.092102 0.002291
C4    C     C_R   0.918199 0.499781 0.672804 0.530023
C5    C     C_R   0.079973 0.577330 0.083877 -0.068506
C6    C     C_R   0.029644 0.548301 0.176599 -0.122478
C7    C     C_R   0.268451 0.484770 0.185695 -0.135799
C8    C     C_R   0.265104 0.099809 0.518987 -0.112384
C9    C     C_R   0.369606 0.026159 0.546978 0.391495
C10   C     C_R   0.341802 0.904217 0.577967 0.397281
C11   C     C_R   0.210897 0.854872 0.578698 -0.117462
C12   C     C_R   0.667773 0.507966 0.908692 -0.013830
C13   C     C_R   0.109089 0.924216 0.541127 -0.092139
C14   C     C_R   0.128086 0.052845 0.522269 -0.074406
C15   C     C_R   0.007858 0.126741 0.509955 -0.055686
C16   C     C_R   0.995677 0.736629 0.506766 0.552340
C17   C     C_R   0.880773 0.069403 0.511140 -0.124000
C18   C     C_R   0.877149 0.945198 0.503392 0.253064
C19   C     C_R   0.991123 0.869101 0.519698 -0.005600
C20   C     C_R   0.700129 0.640337 0.366016 -0.079249
C21   C     C_R   0.669006 0.689965 0.287170 0.232478
C22   C     C_R   0.530453 0.692829 0.280500 -0.133579
C23   C     C_R   0.765617 0.474403 0.962617 0.047954
C24   C     C_R   0.417849 0.651181 0.355164 0.256252
C25   C     C_R   0.451678 0.574003 0.431280 0.122980
C26   C     C_R   0.600349 0.572306 0.433905 0.065894
C27   C     C_R   0.556233 0.420760 0.555394 0.049150
C28   C     C_R   0.080619 0.498050 0.327913 0.536331
C29   C     C_R   0.406810 0.423862 0.559709 0.375033
C30   C     C_R   0.868847 0.497246 0.773022 -0.067656
C31   C     C_R   0.124495 0.506065 0.228504 -0.027546
C32   C     C_R   0.910575 0.450233 0.922057 0.253525
C33   C     C_R   0.962781 0.473943 0.828501 -0.132723
C34   C     C_R   0.519697 0.531313 0.951944 0.024136
C35   C     C_R   0.721549 0.509842 0.813915 -0.147391
C36   C     C_3   0.760826 0.915859 0.393709 0.056305
C37   C     C_3   0.750877 0.049579 0.353117 -0.293481
C38   C     C_3   0.724424 0.054676 0.258947 -0.464883
C39   C     C_3   0.248207 0.767378 0.285589 0.013607
C40   C     C_3   0.278418 0.904241 0.282885 -0.281119
C41   C     C_3   0.231303 0.978157 0.205212 -0.486201
C42   C     C_3   0.305788 0.355890 0.708818 0.008459
C43   C     C_3   0.428056 0.298356 0.748067 -0.290212
C44   C     C_3   0.382289 0.268397 0.850292 -0.482303
C45   C     C_R   0.471911 0.506219 0.048198 -0.010624
C46   C     C_3   0.031269 0.279498 0.965123 0.000004
C47   C     C_3   0.907045 0.197749 0.019242 -0.277253
C48   C     C_3   0.946841 0.062203 0.013480 -0.481325
C49   C     C_3   0.501728 0.750654 0.807403 0.036404
C50   C     C_3   0.374094 0.839704 0.814517 -0.247093
C51   C     C_3   0.423250 0.970941 0.784425 -0.452715
C52   C     C_R   0.574812 0.476472 0.098399 -0.149281
C53   C     C_R   0.717956 0.462472 0.056550 -0.119511
C54   C     C_R   0.417702 0.582411 0.904461 0.233992
C55   C     C_R   0.273168 0.591333 0.948760 -0.097570
Cu1   Cu    Cu3+1 0.140660 0.499990 0.500010 1.025487
Cu2   Cu    Cu3+1 0.859340 0.500010 0.499990 0.960170
F1    F     F_    0.496441 0.075164 0.547335 -0.652698
F2    F     F_    0.443701 0.831891 0.604490 -0.616026
F3    F     F_    0.770995 0.750420 0.221085 -0.697993
H1    H     H_    0.791573 0.440155 0.098968 0.154734
H2    H     H_    0.917659 0.561808 0.207966 0.182513
H3    H     H_    0.197921 0.626595 0.910064 0.131090
H4    H     H_    0.075528 0.468447 0.799960 0.112220
H5    H     H_    0.650508 0.515933 0.770168 0.205681
H6    H     H_    0.549574 0.466547 0.171139 0.105616
H7    H     H_    0.664395 0.870493 0.386581 0.194990
H8    H     H_    0.857872 0.870227 0.353935 0.129431
H9    H     H_    0.661771 0.098751 0.396629 0.227510
H10   H     H_    0.852916 0.097810 0.346264 0.139686
H11   H     H_    0.815132 0.010296 0.212832 0.191295
H12   H     H_    0.005139 0.614234 0.045469 0.155175
H13   H     H_    0.714854 0.151826 0.232256 0.131392
H14   H     H_    0.623504 0.007382 0.261389 0.164135
H15   H     H_    0.130913 0.758975 0.294245 0.152358
H16   H     H_    0.296587 0.728053 0.220895 0.116722
H17   H     H_    0.218971 0.938676 0.347530 0.175304
H18   H     H_    0.394084 0.919076 0.275182 0.154710
H19   H     H_    0.290028 0.946156 0.139448 0.149629
H20   H     H_    0.254784 0.076671 0.204819 0.149466
H21   H     H_    0.114222 0.968457 0.213552 0.152241
H22   H     H_    0.205035 0.310255 0.747021 0.150807
H23   H     H_    0.784376 0.122542 0.509974 0.196857
H24   H     H_    0.296014 0.455325 0.719171 0.152216
H25   H     H_    0.469430 0.214101 0.715565 0.200520
H26   H     H_    0.516057 0.365009 0.735455 0.151167
H27   H     H_    0.332844 0.350133 0.883216 0.179610
H28   H     H_    0.477322 0.239735 0.876256 0.149701
H29   H     H_    0.304783 0.192290 0.868114 0.127061
H30   H     H_    0.125499 0.254816 0.992829 0.158583
H31   H     H_    0.060017 0.259826 0.893069 0.116543
H32   H     H_    0.880370 0.217443 0.091101 0.163687
H33   H     H_    0.811049 0.217029 0.992199 0.162001
H34   H     H_    0.299227 0.190922 0.492170 0.200498
H35   H     H_    0.978723 0.041489 0.941736 0.145421
H36   H     H_    0.853068 0.005027 0.049240 0.173406
H37   H     H_    0.036805 0.037928 0.045516 0.148408
H38   H     H_    0.576993 0.768653 0.739704 0.220664
H39   H     H_    0.563228 0.767116 0.857750 0.109543
H40   H     H_    0.304685 0.813144 0.771872 0.210502
H41   H     H_    0.309040 0.835524 0.885588 0.128871
H42   H     H_    0.475742 0.004526 0.833933 0.129494
H43   H     H_    0.328410 0.029308 0.779923 0.149238
H44   H     H_    0.500000 0.977561 0.716861 0.243262
H45   H     H_    0.190581 0.762320 0.610163 0.165244
H46   H     H_    0.601789 0.349714 0.593686 0.133113
H47   H     H_    0.803411 0.660420 0.372638 0.200689
H48   H     H_    0.335269 0.444592 0.227814 0.119786
H49   H     H_    0.513753 0.742288 0.219491 0.142292
N1    N     N_R   0.648320 0.501210 0.499140 -0.265769
N2    N     N_R   0.352470 0.501290 0.499110 -0.224322
O1    O     O_R   0.118810 0.319640 0.500010 -0.487104
O2    O     O_3   0.281305 0.700166 0.362082 -0.509434
O3    O     O_3   0.319870 0.336262 0.617041 -0.553243
O4    O     O_3   0.001770 0.405496 0.974874 -0.600524
O5    O     O_3   0.455172 0.628342 0.814686 -0.598603
O6    O     O_R   0.881240 0.319660 0.500000 -0.520577
O7    O     O_R   0.055570 0.499980 0.629840 -0.491532
O8    O     O_R   0.818000 0.500010 0.629830 -0.506022
O9    O     O_R   0.118760 0.680340 0.500000 -0.453960
O10   O     O_R   0.881190 0.680360 0.499990 -0.476013
O11   O     O_R   0.182000 0.499990 0.370170 -0.467557
O12   O     O_R   0.944430 0.500020 0.370160 -0.535542
O13   O     O_3   0.754790 0.900004 0.487597 -0.480180

loop_
_geom_bond_atom_site_label_1
_geom_bond_atom_site_label_2
_ccdc_geom_bond_type
C29   O3    S    
C48   H35   S    
C37   H9    S    
C27   C29   A    
C47   H32   S    
C54   C55   A    
C42   H22   S    
C43   C44   S    
C41   H20   S    
C36   H7    S    
C51   H42   S    
C48   H37   S    
C12   C23   A    
C46   O4    S    
C36   C37   S    
C36   O13   S    
C18   C19   A    
C5    H12   S    
C3    C7    A    
C2    C55   A    
C16   O9    A    
C1    O1    A    
C5    C6    A    
C28   O11   A    
Cu2   O12   S    
C35   H5    S    
C51   H43   S    
Cu1   Cu2   S    
C9    F1    S    
C49   H38   S    
C38   H11   S    
C53   H1    S    
C42   O3    S    
Cu2   N1    S    
C27   N1    A    
C8    C9    A    
C39   O2    S    
C55   H3    S    
C11   H45   S    
C4    O8    A    
C1    C15   S    
C39   H15   S    
C44   H27   S    
C9    C10   A    
C26   N1    A    
Cu1   N2    S    
Cu2   O8    S    
C20   H47   S    
C6    C31   A    
C24   O2    S    
C21   C22   A    
Cu1   O9    S    
C4    O7    A    
C23   C53   A    
C16   C19   S    
C28   O12   A    
C7    C31   A    
C13   C19   A    
C43   H25   S    
C42   H24   S    
C24   C25   A    
C21   F3    S    
C39   C40   S    
C46   H31   S    
C45   C52   A    
C50   C51   S    
C25   C26   A    
C3    C45   A    
C54   O5    S    
C17   H23   S    
Cu1   O11   S    
C16   O10   A    
C37   C38   S    
C49   H39   S    
C47   C48   S    
C14   C15   A    
C22   H49   S    
C41   H21   S    
C17   C18   A    
C47   H33   S    
C8    H34   S    
C34   C45   A    
C1    O6    A    
C39   H16   S    
C12   C35   A    
C30   C35   A    
C40   C41   S    
C34   C54   A    
C40   H18   S    
C2    C5    A    
C42   C43   S    
C12   C34   A    
C52   H6    S    
C52   C53   A    
Cu2   O6    S    
C38   H14   S    
C15   C17   A    
C46   C47   S    
C8    C14   A    
C48   H36   S    
C30   C33   A    
C40   H17   S    
C43   H26   S    
Cu1   O7    S    
C29   N2    A    
C28   C31   S    
C41   H19   S    
C36   H8    S    
C46   H30   S    
C50   H40   S    
C27   H46   S    
C37   H10   S    
C23   C32   A    
C6    H2    S    
C2    C3    A    
C51   H44   S    
C44   H28   S    
C32   C33   A    
C11   C13   A    
C20   C26   A    
C33   H4    S    
C10   F2    S    
C22   C24   A    
C32   O4    S    
C10   C11   A    
C25   N2    A    
Cu2   O10   S    
C49   O5    S    
C20   C21   A    
C50   H41   S    
C49   C50   S    
C7    H48   S    
C13   C14   A    
Cu1   O1    S    
C4    C30   S    
C44   H29   S    
C18   O13   S    
C38   H13   S    
