data_mof_unit_18541.cif
_audit_creation_date              2012-12-10T20:35:47-0500
_audit_creation_method            fapswitch 2.2
_symmetry_space_group_name_H-M    P1
_symmetry_Int_Tables_number       1
_space_group_crystal_system       triclinic
_cell_length_a                    15.735521
_cell_length_b                    10.703916
_cell_length_c                    9.8725
_cell_angle_alpha                 90.045726
_cell_angle_beta                  90.231522
_cell_angle_gamma                 90.163386
_cell_volume                      1662.82102746

loop_
_atom_site_label
_atom_site_type_symbol
_atom_type_description
_atom_site_fract_x
_atom_site_fract_y
_atom_site_fract_z
_atom_type_partial_charge
C1    C     C_R   0.498850 0.259922 0.500059 0.892604
C2    C     C_3   0.950249 0.403173 0.598036 -0.536056
C3    C     C_3   0.917296 0.503582 0.497851 0.245669
C4    C     C_3   0.950534 0.632765 0.545797 -0.400452
C5    C     C_3   0.049731 0.633735 0.544181 0.049723
C6    C     C_1   0.825758 0.502203 0.499379 -0.067726
C7    C     C_1   0.174488 0.501738 0.498787 -0.054406
C8    C     C_1   0.249695 0.500885 0.499125 -0.198991
C9    C     C_R   0.479679 0.062923 0.621083 0.025314
C10   C     C_R   0.488167 0.128202 0.499694 -0.101476
C11   C     C_R   0.481453 0.064017 0.376193 -0.230224
C12   C     C_R   0.338393 0.500057 0.499790 0.897331
C13   C     C_R   0.479702 0.935124 0.375779 -0.217886
C14   C     C_R   0.484934 0.870864 0.499173 -0.135874
C15   C     C_R   0.476079 0.935378 0.620519 0.091509
C16   C     C_3   0.522891 0.924717 0.752953 -0.002961
C17   C     C_3   0.526059 0.067396 0.754892 -0.226458
C18   C     C_R   0.429114 0.532130 0.070083 0.168758
C19   C     C_R   0.572757 0.477932 0.072300 -0.154197
C20   C     C_R   0.572699 0.477949 0.928462 -0.146006
C21   C     C_R   0.429814 0.536371 0.928137 0.154863
C22   C     C_3   0.341460 0.486816 0.915379 -0.478769
C23   C     C_R   0.497461 0.739813 0.499921 0.876840
C24   C     C_3   0.341945 0.473896 0.069441 -0.010809
C25   C     C_R   0.661667 0.499853 0.500161 0.916437
C26   C     C_3   0.048820 0.400193 0.597746 0.090069
C27   C     C_3   0.049977 0.477761 0.352913 -0.498512
C28   C     C_3   0.951097 0.471215 0.353476 0.105463
C29   C     C_1   0.750488 0.500914 0.500314 -0.188752
C30   C     C_3   0.082943 0.502517 0.499192 0.206410
H1    H     H_    0.923586 0.310217 0.569868 0.177469
H2    H     H_    0.072349 0.423453 0.701184 0.171734
H3    H     H_    0.927548 0.424052 0.702227 0.168005
H4    H     H_    0.925782 0.707571 0.478631 0.163924
H5    H     H_    0.483678 0.111932 0.280109 0.171395
H6    H     H_    0.480460 0.886891 0.279257 0.178549
H7    H     H_    0.585979 0.878728 0.742486 0.123621
H8    H     H_    0.485892 0.109243 0.835112 0.162822
H9    H     H_    0.631007 0.457710 0.126255 0.153349
H10   H     H_    0.630941 0.458757 0.874936 0.165044
H11   H     H_    0.297111 0.560532 0.879512 0.172235
H12   H     H_    0.336391 0.399076 0.856178 0.223538
H13   H     H_    0.293635 0.534211 0.118844 0.118549
H14   H     H_    0.075583 0.550701 0.284696 0.188631
H15   H     H_    0.075931 0.388690 0.312666 0.160341
H16   H     H_    0.934293 0.371282 0.334799 0.090018
H17   H     H_    0.068632 0.701408 0.463856 0.100710
H18   H     H_    0.923248 0.653898 0.646402 0.184605
N1    N     N_R   0.499430 0.499140 0.142800 -0.102456
N2    N     N_R   0.499430 0.499180 0.857150 -0.101304
O1    O     O_R   0.500010 0.316790 0.614690 -0.610799
O2    O     O_R   0.500000 0.316760 0.385350 -0.629314
O3    O     O_R   0.377150 0.500020 0.614720 -0.614259
O4    O     O_R   0.377140 0.499990 0.385380 -0.632809
O5    O     O_R   0.500000 0.683240 0.614650 -0.619912
O6    O     O_R   0.499990 0.683210 0.385310 -0.620465
O7    O     O_R   0.622860 0.500010 0.614620 -0.617677
O8    O     O_R   0.622850 0.499980 0.385280 -0.621958
Zn1   Zn    Zn3+2 0.500010 0.500020 0.653130 0.942874
Zn2   Zn    Zn3+2 0.499990 0.499980 0.346870 0.934129
N3    N     N_2   0.473303 0.871784 0.863801 -0.287080
H19   H     H_    0.493399 0.784039 0.892188 0.236842
C31   C     C_3   0.381507 0.884020 0.863088 -0.772384
H20   H     H_    0.356039 0.852746 0.962191 0.222362
H21   H     H_    0.353376 0.824403 0.782255 0.241411
H22   H     H_    0.362460 0.982727 0.847413 0.241839
C32   C     C_R   0.616098 0.118487 0.753854 0.169099
C33   C     C_R   0.673236 0.093132 0.647724 -0.169496
C34   C     C_R   0.757031 0.136648 0.654442 -0.148834
C35   C     C_R   0.784908 0.204120 0.767441 -0.107092
C36   C     C_R   0.728925 0.229465 0.873178 -0.157086
C37   C     C_R   0.645007 0.186814 0.866593 -0.131826
H23   H     H_    0.653519 0.038405 0.560834 0.129589
H24   H     H_    0.800692 0.116640 0.572837 0.122469
H25   H     H_    0.850124 0.235469 0.774109 0.115498
H26   H     H_    0.750702 0.281426 0.960876 0.115054
H27   H     H_    0.602868 0.205581 0.950634 0.116478
N4    N     N_2   0.080071 0.276342 0.561533 -0.294874
H28   H     H_    0.055144 0.239637 0.473276 0.229173
C38   C     C_3   0.083548 0.186217 0.670627 -0.828181
H29   H     H_    0.112008 0.097964 0.633122 0.242841
H30   H     H_    0.018588 0.166065 0.708668 0.235257
H31   H     H_    0.123900 0.222026 0.754790 0.250104
N5    N     N_2   0.337712 0.344585 0.116937 -0.269502
H32   H     H_    0.323720 0.336285 0.218371 0.249722
C39   C     C_3   0.398154 0.251906 0.070202 -0.740662
H33   H     H_    0.375761 0.157556 0.100417 0.220400
H34   H     H_    0.461425 0.267997 0.116364 0.245169
H35   H     H_    0.404253 0.252017 0.958809 0.227929
N6    N     N_2   0.908568 0.543841 0.247116 -0.287786
H36   H     H_    0.873172 0.491556 0.179414 0.213981
C40   C     C_3   0.946008 0.654981 0.188250 -0.805121
H37   H     H_    0.895306 0.711152 0.139252 0.239934
H38   H     H_    0.992697 0.628381 0.109329 0.233019
H39   H     H_    0.977209 0.714133 0.265900 0.236174
N7    N     N_2   0.090896 0.676278 0.669820 -0.297403
H40   H     H_    0.133569 0.748831 0.658306 0.221892
C41   C     C_3   0.049152 0.673665 0.800388 -0.823323
H41   H     H_    0.097839 0.680694 0.881767 0.234852
H42   H     H_    0.013575 0.585429 0.815722 0.237682
H43   H     H_    0.005643 0.754682 0.809804 0.239855

loop_
_geom_bond_atom_site_label_1
_geom_bond_atom_site_label_2
_ccdc_geom_bond_type
C31   H21   S    
C26   H2    S    
O5    Zn1   S    
C18   C21   A    
C19   C20   A    
C3    C6    S    
O3    Zn1   S    
C7    C8    T    
O4    Zn2   S    
C5    H17   S    
C28   H16   S    
C26   N4    S    
N1    Zn2   S    
C18   C24   S    
N2    Zn1   S    
C3    C28   S    
N5    C39   S    
C36   H26   S    
C20   H10   S    
C39   H34   S    
O7    Zn1   S    
C22   H11   S    
O8    Zn2   S    
C15   C16   S    
C32   C37   A    
N3    C31   S    
C20   N2    A    
O2    Zn2   S    
C27   H14   S    
C33   C34   A    
N7    C41   S    
C35   C36   A    
C9    C10   A    
C12   O3    A    
C16   H7    S    
C27   H15   S    
C31   H22   S    
C7    C30   S    
C21   C22   S    
C27   C30   S    
C34   C35   A    
C25   O7    A    
C38   H31   S    
C21   N2    A    
C25   C29   S    
C4    H4    S    
C17   C32   S    
C32   C33   A    
C23   O6    A    
N5    H32   S    
C13   H6    S    
C38   H30   S    
C39   H33   S    
C16   C17   S    
C33   H23   S    
C40   H39   S    
O6    Zn2   S    
C2    H1    S    
C14   C23   S    
C37   H27   S    
C19   N1    A    
N6    C40   S    
C8    C12   S    
N7    H40   S    
C40   H38   S    
C34   H24   S    
C2    C26   S    
C1    O1    A    
C19   H9    S    
C2    H3    S    
C9    C17   S    
C26   C30   S    
C41   H42   S    
C22   C24   S    
O1    Zn1   S    
C25   O8    A    
C3    C4    S    
C35   H25   S    
C5    N7    S    
C5    C30   S    
C4    H18   S    
N4    H28   S    
C1    C10   S    
C38   H29   S    
C39   H35   S    
C23   O5    A    
C41   H43   S    
C11   H5    S    
C2    C3    S    
C9    C15   A    
C36   C37   A    
C11   C13   A    
N6    H36   S    
C22   H12   S    
C40   H37   S    
N4    C38   S    
C17   H8    S    
C24   N5    S    
N3    H19   S    
C1    O2    A    
C10   C11   A    
C31   H20   S    
C4    C5    S    
C6    C29   T    
C41   H41   S    
C16   N3    S    
C27   C28   S    
C24   H13   S    
C14   C15   A    
C28   N6    S    
C13   C14   A    
C12   O4    A    
C18   N1    A    
