data_mof_unit_19127.cif
_audit_creation_date              2012-10-26T21:09:04-0400
_audit_creation_method            fapswitch 2.2
_symmetry_space_group_name_H-M    P1
_symmetry_Int_Tables_number       1
_space_group_crystal_system       triclinic
_cell_length_a                    15.461996
_cell_length_b                    15.502708
_cell_length_c                    9.682566
_cell_angle_alpha                 89.858627
_cell_angle_beta                  89.396269
_cell_angle_gamma                 89.940841
_cell_volume                      2320.80118278

loop_
_atom_site_label
_atom_site_type_symbol
_atom_type_description
_atom_site_fract_x
_atom_site_fract_y
_atom_site_fract_z
_atom_type_partial_charge
C1    C     C_R   0.383308 0.882062 0.500590 0.552949
C2    C     C_2   0.719906 0.215023 0.380655 0.239530
C3    C     C_2   0.215958 0.280853 0.382273 0.234457
C4    C     C_2   0.219052 0.715909 0.380667 0.239217
C5    C     C_2   0.688014 0.820565 0.498485 -0.079553
C6    C     C_2   0.679726 0.187564 0.497340 -0.076806
C7    C     C_2   0.187831 0.320383 0.498460 -0.079826
C8    C     C_2   0.179647 0.687604 0.497490 -0.077102
C9    C     C_2   0.288752 0.219668 0.387089 -0.161636
C10   C     C_2   0.283597 0.786181 0.386004 -0.160344
C11   C     C_2   0.789501 0.720379 0.387231 -0.161949
C12   C     C_R   0.381806 0.116435 0.500389 0.554128
C13   C     C_2   0.784117 0.285643 0.385919 -0.160745
C14   C     C_2   0.311454 0.177845 0.502300 -0.166152
C15   C     C_2   0.319765 0.813672 0.503127 -0.159967
C16   C     C_2   0.811577 0.677976 0.502227 -0.165976
C17   C     C_2   0.820063 0.313347 0.503091 -0.159678
C18   C     C_2   0.429487 0.999628 0.923255 -0.025792
C19   C     C_2   0.929487 0.499487 0.923254 -0.026068
C20   C     C_2   0.429534 0.003106 0.078983 -0.042251
C21   C     C_2   0.929523 0.502853 0.078987 -0.042949
C22   C     C_3   0.648564 0.734585 0.187183 -0.002552
C23   C     C_R   0.883363 0.381993 0.500589 0.552971
C24   C     C_3   0.594815 0.766321 0.066470 -0.355292
C25   C     C_3   0.684878 0.230573 0.149566 -0.005066
C26   C     C_3   0.630453 0.184366 0.042727 -0.351553
C27   C     C_3   0.145993 0.233015 0.189614 -0.002441
C28   C     C_3   0.092019 0.264256 0.068833 -0.355306
C29   C     C_3   0.180478 0.733747 0.151737 -0.005263
C30   C     C_3   0.125167 0.688104 0.045442 -0.351103
C31   C     C_R   0.881849 0.616478 0.500382 0.554121
C32   C     C_R   0.617129 0.117764 0.499015 0.575861
C33   C     C_R   0.618360 0.883452 0.499279 0.572925
C34   C     C_R   0.117055 0.617824 0.499025 0.575560
C35   C     C_R   0.118291 0.383385 0.499279 0.572734
C36   C     C_2   0.716717 0.781587 0.382166 0.234714
Cu1   Cu    Cu3+1 0.500020 0.000000 0.638630 0.926360
Cu2   Cu    Cu3+1 0.000020 0.500000 0.638630 0.926432
Cu3   Cu    Cu3+1 0.499980 0.000000 0.361370 0.975585
Cu4   Cu    Cu3+1 0.999980 0.500000 0.361370 0.974883
H1    H     H_    0.716580 0.807729 0.598049 0.051081
H2    H     H_    0.305558 0.785450 0.603047 0.096182
H3    H     H_    0.776754 0.685428 0.599089 0.093349
H4    H     H_    0.805938 0.284961 0.602946 0.096008
H5    H     H_    0.367205 0.997722 0.872854 0.135314
H6    H     H_    0.867210 0.497495 0.872849 0.135321
H7    H     H_    0.557825 0.004989 0.893058 0.204016
H8    H     H_    0.057826 0.504993 0.893049 0.204432
H9    H     H_    0.367367 0.007733 0.131408 0.131162
H10   H     H_    0.867338 0.507187 0.131422 0.131323
H11   H     H_    0.557507 0.991867 0.105064 0.218995
H12   H     H_    0.688775 0.218874 0.595794 0.042731
H13   H     H_    0.057562 0.492287 0.105064 0.219535
H14   H     H_    0.605109 0.697206 0.257907 0.126451
H15   H     H_    0.700261 0.691485 0.146072 0.118649
H16   H     H_    0.636056 0.803503 0.993009 0.157560
H17   H     H_    0.566465 0.710472 0.011495 0.092905
H18   H     H_    0.541577 0.808434 0.104664 0.173576
H19   H     H_    0.745166 0.253206 0.097567 0.124068
H20   H     H_    0.646993 0.287260 0.187516 0.114618
H21   H     H_    0.567890 0.164187 0.089832 0.172230
H22   H     H_    0.617285 0.228355 0.954711 0.094665
H23   H     H_    0.216782 0.307924 0.597855 0.051381
H24   H     H_    0.665280 0.126557 0.003501 0.154687
H25   H     H_    0.102437 0.196828 0.261774 0.126417
H26   H     H_    0.196970 0.188914 0.148944 0.118459
H27   H     H_    0.133350 0.300208 0.993931 0.157773
H28   H     H_    0.062678 0.208241 0.015642 0.092590
H29   H     H_    0.039512 0.307399 0.106648 0.173867
H30   H     H_    0.239631 0.757991 0.098287 0.123622
H31   H     H_    0.142321 0.789366 0.192968 0.114710
H32   H     H_    0.063630 0.666340 0.094184 0.173025
H33   H     H_    0.110007 0.733020 0.959496 0.094266
H34   H     H_    0.189419 0.718085 0.596398 0.043117
H35   H     H_    0.160283 0.631371 0.002946 0.154883
H36   H     H_    0.323434 0.207838 0.290777 0.155594
H37   H     H_    0.304272 0.814576 0.288664 0.139509
H38   H     H_    0.824725 0.709014 0.291271 0.155006
H39   H     H_    0.804765 0.314126 0.288641 0.138370
H40   H     H_    0.277063 0.185695 0.599469 0.093518
N1    N     N_2   0.498660 0.000000 0.846910 -0.348768
N2    N     N_2   0.998660 0.500000 0.846910 -0.348697
N3    N     N_2   0.498630 0.000000 0.153040 -0.356110
N4    N     N_2   0.998630 0.500000 0.153040 -0.356307
O1    O     O_R   0.410990 0.910970 0.617040 -0.496897
O2    O     O_R   0.589050 0.910970 0.617100 -0.513184
O3    O     O_R   0.089050 0.589030 0.617100 -0.515060
O4    O     O_R   0.089050 0.410970 0.617100 -0.512973
O5    O     O_R   0.589010 0.089030 0.382960 -0.432982
O6    O     O_R   0.589010 0.910970 0.382960 -0.430173
O7    O     O_R   0.089010 0.589030 0.382960 -0.433213
O8    O     O_R   0.089010 0.410970 0.382960 -0.430250
O9    O     O_3   0.685093 0.806413 0.254313 -0.524065
O10   O     O_3   0.705682 0.172113 0.256619 -0.519999
O11   O     O_3   0.183706 0.305025 0.254535 -0.524085
O12   O     O_R   0.410990 0.089030 0.617040 -0.494220
O13   O     O_3   0.203748 0.674235 0.255951 -0.520141
O14   O     O_R   0.910990 0.410970 0.617040 -0.496986
O15   O     O_R   0.910990 0.589030 0.617040 -0.494205
O16   O     O_R   0.410950 0.910970 0.382900 -0.503306
O17   O     O_R   0.410950 0.089030 0.382900 -0.505899
O18   O     O_R   0.910950 0.410970 0.382900 -0.503303
O19   O     O_R   0.910950 0.589030 0.382900 -0.506048
O20   O     O_R   0.589050 0.089030 0.617100 -0.515149

loop_
_geom_bond_atom_site_label_1
_geom_bond_atom_site_label_2
_ccdc_geom_bond_type
C6    C32   S    
C13   H39   S    
Cu4   N4    S    
C27   O11   S    
C28   H29   S    
C4    C8    D    
C19   H6    S    
C22   H14   S    
C16   C31   S    
C20   H9    S    
H13   N4    S    
C3    C9    S    
Cu1   O1    S    
C11   C36   S    
C28   H28   S    
C26   H21   S    
C3    C7    D    
C10   C15   D    
C23   O18   A    
C5    C36   D    
C18   N1    D    
C35   O4    A    
C2    C13   S    
C26   H24   S    
C34   O7    A    
C36   O9    S    
C24   H17   S    
C5    C33   S    
C32   O20   A    
C1    C15   S    
C9    H36   S    
C31   O15   A    
C19   N2    D    
Cu3   O6    S    
Cu2   O14   S    
C35   O8    A    
C25   O10   S    
C4    O13   S    
Cu2   N2    S    
Cu1   N1    S    
C2    C6    D    
C1    O16   A    
C21   H10   S    
C10   H37   S    
Cu3   O17   S    
C1    O1    A    
Cu1   O2    S    
C2    O10   S    
C28   H27   S    
C30   H33   S    
C8    C34   S    
C25   C26   S    
Cu1   O12   S    
Cu2   O4    S    
C31   O19   A    
C9    C14   D    
C29   C30   S    
C27   H25   S    
C11   H38   S    
C11   C16   D    
C32   O5    A    
C21   N4    D    
C8    H34   S    
C17   C23   S    
Cu4   O8    S    
C16   H3    S    
C7    H23   S    
C25   H20   S    
C12   C14   S    
C14   H40   S    
C22   O9    S    
C22   C24   S    
C4    C10   S    
C18   H5    S    
H11   N3    S    
C29   H30   S    
C5    H1    S    
C19   C21   S    
C7    C35   S    
C15   H2    S    
Cu2   O15   S    
Cu1   O20   S    
C30   H32   S    
C22   H15   S    
C29   O13   S    
C24   H16   S    
C13   C17   D    
Cu2   O3    S    
C26   H22   S    
C17   H4    S    
Cu3   N3    S    
C12   O17   A    
Cu1   Cu3   S    
C27   H26   S    
C33   O6    A    
Cu4   O19   S    
Cu2   Cu4   S    
C30   H35   S    
Cu3   O16   S    
H8    N2    S    
C18   C20   S    
C34   O3    A    
H7    N1    S    
Cu4   O7    S    
Cu4   O18   S    
C23   O14   A    
C24   H18   S    
C20   N3    D    
C27   C28   S    
C12   O12   A    
C3    O11   S    
C25   H19   S    
C6    H12   S    
Cu3   O5    S    
C33   O2    A    
C29   H31   S    
