data_mof_unit_44915.cif
_audit_creation_date              2012-12-11T15:52:12-0500
_audit_creation_method            fapswitch 2.2
_symmetry_space_group_name_H-M    P1
_symmetry_Int_Tables_number       1
_space_group_crystal_system       triclinic
_cell_length_a                    11.079395
_cell_length_b                    11.093775
_cell_length_c                    18.873626
_cell_angle_alpha                 90.023304
_cell_angle_beta                  90.071538
_cell_angle_gamma                 120.033057
_cell_volume                      2008.33412324

loop_
_atom_site_label
_atom_site_type_symbol
_atom_type_description
_atom_site_fract_x
_atom_site_fract_y
_atom_site_fract_z
_atom_type_partial_charge
C1    C     C_R   0.520351 0.451244 0.145134 0.556728
C2    C     C_R   0.572370 0.110776 0.139602 0.560778
C3    C     C_R   0.931089 0.480015 0.145264 0.558569
C4    C     C_R   0.457733 0.519780 0.852360 0.559480
C5    C     C_R   0.062495 0.542857 0.852446 0.562727
C6    C     C_R   0.481429 0.939213 0.851827 0.558716
C7    C     C_3   0.740531 0.153927 0.553835 -0.256612
C8    C     C_3   0.845753 0.586024 0.553529 -0.257471
C9    C     C_3   0.414081 0.259792 0.553636 -0.257287
C10   C     C_3   0.832666 0.590645 0.474051 -0.221246
C11   C     C_3   0.758269 0.167167 0.474371 -0.221592
C12   C     C_3   0.409695 0.242080 0.474155 -0.221619
C13   C     C_R   0.517993 0.457556 0.352993 0.567445
C14   C     C_R   0.542419 0.060418 0.352979 0.572496
C15   C     C_R   0.939643 0.482079 0.352970 0.567245
C16   C     C_R   0.457017 0.523346 0.645020 0.568864
C17   C     C_R   0.066343 0.542987 0.645007 0.568419
C18   C     C_R   0.476607 0.933615 0.644994 0.568805
C19   C     C_R   0.509476 0.010406 0.919591 0.013573
C20   C     C_R   0.998732 0.502511 0.922096 0.013707
C21   C     C_R   0.500055 0.496635 0.921664 0.014013
C22   C     C_R   0.971409 0.504216 0.070657 -0.020042
C23   C     C_R   0.550520 0.065216 0.065954 -0.019527
C24   C     C_R   0.498763 0.468238 0.070232 -0.023322
C25   C     C_R   0.398260 0.977910 0.965281 0.051115
C26   C     C_R   0.036901 0.426638 0.966766 0.055150
C27   C     C_R   0.578883 0.610634 0.966184 0.051497
C28   C     C_R   0.020773 0.425637 0.039172 0.032899
C29   C     C_R   0.418818 0.008369 0.036534 0.044056
C30   C     C_R   0.582128 0.595856 0.038534 0.034324
C31   C     C_R   0.664877 0.093478 0.021154 0.116973
C32   C     C_R   0.932688 0.584161 0.026217 0.128314
C33   C     C_R   0.417843 0.349563 0.025790 0.121237
C34   C     C_R   0.933299 0.571168 0.952156 0.139438
C35   C     C_R   0.646182 0.080850 0.947387 0.143310
C36   C     C_R   0.431184 0.362709 0.951748 0.138854
C37   C     C_3   0.267349 0.843223 0.977278 -0.233002
C38   C     C_3   0.172076 0.429194 0.973610 -0.223907
C39   C     C_3   0.583068 0.746594 0.972812 -0.221777
C40   C     C_3   0.156020 0.432285 0.053123 -0.256733
C41   C     C_3   0.291862 0.873964 0.055776 -0.237884
C42   C     C_3   0.584049 0.729256 0.052345 -0.248172
C43   C     C_R   0.482718 0.978681 0.572062 -0.019086
C44   C     C_R   0.021232 0.504001 0.572056 -0.019364
C45   C     C_R   0.495990 0.517185 0.572117 -0.019238
C46   C     C_R   0.997703 0.506524 0.423812 0.011968
C47   C     C_R   0.508800 0.002518 0.423798 0.010946
C48   C     C_R   0.493755 0.491063 0.423855 0.011963
C49   C     C_R   0.608225 0.024010 0.539645 0.038408
C50   C     C_R   0.975891 0.584029 0.539581 0.038164
C51   C     C_R   0.416012 0.391732 0.539579 0.038478
C52   C     C_R   0.964688 0.586403 0.468005 0.062783
C53   C     C_R   0.621818 0.035386 0.468073 0.062102
C54   C     C_R   0.413879 0.378134 0.468003 0.062996
C55   C     C_R   0.375118 0.943795 0.453826 0.125828
C56   C     C_R   0.056477 0.431767 0.453921 0.125989
C57   C     C_R   0.568408 0.624614 0.454011 0.126027
C58   C     C_R   0.062086 0.424458 0.528729 0.127063
C59   C     C_R   0.362206 0.938042 0.528644 0.127132
C60   C     C_R   0.575662 0.637576 0.528832 0.127245
Cr1   Cr    Cr6+3 0.769160 0.541570 0.250690 1.127121
Cr2   Cr    Cr6+3 0.458430 0.227590 0.250690 1.127492
Cr3   Cr    Cr6+3 0.772410 0.230840 0.250690 1.127269
Cr4   Cr    Cr6+3 0.541570 0.769160 0.749310 1.133156
Cr5   Cr    Cr6+3 0.227590 0.458430 0.749310 1.135464
Cr6   Cr    Cr6+3 0.230840 0.772410 0.749310 1.134539
H1    H     H_    0.275026 0.751408 0.960627 0.092177
H2    H     H_    0.261260 0.526153 0.952500 0.094389
H3    H     H_    0.486598 0.742191 0.953186 0.097510
H4    H     H_    0.140134 0.337782 0.081012 0.238072
H5    H     H_    0.211445 0.890192 0.081739 0.238904
H6    H     H_    0.682358 0.807357 0.078195 0.240508
H7    H     H_    0.174950 0.846482 0.956916 0.238289
H8    H     H_    0.163118 0.330605 0.954146 0.241495
H9    H     H_    0.682152 0.834055 0.952143 0.241205
H10   H     H_    0.234214 0.532162 0.077980 0.111871
H11   H     H_    0.317013 0.801731 0.084455 0.119928
H12   H     H_    0.487654 0.713722 0.078706 0.114949
O1    O     O_R   0.911480 0.572650 0.170990 -0.462770
O2    O     O_R   0.427350 0.338830 0.170990 -0.467143
O3    O     O_R   0.661170 0.088520 0.170990 -0.459759
O4    O     O_R   0.572650 0.911480 0.829010 -0.477992
O5    O     O_R   0.338830 0.427350 0.829010 -0.474586
O6    O     O_R   0.088520 0.661170 0.829010 -0.473955
O7    O     O_R   0.640340 0.528970 0.175680 -0.469944
O8    O     O_R   0.471030 0.111370 0.175680 -0.470269
O9    O     O_R   0.888630 0.359660 0.175680 -0.477358
O10   O     O_R   0.528970 0.640340 0.824320 -0.487482
O11   O     O_R   0.111370 0.471030 0.824320 -0.484931
O12   O     O_R   0.359660 0.888630 0.824320 -0.485372
O13   O     O_R   0.909980 0.572450 0.331530 -0.477631
O14   O     O_R   0.427550 0.337530 0.331530 -0.478222
O15   O     O_R   0.662470 0.090020 0.331530 -0.476013
O16   O     O_R   0.572450 0.909980 0.668470 -0.459837
O17   O     O_R   0.337530 0.427550 0.668470 -0.459784
O18   O     O_R   0.090020 0.662470 0.668470 -0.460406
O19   O     O_R   0.638950 0.528780 0.324500 -0.482515
O20   O     O_R   0.471220 0.110170 0.324500 -0.480475
O21   O     O_R   0.889830 0.361050 0.324500 -0.483129
O22   O     O_R   0.528780 0.638950 0.675500 -0.465526
O23   O     O_R   0.110170 0.471220 0.675500 -0.465154
O24   O     O_R   0.361050 0.889830 0.675500 -0.465695
O25   O     O_3   0.666667 0.333333 0.250560 -0.335884
O26   O     O_3   0.333333 0.666667 0.749440 -0.322050
Br1   Br    Br    0.834304 0.107437 0.057888 -0.412526
Br2   Br    Br    0.910722 0.736171 0.061516 -0.408398
Br3   Br    Br    0.263726 0.176411 0.060834 -0.412396
Br4   Br    Br    0.859195 0.661175 0.892608 -0.401498
Br5   Br    Br    0.807471 0.146442 0.886407 -0.398423
Br6   Br    Br    0.338441 0.198593 0.892177 -0.400796
Br7   Br    Br    0.214164 0.882452 0.393370 -0.405971
Br8   Br    Br    0.117881 0.332481 0.393561 -0.407991
Br9   Br    Br    0.667571 0.785317 0.393715 -0.406628
Br10  Br    Br    0.096073 0.283967 0.567815 -0.427283
Br11  Br    Br    0.187567 0.903985 0.567732 -0.427441
Br12  Br    Br    0.716288 0.812204 0.568056 -0.426899
H13   H     H_    0.813982 0.130292 0.581806 0.242946
H14   H     H_    0.869269 0.682972 0.581515 0.242629
H15   H     H_    0.316942 0.186165 0.581427 0.242612
H16   H     H_    0.741769 0.495298 0.452360 0.101830
H17   H     H_    0.753914 0.258060 0.452842 0.101583
H18   H     H_    0.505220 0.246729 0.452700 0.101261
H19   H     H_    0.725039 0.236249 0.578475 0.109877
H20   H     H_    0.763317 0.488076 0.578013 0.109562
H21   H     H_    0.512097 0.275544 0.578370 0.109688
H22   H     H_    0.847308 0.691422 0.454630 0.245288
H23   H     H_    0.844481 0.152516 0.454935 0.245483
H24   H     H_    0.308847 0.155814 0.454557 0.245091

loop_
_geom_bond_atom_site_label_1
_geom_bond_atom_site_label_2
_ccdc_geom_bond_type
C45   C60   A    
Cr3   O9    S    
C6    O4    A    
C55   C59   A    
Cr6   O24   S    
C11   H23   S    
C33   Br3   S    
Cr5   O23   S    
C3    O1    A    
C8    H14   S    
C48   C57   A    
Cr6   O12   S    
C5    C20   S    
C48   C54   A    
C6    C19   S    
Cr2   O8    S    
C22   C32   A    
Cr3   O3    S    
C37   C41   S    
C23   C29   A    
Cr2   O2    S    
Cr1   O25   S    
C41   H11   S    
C49   C53   A    
Cr5   O5    S    
C28   C40   S    
C46   C52   A    
C33   C36   A    
C18   O24   A    
C59   Br11  S    
C7    H13   S    
Cr3   O21   S    
C25   C37   S    
Cr2   O20   S    
C44   C58   A    
Cr2   O14   S    
C50   C52   A    
C39   H9    S    
C14   O15   A    
C11   C53   S    
C43   C59   A    
C47   C53   A    
C29   C41   S    
C21   C27   A    
C47   C55   A    
C10   C52   S    
C16   O22   A    
C32   Br2   S    
C27   C30   A    
C25   C29   A    
C31   Br1   S    
C11   H17   S    
C14   O20   A    
C39   C42   S    
C1    O7    A    
Cr1   O19   S    
C3    O9    A    
Cr6   O26   S    
C7    C49   S    
Cr3   O25   S    
C27   C39   S    
C21   C36   A    
C5    O6    A    
C26   C38   S    
C57   C60   A    
C57   Br9   S    
C6    O12   A    
Cr6   O6    S    
C9    H21   S    
C40   H10   S    
C17   O23   A    
C23   C31   A    
Cr5   O11   S    
C7    C11   S    
Cr5   O17   S    
C42   H6    S    
C39   H3    S    
C17   O18   A    
Cr4   O4    S    
Cr1   O7    S    
C12   H24   S    
C8    H20   S    
C38   H2    S    
C42   H12   S    
C13   O14   A    
C36   Br6   S    
C9    H15   S    
C31   C35   A    
C60   Br12  S    
C12   C54   S    
C8    C50   S    
Cr6   O18   S    
Cr2   O25   S    
C38   H8    S    
C44   C50   A    
Cr4   O26   S    
C37   H7    S    
C16   O17   A    
C55   Br7   S    
C43   C49   A    
C7    H19   S    
C3    C22   S    
C35   Br5   S    
C16   C45   S    
C13   C48   S    
C14   C47   S    
C4    O10   A    
Cr3   O15   S    
C40   H4    S    
C26   C28   A    
C24   C33   A    
C15   C46   S    
C41   H5    S    
C51   C54   A    
C34   Br4   S    
C9    C51   S    
C17   C44   S    
Cr4   O16   S    
C19   C35   A    
C18   C43   S    
C38   C40   S    
C4    C21   S    
C4    O5    A    
C20   C26   A    
Cr1   O1    S    
C18   O16   A    
C37   H1    S    
C56   Br8   S    
C56   C58   A    
C2    O8    A    
C13   O19   A    
C19   C25   A    
C9    C12   S    
C24   C30   A    
C10   H16   S    
C15   O13   A    
C20   C34   A    
Cr4   O22   S    
C12   H18   S    
C1    C24   S    
C8    C10   S    
C15   O21   A    
C46   C56   A    
C2    C23   S    
C58   Br10  S    
C1    O2    A    
C45   C51   A    
C30   C42   S    
C2    O3    A    
C22   C28   A    
Cr5   O26   S    
C10   H22   S    
Cr4   O10   S    
C5    O11   A    
Cr1   O13   S    
C32   C34   A    
