data_mof_unit_61262.cif
_audit_creation_date              2012-12-10T20:17:16-0500
_audit_creation_method            fapswitch 2.2
_symmetry_space_group_name_H-M    P1
_symmetry_Int_Tables_number       1
_space_group_crystal_system       triclinic
_cell_length_a                    35.551459
_cell_length_b                    35.561349
_cell_length_c                    23.53966
_cell_angle_alpha                 89.999407
_cell_angle_beta                  89.976522
_cell_angle_gamma                 90.047366
_cell_volume                      29760.1870589

loop_
_atom_site_label
_atom_site_type_symbol
_atom_type_description
_atom_site_fract_x
_atom_site_fract_y
_atom_site_fract_z
_atom_type_partial_charge
C1    C     C_R   0.999984 0.426713 0.499965 0.951640
C2    C     C_1   0.266746 0.000833 0.503724 -0.002450
C3    C     C_R   0.826128 0.974507 0.465463 0.109521
C4    C     C_R   0.024592 0.173978 0.535817 0.109406
C5    C     C_R   0.826282 0.025925 0.534674 0.109414
C6    C     C_R   0.974130 0.826150 0.533787 0.109406
C7    C     C_R   0.173475 0.972748 0.533297 0.104053
C8    C     C_R   0.474064 0.673665 0.964911 0.108966
C9    C     C_R   0.673817 0.527455 0.970378 0.109637
C10   C     C_R   0.529699 0.326699 0.972471 0.103795
C11   C     C_R   0.326320 0.472334 0.971217 0.091916
C12   C     C_R   0.524850 0.673976 0.035151 0.109156
C13   C     C_1   0.000313 0.733178 0.499727 -0.002220
C14   C     C_R   0.326193 0.527078 0.034555 0.117302
C15   C     C_R   0.471199 0.326250 0.027133 0.104723
C16   C     C_R   0.673449 0.472914 0.033785 0.103621
C17   C     C_R   0.974415 0.134261 0.464276 0.131828
C18   C     C_R   0.134272 0.027284 0.469018 0.128540
C19   C     C_R   0.026850 0.865852 0.466454 0.132617
C20   C     C_R   0.865619 0.974184 0.465271 0.131074
C21   C     C_R   0.024933 0.134496 0.536096 0.130530
C22   C     C_R   0.865777 0.026216 0.534566 0.131536
C23   C     C_R   0.973792 0.865635 0.533982 0.131268
C24   C     C_1   0.733142 0.000184 0.500319 -0.002202
C25   C     C_R   0.134092 0.971497 0.531190 0.132694
C26   C     C_R   0.473797 0.634177 0.965147 0.132036
C27   C     C_R   0.634322 0.527045 0.968619 0.128800
C28   C     C_R   0.530094 0.366131 0.973348 0.130276
C29   C     C_R   0.365740 0.472912 0.969312 0.128071
C30   C     C_R   0.525208 0.634495 0.035488 0.130591
C31   C     C_R   0.365902 0.528982 0.031262 0.114432
C32   C     C_R   0.470646 0.365675 0.027262 0.130930
C33   C     C_R   0.634070 0.471620 0.031523 0.133036
C34   C     C_R   0.999798 0.114619 0.500100 -0.161084
C35   C     C_1   0.499589 0.766872 0.999434 -0.002293
C36   C     C_R   0.114431 0.999267 0.499779 -0.147655
C37   C     C_R   0.000199 0.885458 0.500109 -0.156991
C38   C     C_R   0.885429 0.000123 0.499969 -0.159718
C39   C     C_R   0.499693 0.614592 0.000164 -0.158267
C40   C     C_R   0.614441 0.499230 0.999745 -0.146724
C41   C     C_R   0.500200 0.385698 0.000201 -0.132748
C42   C     C_R   0.385517 0.501019 0.999877 -0.129165
C43   C     C_R   0.999696 0.193205 0.499783 -0.032519
C44   C     C_R   0.193002 0.000611 0.502978 -0.032985
C45   C     C_R   0.000354 0.806898 0.499933 -0.033125
C46   C     C_1   0.766753 0.500829 0.003975 -0.002435
C47   C     C_R   0.806854 0.000200 0.500179 -0.032862
C48   C     C_R   0.499497 0.693168 0.999797 -0.032726
C49   C     C_R   0.693010 0.500597 0.003143 -0.032662
C50   C     C_R   0.500452 0.307059 0.999487 -0.032932
C51   C     C_R   0.307052 0.499109 0.003954 -0.012731
C52   C     C_1   0.999702 0.233334 0.499583 -0.061204
C53   C     C_1   0.233156 0.000818 0.503754 -0.061071
C54   C     C_1   0.000362 0.766753 0.499774 -0.060966
C55   C     C_1   0.766716 0.000209 0.500299 -0.061117
C56   C     C_1   0.499506 0.733303 0.999515 -0.061218
C57   C     C_1   0.500464 0.233318 0.999079 -0.002722
C58   C     C_1   0.733163 0.500806 0.003995 -0.060928
C59   C     C_1   0.500523 0.266906 0.999144 -0.060966
C60   C     C_1   0.266867 0.498735 0.004572 -0.020551
C61   C     C_3   0.946556 0.113181 0.427230 -0.822410
C62   C     C_3   0.113305 0.056790 0.434923 -0.826574
C63   C     C_3   0.055930 0.887042 0.431748 -0.829282
C64   C     C_3   0.886544 0.945923 0.428762 -0.823363
C65   C     C_3   0.052330 0.113701 0.574229 -0.820321
C66   C     C_3   0.886893 0.054747 0.570369 -0.824144
C67   C     C_3   0.945046 0.886566 0.569610 -0.824040
C68   C     C_1   0.233273 0.498701 0.004393 -0.001935
C69   C     C_3   0.114317 0.939414 0.561403 -0.839379
C70   C     C_3   0.445416 0.613006 0.929146 -0.825026
C71   C     C_3   0.613413 0.556311 0.933972 -0.825021
C72   C     C_3   0.563388 0.386090 0.946566 -0.840776
C73   C     C_3   0.386700 0.443601 0.934761 -0.828752
C74   C     C_3   0.552975 0.613710 0.073012 -0.820535
C75   C     C_3   0.386559 0.561519 0.059144 -0.903449
C76   C     C_3   0.437656 0.385053 0.055738 -0.848035
C77   C     C_3   0.614250 0.439669 0.061979 -0.835730
C78   C     C_3   0.949565 0.304439 0.423613 -0.924264
C79   C     C_R   0.975357 0.326530 0.462686 0.155209
C80   C     C_3   0.303810 0.051256 0.427493 -0.924972
C81   C     C_3   0.050661 0.695631 0.423976 -0.924516
C82   C     C_3   0.695801 0.949905 0.424224 -0.924408
C83   C     C_3   0.050121 0.304206 0.575535 -0.924458
C84   C     C_3   0.695620 0.050355 0.576327 -0.924277
C85   C     C_3   0.949763 0.695827 0.575491 -0.924341
C86   C     C_3   0.304621 0.950122 0.578523 -0.924162
C87   C     C_3   0.449428 0.804488 0.923555 -0.924044
C88   C     C_3   0.803768 0.551240 0.927671 -0.924831
C89   C     C_3   0.551474 0.195578 0.924562 -0.924665
C90   C     C_R   0.326171 0.025194 0.465740 0.155514
C91   C     C_3   0.196230 0.448411 0.927958 -0.927995
C92   C     C_3   0.550066 0.804122 0.075348 -0.924536
C93   C     C_3   0.195374 0.549485 0.079066 -0.906470
C94   C     C_3   0.449126 0.196112 0.073793 -0.925220
C95   C     C_3   0.804677 0.450155 0.078777 -0.924156
C96   C     C_R   0.024769 0.673530 0.462916 0.155289
C97   C     C_R   0.426693 0.999993 0.500103 0.950856
C98   C     C_R   0.673599 0.975620 0.463237 0.155341
C99   C     C_R   0.024384 0.326414 0.536592 0.155340
C100  C     C_R   0.673509 0.024598 0.537229 0.155240
C101  C     C_R   0.975576 0.673627 0.536618 0.155281
C102  C     C_R   0.326571 0.975885 0.539203 0.154884
C103  C     C_R   0.475263 0.826545 0.962607 0.155069
C104  C     C_R   0.826152 0.525190 0.965904 0.155513
C105  C     C_R   0.525180 0.173553 0.962988 0.154937
C106  C     C_R   0.173857 0.474542 0.966106 0.155825
C107  C     C_R   0.524331 0.826364 0.036447 0.155377
C108  C     C_R   0.000016 0.573298 0.499970 0.951327
C109  C     C_R   0.173431 0.523841 0.039577 0.149959
C110  C     C_R   0.475299 0.173815 0.035600 0.155331
C111  C     C_R   0.826601 0.475905 0.039403 0.154919
C112  C     C_R   0.975601 0.366155 0.462880 0.039702
C113  C     C_R   0.365805 0.024663 0.464712 0.040117
C114  C     C_R   0.024502 0.633897 0.463051 0.039905
C115  C     C_R   0.633964 0.975772 0.463233 0.039672
C116  C     C_R   0.024245 0.366039 0.536636 0.039644
C117  C     C_R   0.633873 0.024368 0.537071 0.039690
C118  C     C_R   0.975689 0.633994 0.536603 0.039786
C119  C     C_R   0.573288 0.000015 0.500021 0.951550
C120  C     C_R   0.366217 0.975740 0.538038 0.039692
C121  C     C_R   0.475551 0.866173 0.962817 0.039782
C122  C     C_R   0.865785 0.524656 0.964809 0.040110
C123  C     C_R   0.524864 0.133909 0.963249 0.040289
C124  C     C_R   0.134226 0.475229 0.964862 0.041516
C125  C     C_R   0.524236 0.865992 0.036508 0.039663
C126  C     C_R   0.133786 0.524152 0.038182 0.039392
C127  C     C_R   0.475388 0.134171 0.035774 0.040114
C128  C     C_R   0.866245 0.475755 0.038168 0.039709
C129  C     C_R   0.999942 0.385567 0.499828 -0.135269
C130  C     C_R   0.499983 0.926709 0.999947 0.951536
C131  C     C_R   0.385503 0.000043 0.500837 -0.135539
C132  C     C_R   0.000065 0.614465 0.499869 -0.135385
C133  C     C_R   0.614444 0.000054 0.500106 -0.135195
C134  C     C_R   0.499929 0.885556 0.999752 -0.135309
C135  C     C_R   0.885505 0.500042 0.000913 -0.135499
C136  C     C_R   0.500084 0.114532 0.999645 -0.136103
C137  C     C_R   0.114511 0.499916 0.000893 -0.134612
C138  C     C_R   0.999838 0.307129 0.499590 0.058340
C139  C     C_R   0.307012 0.000713 0.503021 0.058335
C140  C     C_R   0.000216 0.692931 0.499746 0.058351
C141  C     C_R   0.926694 0.499993 0.000117 0.950873
C142  C     C_R   0.692902 0.000131 0.500270 0.058330
C143  C     C_R   0.499737 0.807108 0.999478 0.058333
C144  C     C_R   0.807018 0.500722 0.003234 0.058354
C145  C     C_R   0.500306 0.193047 0.999203 0.058344
C146  C     C_R   0.193003 0.498930 0.003513 0.055383
C147  C     C_R   0.926679 0.000017 0.499998 0.914264
C148  C     C_R   0.999971 0.073340 0.500021 0.913203
C149  C     C_R   0.073277 0.999677 0.499934 0.907448
C150  C     C_R   0.000027 0.926689 0.500019 0.909855
C151  C     C_R   0.426713 0.500397 0.999950 0.903546
C152  C     C_R   0.500019 0.073321 0.999928 0.950303
C153  C     C_R   0.499963 0.573330 0.000030 0.907648
C154  C     C_R   0.573281 0.499697 0.999929 0.901172
C155  C     C_R   0.499908 0.426757 0.000038 0.894339
C156  C     C_R   0.999993 0.500000 0.609436 0.909055
C157  C     C_R   0.500000 1.000000 0.609431 0.908816
C158  C     C_R   0.000007 0.500000 0.390564 0.908996
C159  C     C_R   0.500000 0.000000 0.390569 0.908902
C160  C     C_R   0.499993 0.999999 0.109436 0.908914
C161  C     C_R   0.000001 0.500000 0.109431 0.908679
C162  C     C_R   0.500007 0.999999 0.890564 0.908862
C163  C     C_R   0.073312 0.500004 0.000093 0.950349
C164  C     C_R   0.999999 0.500000 0.890569 0.908946
C165  C     C_1   0.999980 0.500000 0.669620 -0.185002
C166  C     C_1   0.500008 0.999999 0.669615 -0.185090
C167  C     C_1   0.000020 0.499999 0.330379 -0.185191
C168  C     C_1   0.499993 1.000000 0.330385 -0.184986
C169  C     C_1   0.499981 0.999998 0.169620 -0.185160
C170  C     C_1   0.000010 0.499999 0.169615 -0.185284
C171  C     C_1   0.500020 0.999998 0.830380 -0.185126
C172  C     C_1   0.999990 0.500000 0.830384 -0.184816
C173  C     C_1   0.999978 0.500000 0.720379 0.002463
C174  C     C_1   0.999751 0.266899 0.499536 -0.002211
C175  C     C_1   0.500016 0.999999 0.720375 0.002233
C176  C     C_1   0.000022 0.499999 0.279620 0.002133
C177  C     C_1   0.499985 0.999999 0.279625 0.002376
C178  C     C_1   0.499979 0.999998 0.220380 0.002374
C179  C     C_1   0.000017 0.499999 0.220375 0.002086
C180  C     C_1   0.500021 0.999998 0.779620 0.002272
C181  C     C_1   0.999982 0.500000 0.779625 0.002579
C182  C     C_R   0.974730 0.173747 0.464094 0.109116
C183  C     C_R   0.173770 0.027685 0.470673 0.110008
C184  C     C_R   0.026606 0.826362 0.466347 0.109477
H1    H     H_    0.965706 0.210934 0.400158 0.192071
H2    H     H_    0.066717 0.211704 0.547662 0.190138
H3    H     H_    0.966881 0.713834 0.604079 0.241703
H4    H     H_    0.931087 0.714019 0.549565 0.241400
H5    H     H_    0.322423 0.931773 0.605260 0.236250
H6    H     H_    0.286948 0.967262 0.607541 0.242295
H7    H     H_    0.286086 0.931524 0.552974 0.241135
H8    H     H_    0.431286 0.822209 0.896378 0.236291
H9    H     H_    0.466520 0.786465 0.894972 0.241730
H10   H     H_    0.430607 0.786311 0.949341 0.241471
H11   H     H_    0.821261 0.569499 0.900270 0.236407
H12   H     H_    0.785409 0.534310 0.899343 0.241559
H13   H     H_    0.789014 0.036368 0.598041 0.192231
H14   H     H_    0.785913 0.569955 0.954088 0.241573
H15   H     H_    0.569911 0.177834 0.897854 0.236200
H16   H     H_    0.534728 0.213615 0.895551 0.242545
H17   H     H_    0.570009 0.213758 0.950794 0.241331
H18   H     H_    0.178730 0.430205 0.900510 0.237240
H19   H     H_    0.214701 0.465276 0.899683 0.241928
H20   H     H_    0.213976 0.429644 0.954439 0.240648
H21   H     H_    0.568336 0.821708 0.102573 0.236363
H22   H     H_    0.532891 0.786118 0.103882 0.241417
H23   H     H_    0.568765 0.785930 0.049438 0.241504
H24   H     H_    0.788714 0.068353 0.544478 0.189840
H25   H     H_    0.177571 0.568012 0.105542 0.231533
H26   H     H_    0.212751 0.532234 0.108323 0.241251
H27   H     H_    0.214217 0.567900 0.053691 0.254895
H28   H     H_    0.430561 0.178563 0.100640 0.236364
H29   H     H_    0.465973 0.214178 0.102666 0.242286
H30   H     H_    0.430715 0.214263 0.047371 0.241227
H31   H     H_    0.822497 0.431820 0.105508 0.236216
H32   H     H_    0.787019 0.467306 0.107803 0.242288
H33   H     H_    0.786128 0.431545 0.053271 0.241144
H34   H     H_    0.923971 0.380926 0.433290 0.199687
H35   H     H_    0.962876 0.788681 0.596558 0.192374
H36   H     H_    0.958726 0.379989 0.383044 0.188906
H37   H     H_    0.380661 0.076299 0.435151 0.199737
H38   H     H_    0.378720 0.041790 0.384616 0.189078
H39   H     H_    0.076192 0.619123 0.433649 0.199538
H40   H     H_    0.041556 0.620114 0.383263 0.188901
H41   H     H_    0.619288 0.924133 0.433507 0.199708
H42   H     H_    0.620331 0.958894 0.383307 0.188977
H43   H     H_    0.075918 0.380693 0.566282 0.199676
H44   H     H_    0.041175 0.379645 0.616546 0.189023
H45   H     H_    0.619118 0.075976 0.566752 0.199677
H46   H     H_    0.931610 0.788449 0.542032 0.189874
H47   H     H_    0.620050 0.041211 0.616944 0.188962
H48   H     H_    0.923938 0.619363 0.566025 0.199678
H49   H     H_    0.958568 0.620350 0.616426 0.189055
H50   H     H_    0.380768 0.923868 0.566857 0.199491
H51   H     H_    0.380704 0.958428 0.617390 0.188882
H52   H     H_    0.423923 0.881000 0.933290 0.199664
H53   H     H_    0.458652 0.880038 0.883006 0.188957
H54   H     H_    0.880628 0.576281 0.935194 0.199779
H55   H     H_    0.878643 0.541760 0.884682 0.189117
H56   H     H_    0.576794 0.119047 0.934937 0.199514
H57   H     H_    0.209831 0.958949 0.596324 0.191682
H58   H     H_    0.542612 0.120030 0.883846 0.188923
H59   H     H_    0.119260 0.423652 0.935215 0.199609
H60   H     H_    0.121482 0.458155 0.884695 0.189334
H61   H     H_    0.575945 0.880583 0.066084 0.199701
H62   H     H_    0.541233 0.879563 0.116399 0.188967
H63   H     H_    0.119345 0.576078 0.066913 0.199675
H64   H     H_    0.119152 0.541528 0.117458 0.188398
H65   H     H_    0.423364 0.119637 0.064186 0.199547
H66   H     H_    0.457527 0.120733 0.115305 0.189020
H67   H     H_    0.880811 0.423891 0.067003 0.199487
H68   H     H_    0.211360 0.930267 0.538744 0.188618
H69   H     H_    0.880793 0.458469 0.117508 0.188867
H70   H     H_    0.464110 0.710810 0.901240 0.192379
H71   H     H_    0.431687 0.711184 0.954226 0.189591
H72   H     H_    0.711981 0.541300 0.909767 0.192476
H73   H     H_    0.932547 0.211314 0.452101 0.189987
H74   H     H_    0.710960 0.570731 0.966564 0.189894
H75   H     H_    0.547846 0.289895 0.912627 0.191896
H76   H     H_    0.572869 0.289440 0.973997 0.188492
H77   H     H_    0.288183 0.458182 0.910745 0.192559
H78   H     H_    0.289362 0.428871 0.967688 0.187214
H79   H     H_    0.534462 0.711528 0.098422 0.192020
H80   H     H_    0.567108 0.711718 0.045722 0.190169
H81   H     H_    0.320257 0.574342 0.086695 0.196626
H82   H     H_    0.291999 0.538169 0.101171 0.180285
H83   H     H_    0.453380 0.288777 0.086306 0.191770
H84   H     H_    0.211868 0.041932 0.410180 0.192413
H85   H     H_    0.428184 0.288742 0.025068 0.188822
H86   H     H_    0.709717 0.459535 0.097132 0.191798
H87   H     H_    0.711342 0.430486 0.039980 0.188438
H88   H     H_    0.924856 0.131641 0.408178 0.251386
H89   H     H_    0.961638 0.099122 0.391852 0.249461
H90   H     H_    0.931319 0.091815 0.452764 0.216969
H91   H     H_    0.131787 0.079384 0.418362 0.253290
H92   H     H_    0.099397 0.043368 0.397914 0.248686
H93   H     H_    0.091736 0.070612 0.461759 0.215526
H94   H     H_    0.078043 0.868592 0.413764 0.252464
H95   H     H_    0.210904 0.070987 0.467414 0.189841
H96   H     H_    0.042028 0.901548 0.395707 0.250149
H97   H     H_    0.070490 0.908076 0.458749 0.220294
H98   H     H_    0.867983 0.924069 0.410269 0.251961
H99   H     H_    0.900587 0.960637 0.392996 0.249174
H100  H     H_    0.907946 0.930947 0.454468 0.216556
H101  H     H_    0.073861 0.132288 0.593512 0.251236
H102  H     H_    0.036793 0.099952 0.609462 0.249167
H103  H     H_    0.067797 0.092099 0.549598 0.218012
H104  H     H_    0.868419 0.076683 0.588785 0.252031
H105  H     H_    0.901146 0.040311 0.606163 0.249409
H106  H     H_    0.038104 0.789131 0.403384 0.192387
H107  H     H_    0.908132 0.069596 0.544076 0.216168
H108  H     H_    0.923043 0.867994 0.587701 0.252268
H109  H     H_    0.959311 0.900769 0.605629 0.249309
H110  H     H_    0.930310 0.907844 0.543360 0.216038
H111  H     H_    0.126645 0.912209 0.547628 0.241914
H112  H     H_    0.118123 0.942414 0.607993 0.250705
H113  H     H_    0.083862 0.937522 0.552296 0.229961
H114  H     H_    0.423539 0.631443 0.910505 0.252125
H115  H     H_    0.459995 0.598711 0.893507 0.249973
H116  H     H_    0.430449 0.591824 0.955388 0.222389
H117  H     H_    0.069226 0.788849 0.458082 0.189499
H118  H     H_    0.631914 0.578818 0.917190 0.252944
H119  H     H_    0.599618 0.542635 0.897080 0.248870
H120  H     H_    0.591761 0.570289 0.960462 0.215895
H121  H     H_    0.589923 0.375032 0.964985 0.241153
H122  H     H_    0.563490 0.380871 0.900066 0.250694
H123  H     H_    0.563765 0.416830 0.953603 0.232237
H124  H     H_    0.368323 0.420798 0.918617 0.253450
H125  H     H_    0.400148 0.457173 0.897471 0.249915
H126  H     H_    0.408640 0.429987 0.961077 0.221132
H127  H     H_    0.574637 0.632313 0.091921 0.251401
H128  H     H_    0.788683 0.964204 0.402303 0.192198
H129  H     H_    0.537769 0.599890 0.108510 0.249205
H130  H     H_    0.568247 0.592152 0.048028 0.217744
H131  H     H_    0.375004 0.588575 0.043373 0.236213
H132  H     H_    0.383309 0.559873 0.105989 0.242997
H133  H     H_    0.416972 0.562685 0.049552 0.245600
H134  H     H_    0.410946 0.374756 0.036830 0.242829
H135  H     H_    0.437692 0.378374 0.101814 0.251837
H136  H     H_    0.437577 0.415985 0.051225 0.232828
H137  H     H_    0.626949 0.412431 0.049167 0.240023
H138  H     H_    0.617512 0.443171 0.108580 0.250160
H139  H     H_    0.788425 0.932129 0.455757 0.189947
H140  H     H_    0.583929 0.437408 0.052053 0.234230
H141  H     H_    0.931411 0.322136 0.396417 0.236277
H142  H     H_    0.966690 0.286436 0.395049 0.241581
H143  H     H_    0.930754 0.286244 0.449387 0.241560
H144  H     H_    0.321320 0.069513 0.400115 0.236377
H145  H     H_    0.285457 0.034336 0.399142 0.241606
H146  H     H_    0.285949 0.069972 0.453900 0.241572
H147  H     H_    0.068872 0.677941 0.396835 0.236210
H148  H     H_    0.033609 0.713656 0.395363 0.241800
H149  H     H_    0.069417 0.713808 0.449846 0.241451
H150  H     H_    0.033416 0.211480 0.599418 0.192039
H151  H     H_    0.678176 0.931712 0.396941 0.236344
H152  H     H_    0.713843 0.967083 0.395745 0.241578
H153  H     H_    0.713968 0.931144 0.450050 0.241454
H154  H     H_    0.068351 0.321817 0.602786 0.236353
H155  H     H_    0.032949 0.286183 0.604046 0.241469
H156  H     H_    0.068859 0.286033 0.549658 0.241488
H157  H     H_    0.677928 0.068502 0.603562 0.236292
H158  H     H_    0.713619 0.033213 0.604855 0.241691
H159  H     H_    0.713830 0.069161 0.550572 0.241473
H160  H     H_    0.931470 0.678209 0.602658 0.236353
N1    N     N_3   0.949684 0.193993 0.427248 -0.459974
N2    N     N_3   0.694335 0.555153 0.938474 -0.459909
N3    N     N_3   0.559562 0.306816 0.944355 -0.452582
N4    N     N_3   0.305899 0.444477 0.939493 -0.459799
N5    N     N_3   0.550233 0.694493 0.071171 -0.460067
N6    N     N_3   0.304249 0.553256 0.067813 -0.453493
N7    N     N_3   0.441506 0.305909 0.055000 -0.452176
N8    N     N_3   0.693389 0.445457 0.066920 -0.452763
N9    N     N_3   0.952136 0.387310 0.424889 -0.444123
N10   N     N_3   0.386666 0.048133 0.426285 -0.444318
N11   N     N_3   0.048044 0.612759 0.425123 -0.444120
N12   N     N_3   0.194249 0.055593 0.439134 -0.459939
N13   N     N_3   0.612909 0.952279 0.425109 -0.444234
N14   N     N_3   0.047771 0.387073 0.574741 -0.444176
N15   N     N_3   0.612725 0.047818 0.575115 -0.444147
N16   N     N_3   0.952061 0.612954 0.574585 -0.444055
N17   N     N_3   0.387527 0.951926 0.575321 -0.443548
N18   N     N_3   0.452090 0.887358 0.924862 -0.444071
N19   N     N_3   0.886621 0.548112 0.926333 -0.444359
N20   N     N_3   0.548718 0.112708 0.925852 -0.443394
N21   N     N_3   0.113389 0.451841 0.926319 -0.444584
N22   N     N_3   0.547810 0.886992 0.074587 -0.444186
N23   N     N_3   0.053044 0.806124 0.431758 -0.460106
N24   N     N_3   0.112462 0.548046 0.075354 -0.443559
N25   N     N_3   0.451402 0.113237 0.073373 -0.443585
N26   N     N_3   0.887582 0.451951 0.075432 -0.443540
N27   N     N_3   0.805690 0.948739 0.429972 -0.459960
N28   N     N_3   0.049523 0.194462 0.572594 -0.460069
N29   N     N_3   0.806002 0.051772 0.570208 -0.459902
N30   N     N_3   0.947826 0.805698 0.568384 -0.459891
N31   N     N_3   0.193454 0.945072 0.565962 -0.452265
N32   N     N_3   0.448487 0.693864 0.928850 -0.459817
O1    O     O_R   0.031300 0.444560 0.499980 -0.609595
O2    O     O_R   0.944560 0.468700 0.999980 -0.609226
O3    O     O_R   0.468700 0.055440 0.999980 -0.609081
O4    O     O_R   0.055440 0.531300 0.999980 -0.608869
O5    O     O_R   0.468700 0.944560 0.000020 -0.609604
O6    O     O_R   0.055440 0.468700 0.000020 -0.609642
O7    O     O_R   0.531300 0.055440 0.000020 -0.609197
O8    O     O_R   0.944560 0.531300 0.000020 -0.609462
O9    O     O_R   0.031300 0.500000 0.582760 -0.615163
O10   O     O_R   0.500000 0.968700 0.582760 -0.615179
O11   O     O_R   0.968700 0.500000 0.582760 -0.615241
O12   O     O_R   0.444560 0.968700 0.499980 -0.609237
O13   O     O_R   0.500000 0.031300 0.582760 -0.615216
O14   O     O_R   0.968700 0.500000 0.417240 -0.615206
O15   O     O_R   0.500000 0.968700 0.417240 -0.615190
O16   O     O_R   0.031300 0.500000 0.417240 -0.615402
O17   O     O_R   0.500000 0.031300 0.417240 -0.615227
O18   O     O_R   0.531300 0.000000 0.082760 -0.615179
O19   O     O_R   0.000000 0.468700 0.082760 -0.615224
O20   O     O_R   0.468700 0.000000 0.082760 -0.615257
O21   O     O_R   0.000000 0.531300 0.082760 -0.615151
O22   O     O_R   0.468700 0.000000 0.917240 -0.615231
O23   O     O_R   0.968700 0.555440 0.499980 -0.609430
O24   O     O_R   0.000000 0.468700 0.917240 -0.615227
O25   O     O_R   0.531300 0.000000 0.917240 -0.615274
O26   O     O_R   1.000000 0.531300 0.917240 -0.615091
O27   O     O_R   0.944690 0.999980 0.546690 -0.617426
O28   O     O_R   0.999980 0.055310 0.546690 -0.617321
O29   O     O_R   0.055310 0.000020 0.546690 -0.614115
O30   O     O_R   0.000020 0.944690 0.546690 -0.620704
O31   O     O_R   0.055310 0.999980 0.453310 -0.617401
O32   O     O_R   0.000020 0.055310 0.453310 -0.617171
O33   O     O_R   0.944690 0.000020 0.453310 -0.617859
O34   O     O_R   0.555440 0.031300 0.499980 -0.609569
O35   O     O_R   0.999980 0.944690 0.453310 -0.617181
O36   O     O_R   0.444690 0.499980 0.046690 -0.616098
O37   O     O_R   0.499980 0.555310 0.046690 -0.620169
O38   O     O_R   0.555310 0.500020 0.046690 -0.612819
O39   O     O_R   0.500020 0.444690 0.046690 -0.617698
O40   O     O_R   0.555310 0.499980 0.953310 -0.619975
O41   O     O_R   0.500020 0.555310 0.953310 -0.616548
O42   O     O_R   0.444690 0.500020 0.953310 -0.617183
O43   O     O_R   0.499980 0.444690 0.953310 -0.612913
O44   O     O_R   0.968700 0.444560 0.500020 -0.609596
O45   O     O_R   0.555440 0.968700 0.500020 -0.609519
O46   O     O_R   0.031300 0.555440 0.500020 -0.609523
O47   O     O_R   0.444560 0.031300 0.500020 -0.609454
O48   O     O_R   0.531300 0.944560 0.999980 -0.609471
Zn1   Zn    Zn3+2 0.041800 0.500000 0.500000 0.974281
Zn2   Zn    Zn3+2 0.000000 0.000000 0.437610 0.937653
Zn3   Zn    Zn3+2 0.500000 0.500000 0.062390 0.949462
Zn4   Zn    Zn3+2 0.500000 0.500000 0.937610 0.943006
Zn5   Zn    Zn3+2 0.500000 0.958200 0.500000 0.974485
Zn6   Zn    Zn3+2 0.958200 0.500000 0.500000 0.974520
Zn7   Zn    Zn3+2 0.500000 0.041800 0.500000 0.974354
Zn8   Zn    Zn3+2 0.541800 0.000000 0.000000 0.974472
Zn9   Zn    Zn3+2 0.000000 0.458200 0.000000 0.974313
Zn10  Zn    Zn3+2 0.458200 0.000000 0.000000 0.974450
Zn11  Zn    Zn3+2 0.000000 0.541800 0.000000 0.974842
Zn12  Zn    Zn3+2 0.000000 1.000000 0.562390 0.941326

loop_
_geom_bond_atom_site_label_1
_geom_bond_atom_site_label_2
_ccdc_geom_bond_type
O1    Zn1   S    
H106  N23   S    
H50   N17   S    
C57   C145  S    
C29   C42   A    
C8    C26   A    
C88   H12   S    
C83   H156  S    
C117  C133  A    
C68   C146  S    
C15   C32   A    
O34   Zn7   S    
H85   N7    S    
C50   C59   S    
O9    Zn1   S    
C78   H141  S    
C119  O34   A    
C1    C129  S    
C150  O35   A    
C63   H96   S    
C57   C59   T    
C22   C38   A    
C105  C123  A    
H75   N3    S    
C121  N18   S    
C19   C37   A    
C17   C61   S    
C34   C148  S    
C44   C53   S    
C176  C179  S    
C147  O27   A    
C162  C171  S    
C19   C63   S    
C138  C174  S    
C99   C138  A    
O44   Zn6   S    
C112  C129  A    
C110  C145  A    
C157  O10   A    
C72   H122  S    
C21   C65   S    
H53   N18   S    
C85   H4    S    
O28   Zn12  S    
C3    N27   S    
C127  N25   S    
C82   C98   S    
C96   C114  A    
C130  C134  S    
C90   C113  A    
C136  C152  S    
C158  C167  S    
C1    O1    A    
O10   Zn5   S    
C94   H30   S    
H70   N32   S    
C84   C100  S    
C124  C137  A    
C127  C136  A    
C97   C131  S    
C128  C135  A    
C99   C116  A    
C162  O22   A    
C23   C37   A    
O29   Zn12  S    
C152  O7    A    
C157  O13   A    
C84   H159  S    
C150  O30   A    
C166  C175  T    
H45   N15   S    
O8    Zn11  S    
C62   H92   S    
C73   H126  S    
C87   H9    S    
C87   C103  S    
C81   H148  S    
C15   N7    S    
C83   H154  S    
C25   C69   S    
C17   C34   A    
C107  C143  A    
C103  C121  A    
C27   C71   S    
C13   C54   T    
C89   H16   S    
O21   Zn11  S    
C11   N4    S    
C117  N15   S    
C74   H130  S    
C2    C53   T    
C103  C143  A    
H55   N19   S    
C63   H94   S    
C4    C43   A    
C128  N26   S    
C65   H103  S    
C66   H104  S    
H35   N30   S    
O35   Zn2   S    
C31   C42   A    
C18   C183  A    
C95   H33   S    
C160  O20   A    
C102  C139  A    
C162  O25   A    
H52   N18   S    
H77   N4    S    
C25   C36   A    
C64   H98   S    
C160  O18   A    
C156  O9    A    
C106  C124  A    
H59   N21   S    
C77   H137  S    
C112  N9    S    
H60   N21   S    
C75   H131  S    
C45   C184  A    
C87   H8    S    
C94   H28   S    
C71   H118  S    
C37   C150  S    
C151  O42   A    
C151  O36   A    
H65   N25   S    
O31   Zn2   S    
H64   N24   S    
C101  C118  A    
O15   Zn5   S    
C65   H101  S    
C82   H151  S    
C30   C74   S    
O38   Zn3   S    
C104  C122  A    
O45   Zn5   S    
C71   H120  S    
C130  O5    A    
C8    N32   S    
O6    Zn9   S    
C159  O15   A    
C23   C67   S    
H139  N27   S    
C74   H127  S    
O41   Zn4   S    
O27   Zn12  S    
C4    N28   S    
C97   O12   A    
C32   C41   A    
C61   H88   S    
C91   H20   S    
C98   C142  A    
C95   H32   S    
O3    Zn10  S    
C17   C182  A    
C76   H134  S    
C164  O26   A    
C88   C104  S    
H66   N25   S    
C158  O16   A    
C153  O37   A    
H79   N5    S    
C86   H6    S    
C33   C40   A    
H38   N10   S    
H49   N16   S    
C9    C49   A    
C107  C125  A    
H87   N8    S    
C137  C163  S    
O14   Zn6   S    
C18   C62   S    
C46   C144  S    
H57   N31   S    
C14   N6    S    
C108  O23   A    
C80   H146  S    
C118  N16   S    
O33   Zn2   S    
C93   H27   S    
C124  N21   S    
O32   Zn2   S    
C64   H100  S    
C27   C40   A    
C156  O11   A    
C122  N19   S    
O40   Zn4   S    
C69   H112  S    
O16   Zn1   S    
H2    N28   S    
C42   C151  S    
C44   C183  A    
C84   H158  S    
H36   N9    S    
O18   Zn8   S    
C121  C134  A    
C115  N13   S    
C86   C102  S    
C52   C174  T    
H54   N19   S    
H83   N7    S    
H73   N1    S    
C78   H142  S    
C35   C56   T    
C152  O3    A    
C83   H155  S    
C19   C184  A    
C32   C76   S    
C175  C180  S    
C100  C117  A    
O36   Zn3   S    
C170  C179  T    
C92   H23   S    
C33   C77   S    
C98   C115  A    
H78   N4    S    
C67   H110  S    
C3    C47   A    
C30   C39   A    
O12   Zn5   S    
C108  C132  S    
C91   H18   S    
C164  C172  S    
C15   C50   A    
C109  C126  A    
C135  C141  S    
C122  C135  A    
O46   Zn1   S    
H37   N10   S    
C89   C105  S    
C93   H26   S    
C83   C99   S    
C51   C60   S    
C97   O47   A    
C5    N29   S    
C41   C155  S    
C125  C134  A    
C85   H3    S    
O2    Zn9   S    
C148  O28   A    
C126  C137  A    
C154  O40   A    
C6    C45   A    
C149  O29   A    
C120  C131  A    
C12   N5    S    
C12   C48   A    
C82   H153  S    
C76   H135  S    
C113  N10   S    
C79   C112  A    
C39   C153  S    
C2    C139  S    
C47   C55   S    
C71   H119  S    
C10   N3    S    
O17   Zn7   S    
C61   H89   S    
C26   C39   A    
H82   N6    S    
C168  C177  T    
C28   C41   A    
C88   H14   S    
H74   N2    S    
C75   H133  S    
C66   H105  S    
C24   C142  S    
C9    N2    S    
O20   Zn10  S    
C160  C169  S    
C62   H93   S    
C120  N17   S    
C73   H125  S    
C14   C31   A    
H76   N3    S    
C126  N24   S    
C153  O41   A    
H95   N12   S    
C173  C181  S    
C81   H147  S    
C5    C22   A    
C69   H113  S    
C88   H11   S    
C28   C72   S    
H1    N1    S    
C89   H15   S    
C147  O33   A    
C80   H144  S    
C13   C140  S    
C81   C96   S    
C21   C34   A    
C115  C133  A    
C116  N14   S    
H56   N20   S    
C141  O8    A    
C67   H108  S    
C94   C110  S    
C65   H102  S    
C8    C48   A    
C96   C140  A    
C184  N23   S    
C31   C75   S    
C14   C51   A    
H46   N30   S    
C105  C145  A    
C164  O24   A    
H69   N26   S    
C16   C49   A    
O43   Zn4   S    
C72   H121  S    
C161  O19   A    
C154  O38   A    
C149  O31   A    
C26   C70   S    
H63   N24   S    
C123  N20   S    
C10   C50   A    
C102  C120  A    
C9    C27   A    
C182  N1    S    
O47   Zn7   S    
C10   C28   A    
O7    Zn8   S    
O48   Zn8   S    
C94   H29   S    
O11   Zn6   S    
C12   C30   A    
H80   N5    S    
C1    O44   A    
C163  O6    A    
H117  N23   S    
C119  O45   A    
C7    C25   A    
C82   H152  S    
O37   Zn3   S    
O22   Zn10  S    
C156  C165  S    
C6    N30   S    
C62   H91   S    
C43   C52   S    
C38   C147  S    
C16   N8    S    
C92   H22   S    
C155  O39   A    
C7    N31   S    
C79   C138  A    
O42   Zn4   S    
C60   C68   T    
C81   H149  S    
C177  C178  S    
C70   H116  S    
C95   C111  S    
C155  O43   A    
C18   C36   A    
C91   H19   S    
C35   C143  S    
C89   H17   S    
C159  O17   A    
H42   N13   S    
C95   H31   S    
C109  C146  A    
C74   H129  S    
C90   C139  A    
C24   C55   T    
C141  O2    A    
C5    C47   A    
C86   H7    S    
C119  C133  S    
O39   Zn3   S    
H13   N29   S    
C36   C149  S    
H48   N16   S    
C29   C73   S    
C70   H115  S    
C165  C173  T    
H72   N2    S    
H43   N14   S    
C159  C168  S    
C85   H160  S    
C108  O46   A    
C22   C66   S    
O4    Zn11  S    
H34   N9    S    
C72   H123  S    
C161  O21   A    
C77   H140  S    
H41   N13   S    
C125  N22   S    
C148  O32   A    
C77   H138  S    
C69   H111  S    
C92   H21   S    
C75   H132  S    
C110  C127  A    
H62   N22   S    
H68   N31   S    
H47   N15   S    
C91   C106  S    
C40   C154  S    
C172  C181  T    
H86   N8    S    
C163  O4    A    
C101  C140  A    
H39   N11   S    
C78   H143  S    
C116  C129  A    
H40   N11   S    
C130  O48   A    
C3    C20   A    
C118  C132  A    
C78   C79   S    
H58   N20   S    
H71   N32   S    
C114  N11   S    
H67   N26   S    
C49   C58   S    
C183  N12   S    
C20   C64   S    
O19   Zn9   S    
C16   C33   A    
C20   C38   A    
C92   C107  S    
O25   Zn8   S    
C61   H90   S    
C67   H109  S    
C104  C144  A    
C66   H107  S    
C70   H114  S    
C7    C44   A    
O24   Zn9   S    
O13   Zn7   S    
C111  C144  A    
C161  C170  S    
C45   C54   S    
C93   H25   S    
C171  C180  T    
C169  C178  T    
C111  C128  A    
C85   C101  S    
C63   H97   S    
O30   Zn12  S    
C48   C56   S    
C86   H5    S    
C113  C131  A    
C114  C132  A    
H150  N28   S    
C87   H10   S    
C157  C166  S    
C76   H136  S    
C43   C182  A    
C80   H145  S    
C106  C146  A    
C123  C136  A    
H44   N14   S    
H51   N17   S    
C100  C142  A    
C4    C21   A    
C64   H99   S    
H61   N22   S    
C6    C23   A    
H128  N27   S    
O26   Zn11  S    
C80   C90   S    
H84   N12   S    
C11   C51   A    
C84   H157  S    
C11   C29   A    
C93   C109  S    
O5    Zn10  S    
H24   N29   S    
O23   Zn6   S    
C158  O14   A    
C73   H124  S    
H81   N6    S    
C46   C58   T    
C167  C176  T    
