data_mof_unit_19481.cif
_audit_creation_date              2013-03-05T15:58:06-0500
_audit_creation_method            fapswitch 2.2
_symmetry_space_group_name_H-M    P1
_symmetry_Int_Tables_number       1
_space_group_crystal_system       triclinic
_cell_length_a                    12.625141
_cell_length_b                    13.072844
_cell_length_c                    14.96708
_cell_angle_alpha                 91.384248
_cell_angle_beta                  102.428709
_cell_angle_gamma                 81.856566
_cell_volume                      2387.99622206

loop_
_atom_site_label
_atom_site_type_symbol
_atom_site_description
_atom_site_fract_x
_atom_site_fract_y
_atom_site_fract_z
_atom_type_partial_charge
O1    O     O_R   0.366740 0.627160 0.477250 -0.616651
O2    O     O_R   0.544830 0.662520 0.507680 -0.583448
C1    C     C_R   0.439094 0.690586 0.478752 0.944416
O3    O     O_R   0.410940 0.482340 0.616930 -0.602597
O4    O     O_R   0.589030 0.517700 0.647360 -0.566135
C2    C     C_R   0.500293 0.501785 0.672315 0.959132
Zn1   Zn    Zn3+2 0.381090 0.476390 0.479680 1.010223
Zn2   Zn    Zn3+2 0.618910 0.523610 0.520320 1.003028
O5    O     O_R   0.455170 0.337480 0.492320 -0.625352
O6    O     O_R   0.633260 0.372840 0.522750 -0.646923
O7    O     O_R   0.410970 0.482300 0.352640 -0.589333
O8    O     O_R   0.589060 0.517660 0.383070 -0.655846
C3    C     C_R   0.561416 0.308327 0.510841 0.855865
C4    C     C_R   0.499369 0.499347 0.327518 0.914341
C5    C     C_R   0.539775 0.406066 0.191767 -0.102358
C6    C     C_R   0.498241 0.497339 0.231379 -0.203664
C7    C     C_R   0.459525 0.588722 0.181491 0.264012
C8    C     C_R   0.461694 0.590243 0.088951 0.018884
C9    C     C_R   0.504695 0.499758 0.047282 0.014545
C10   C     C_R   0.546662 0.406555 0.098622 0.053171
C11   C     C_R   0.420646 0.680757 0.037099 -0.128626
C12   C     C_R   0.421995 0.683419 0.945301 -0.126535
C13   C     C_R   0.460728 0.594579 0.901587 0.021174
C14   C     C_R   0.504275 0.502779 0.953377 0.055130
C15   C     C_R   0.547500 0.414109 0.910968 0.125528
C16   C     C_R   0.591880 0.324209 0.960940 -0.210387
C17   C     C_R   0.592891 0.319018 0.053725 -0.014527
C18   C     C_R   0.458736 0.595467 0.807483 0.293550
C19   C     C_R   0.501948 0.505298 0.767777 -0.134196
C20   C     C_R   0.546578 0.416225 0.818457 -0.263897
H1    H     H_    0.386388 0.750730 0.066574 0.213482
H2    H     H_    0.392617 0.756197 0.909633 0.209050
H3    H     H_    0.579542 0.348047 0.785085 0.150295
H4    H     H_    0.626574 0.257198 0.927139 0.158982
C21   C     C_R   0.733086 0.056396 0.477732 0.011487
H5    H     H_    0.767235 0.211951 0.507393 0.177199
C22   C     C_R   0.599455 0.198133 0.507304 -0.076743
C23   C     C_R   0.290072 0.843040 0.429749 0.008260
C24   C     C_R   0.262395 0.949997 0.424814 -0.143451
C25   C     C_R   0.343774 0.013398 0.439415 -0.172840
C26   C     C_R   0.455480 0.970778 0.450962 0.090858
C27   C     C_R   0.481308 0.863996 0.441551 0.099821
C28   C     C_R   0.541843 0.031388 0.469266 0.078075
C29   C     C_R   0.649897 0.990263 0.459395 0.061105
C30   C     C_R   0.667585 0.886189 0.430636 -0.042826
C31   C     C_R   0.583951 0.825334 0.422210 -0.082189
C32   C     C_R   0.522163 0.131853 0.500073 -0.214932
C33   C     C_R   0.705890 0.160178 0.499148 -0.165006
C34   C     C_R   0.402002 0.799287 0.448089 -0.101038
H6    H     H_    0.444949 0.161025 0.517600 0.162314
H7    H     H_    0.316516 0.095559 0.434680 0.138977
H8    H     H_    0.177240 0.984863 0.410083 0.166907
H9    H     H_    0.598999 0.747427 0.397041 0.183685
C35   C     C_R   0.093951 0.335256 0.376201 -0.136506
N1    N     N_R   0.222190 0.444670 0.452360 -0.148451
C36   C     C_R   0.806578 0.617220 0.620312 0.379726
C37   C     C_R   0.916260 0.612243 0.664327 -0.323794
C38   C     C_R   0.996721 0.549082 0.630041 0.250503
C39   C     C_R   0.967328 0.504655 0.542197 -0.095247
C40   C     C_R   0.855107 0.497097 0.509045 0.086554
C41   C     C_R   0.044360 0.461579 0.489383 -0.024791
C42   C     C_R   0.013311 0.387556 0.420397 -0.001868
C43   C     C_R   0.902488 0.369957 0.397725 0.267098
C44   C     C_R   0.826152 0.425342 0.441050 -0.221664
C45   C     C_R   0.148616 0.494455 0.497970 0.093187
C46   C     C_R   0.198134 0.366171 0.393438 0.051652
N2    N     N_R   0.776970 0.554790 0.547140 -0.179861
H10   H     H_    0.937335 0.651537 0.728917 0.229270
H11   H     H_    0.744484 0.408232 0.420993 0.219888
C47   C     C_1   0.568988 0.313086 0.247810 0.242343
N3    N     N_1   0.591302 0.239252 0.292882 -0.146989
C48   C     C_1   0.768928 0.836706 0.409207 0.201894
N4    N     N_1   0.849508 0.795931 0.391836 -0.160931
C49   C     C_1   0.846596 0.023322 0.475264 0.255827
N5    N     N_1   0.937811 0.997906 0.473641 -0.164129
C50   C     C_1   0.201559 0.782095 0.404913 0.303992
N6    N     N_1   0.129704 0.734504 0.383078 -0.166221
C51   C     C_1   0.279775 0.316090 0.346386 0.250423
N7    N     N_1   0.343880 0.274872 0.307917 -0.192612
N8    N     N_R   0.861950 0.304827 0.323840 0.193225
O9    O     O_R   0.834446 0.341460 0.240705 -0.385810
O10   O     O_R   0.837063 0.215173 0.340929 -0.411353
C52   C     C_1   0.075048 0.246792 0.317193 0.267400
N9    N     N_1   0.061068 0.176043 0.270308 -0.121986
N10   N     N_R   0.416264 0.679362 0.225245 0.167471
O11   O     O_R   0.325261 0.681241 0.253018 -0.400593
O12   O     O_R   0.464023 0.761940 0.232191 -0.433805
C53   C     C_1   0.175746 0.587453 0.545511 0.294302
N11   N     N_1   0.196544 0.662517 0.583550 -0.095070
N12   N     N_R   0.725864 0.677524 0.660646 0.251817
O13   O     O_R   0.682752 0.767948 0.625944 -0.367954
O14   O     O_R   0.722682 0.658671 0.744926 -0.347100
N13   N     N_R   0.100811 0.517093 0.690940 0.215488
O15   O     O_R   0.152088 0.424173 0.685822 -0.377018
O16   O     O_R   0.137377 0.575096 0.759356 -0.340759
N14   N     N_R   0.413045 0.686317 0.752296 0.185781
O17   O     O_R   0.469509 0.723778 0.700936 -0.343957
O18   O     O_R   0.313545 0.730047 0.751073 -0.356190
C54   C     C_1   0.645933 0.222737 0.098554 0.271071
N15   N     N_1   0.688886 0.145248 0.133404 -0.108251

loop_
_geom_bond_atom_site_label_1
_geom_bond_atom_site_label_2
_geom_bond_distance
_ccdc_geom_bond_type
C21   C49   1.445167 S    
N13   O15   1.301768 A    
C8    C11   1.403046 A    
C26   C27   1.398615 A    
C9    C10   1.429282 A    
Zn1   N1    2.058667 S    
C1    C34   1.483137 S    
C23   C34   1.418128 A    
C23   C50   1.442519 S    
N10   O11   1.300196 A    
Zn1   O7    2.021825 S    
C11   H1    1.081197 S    
C17   C54   1.446194 S    
C16   C17   1.389233 A    
C19   C20   1.386220 A    
C12   H2    1.080318 S    
C7    N10   1.436785 S    
C18   C19   1.401365 A    
C38   N13   1.442149 S    
C23   C24   1.392145 A    
O7    C4    1.300673 A    
C5    C6    1.404467 A    
C36   C37   1.392701 A    
C8    C9    1.418131 A    
C27   C31   1.409766 A    
O5    C3    1.312098 A    
C16   H4    1.086499 S    
C54   N15   1.157791 T    
C40   N2    1.370277 A    
C6    C7    1.394341 A    
N14   O18   1.300904 A    
C13   C14   1.420538 A    
H5    C33   1.084655 S    
C47   N3    1.157035 T    
C22   C32   1.379957 A    
C3    C22   1.455985 S    
C36   N12   1.427771 S    
C24   H8    1.084516 S    
C39   C40   1.413498 A    
N13   O16   1.301849 A    
C11   C12   1.379047 A    
C30   C48   1.445852 S    
C26   C28   1.413289 A    
O3    Zn1   2.008803 S    
C21   C33   1.398478 A    
C35   C52   1.453453 S    
N1    C45   1.353750 A    
C32   H6    1.079107 S    
C43   N8    1.429726 S    
N10   O12   1.300677 A    
C5    C10   1.415610 A    
C46   C51   1.444293 S    
C39   C41   1.428998 A    
C49   N5    1.157775 T    
C14   C15   1.406674 A    
N8    O10   1.300464 A    
C24   C25   1.387872 A    
C51   N7    1.157117 T    
N8    O9    1.301478 A    
C35   C42   1.418569 A    
C15   C16   1.389273 A    
C13   C18   1.403550 A    
O1    C1    1.314274 A    
C28   C29   1.430748 A    
C42   C43   1.417310 A    
N12   O14   1.301230 A    
C52   N9    1.157833 T    
Zn2   O8    2.008803 S    
N14   O17   1.300723 A    
C7    C8    1.391872 A    
C44   H11   1.064007 S    
C50   N6    1.157283 T    
C22   C33   1.394833 A    
C21   C29   1.430914 A    
O3    C2    1.301122 A    
C25   C26   1.416467 A    
O8    C4    1.301074 A    
C4    C6    1.435560 S    
C30   C31   1.392663 A    
C37   H10   1.083159 S    
N12   O13   1.299653 A    
C36   N2    1.368302 A    
N1    C46   1.361008 A    
C29   C30   1.418883 A    
C45   C53   1.439761 S    
C15   C20   1.383073 A    
Zn1   O5    1.915061 S    
C5    C47   1.451263 S    
C20   H3    1.086246 S    
O1    Zn1   1.954078 S    
O2    Zn2   1.915062 S    
C48   N4    1.157681 T    
O6    C3    1.305987 A    
O4    Zn2   2.021825 S    
C35   C46   1.399810 A    
C10   C17   1.429748 A    
C25   H7    1.079607 S    
C18   N14   1.440071 S    
C40   C44   1.392884 A    
C9    C14   1.405834 A    
C38   C39   1.420491 A    
C37   C38   1.394034 A    
O4    C2    1.299155 A    
C31   H9    1.082931 S    
O2    C1    1.313100 A    
C41   C42   1.428691 A    
C27   C34   1.419089 A    
C43   C44   1.386427 A    
C41   C45   1.420743 A    
C2    C19   1.424153 S    
C53   N11   1.156584 T    
Zn2   N2    2.046252 S    
Zn2   O6    1.954079 S    
C12   C13   1.398629 A    
C28   C32   1.388119 A    
