data_mof_unit_12684.cif
_audit_creation_date              2012-10-26T20:32:25-0400
_audit_creation_method            fapswitch 2.2
_symmetry_space_group_name_H-M    P1
_symmetry_Int_Tables_number       1
_space_group_crystal_system       triclinic
_cell_length_a                    19.375564
_cell_length_b                    10.811356
_cell_length_c                    9.530747
_cell_angle_alpha                 89.811194
_cell_angle_beta                  89.099689
_cell_angle_gamma                 90.263921
_cell_volume                      1996.18493386

loop_
_atom_site_label
_atom_site_type_symbol
_atom_type_description
_atom_site_fract_x
_atom_site_fract_y
_atom_site_fract_z
_atom_type_partial_charge
C1    C     C_R   0.500799 0.262550 0.500263 0.561231
C2    C     C_R   0.853267 0.507711 0.487741 0.037967
C3    C     C_R   0.480173 0.063335 0.618229 -0.017044
C4    C     C_R   0.367132 0.502002 0.501871 0.577353
C5    C     C_R   0.504745 0.129660 0.501938 0.044639
C6    C     C_R   0.535323 0.065307 0.389433 -0.126251
C7    C     C_R   0.534900 0.936099 0.389341 -0.121660
C8    C     C_R   0.502819 0.870771 0.500375 0.081955
C9    C     C_R   0.477820 0.936481 0.615982 0.006819
C10   C     C_3   0.411887 0.930721 0.701597 -0.073382
C11   C     C_3   0.415140 0.073081 0.705028 -0.083259
C12   C     C_R   0.290438 0.504416 0.506967 -0.030888
C13   C     C_R   0.546975 0.569650 0.072094 0.153721
C14   C     C_R   0.457958 0.422847 0.076060 -0.007220
C15   C     C_R   0.457999 0.422779 0.927062 0.001853
C16   C     C_R   0.500127 0.737561 0.499844 0.600881
C17   C     C_R   0.547417 0.569074 0.924371 0.167532
C18   C     C_3   0.555986 0.706427 0.918147 -0.076344
C19   C     C_3   0.554994 0.706750 0.077629 -0.274931
C20   C     C_R   0.632531 0.499843 0.498747 0.547839
C21   C     C_R   0.251658 0.511427 0.635403 0.055299
C22   C     C_R   0.178708 0.504436 0.633002 0.047835
C23   C     C_R   0.928991 0.511047 0.485506 0.344392
C24   C     C_R   0.144597 0.499518 0.502587 -0.006044
C25   C     C_R   0.183468 0.493579 0.377862 -0.126169
C26   C     C_R   0.255106 0.495180 0.380039 -0.152636
C27   C     C_2   0.285535 0.524626 0.773420 0.648555
C28   C     C_2   0.349492 0.875815 0.630414 0.651159
C29   C     C_2   0.357873 0.142462 0.633008 0.604334
C30   C     C_2   0.624092 0.745642 0.853599 0.576915
C31   C     C_2   0.138645 0.498747 0.767405 0.634865
C32   C     C_R   0.068646 0.505998 0.493758 0.363639
C33   C     C_R   0.817030 0.522232 0.615270 -0.106867
C34   C     C_R   0.745235 0.517359 0.619113 -0.120159
C35   C     C_R   0.708390 0.500811 0.495129 0.015817
C36   C     C_R   0.744669 0.486295 0.367371 -0.120706
C37   C     C_R   0.816642 0.488573 0.363947 -0.105159
Cu1   Cu    Cu3+1 0.500000 0.499980 0.640670 1.021036
Cu2   Cu    Cu3+1 0.500000 0.500020 0.359330 0.971742
H1    H     H_    0.425796 0.108800 0.811960 0.101852
H2    H     H_    0.305899 0.176763 0.455358 0.345252
H3    H     H_    0.423091 0.362095 0.872306 0.156286
H4    H     H_    0.727945 0.733233 0.853945 0.342727
H5    H     H_    0.510654 0.753789 0.873084 0.124264
H6    H     H_    0.604377 0.734578 0.126632 0.157227
H7    H     H_    0.117882 0.575666 0.955849 0.349799
H8    H     H_    0.508410 0.753038 0.121706 0.142500
H9    H     H_    0.282951 0.489610 0.280828 0.153715
H10   H     H_    0.718615 0.526871 0.719046 0.170244
H11   H     H_    0.843584 0.477175 0.264428 0.147717
H12   H     H_    0.422893 0.362297 0.133341 0.131253
H13   H     H_    0.558095 0.114483 0.300835 0.133318
H14   H     H_    0.158235 0.489522 0.277314 0.163523
H15   H     H_    0.844226 0.535453 0.712551 0.150875
H16   H     H_    0.717522 0.472822 0.270084 0.146308
H17   H     H_    0.301361 0.452662 0.965715 0.321980
H18   H     H_    0.558291 0.887888 0.301705 0.114738
H19   H     H_    0.308555 0.794023 0.460671 0.344892
H20   H     H_    0.420447 0.888775 0.806432 0.100459
N1    N     N_R   0.034539 0.446352 0.390375 -0.201103
N2    N     N_R   0.965885 0.448879 0.386291 -0.206856
N3    N     N_R   0.963184 0.573374 0.586270 -0.203033
N4    N     N_R   0.031654 0.571639 0.589573 -0.170244
N5    N     N_R   0.500440 0.500930 0.147930 -0.238269
N6    N     N_R   0.500440 0.500890 0.852020 -0.248866
O1    O     O_R   0.500000 0.319640 0.618810 -0.511336
O2    O     O_R   0.277625 0.431630 0.874742 -0.644012
O3    O     O_2   0.294048 0.874573 0.693406 -0.433355
O4    O     O_R   0.354204 0.827966 0.494521 -0.677087
O5    O     O_2   0.323240 0.216351 0.700117 -0.475982
O6    O     O_R   0.344926 0.123449 0.490654 -0.667142
O7    O     O_2   0.625111 0.819683 0.756401 -0.515064
O8    O     O_R   0.685864 0.698532 0.905236 -0.719631
O9    O     O_2   0.098071 0.413558 0.789101 -0.457489
O10   O     O_R   0.147642 0.590301 0.868875 -0.643566
O11   O     O_R   0.500010 0.319680 0.381230 -0.507396
O12   O     O_R   0.400140 0.499970 0.618830 -0.463499
O13   O     O_R   0.400150 0.500010 0.381250 -0.503819
O14   O     O_R   0.499990 0.680320 0.618770 -0.495063
O15   O     O_R   0.500000 0.680360 0.381190 -0.505435
O16   O     O_R   0.599850 0.499990 0.618750 -0.496700
O17   O     O_R   0.599860 0.500030 0.381170 -0.509050
O18   O     O_2   0.318128 0.618553 0.799957 -0.473591

loop_
_geom_bond_atom_site_label_1
_geom_bond_atom_site_label_2
_ccdc_geom_bond_type
H4    O8    S    
C20   O17   A    
C35   C36   A    
C7    C8    A    
Cu2   N5    S    
C1    C5    S    
C36   C37   A    
C28   O3    D    
C25   H14   S    
C18   C19   S    
Cu1   Cu2   S    
C19   H8    S    
Cu1   O14   S    
C15   N6    A    
C34   C35   A    
C20   C35   S    
C23   N3    A    
Cu1   O1    S    
C8    C9    A    
C18   C30   S    
C4    C12   S    
C9    C10   S    
C26   H9    S    
H2    O6    S    
C21   C27   S    
C8    C16   S    
C21   C22   A    
H7    O10   S    
C33   C34   A    
C22   C31   S    
C13   C19   S    
Cu2   O13   S    
C3    C11   S    
C24   C25   A    
C32   N4    A    
C30   O8    S    
C31   O9    D    
C25   C26   A    
C12   C21   A    
C12   C26   A    
N1    N2    A    
C16   O15   A    
C1    O1    A    
C24   C32   S    
C4    O13   A    
N3    N4    A    
C3    C9    A    
C18   H5    S    
C31   O10   S    
C14   H12   S    
Cu1   N6    S    
C14   N5    A    
C28   O4    S    
C17   C18   S    
Cu2   O11   S    
C2    C33   A    
Cu1   O16   S    
C22   C24   A    
C32   N1    A    
C29   O5    D    
C10   C28   S    
C33   H15   S    
C34   H10   S    
Cu2   O17   S    
C1    O11   A    
C15   H3    S    
C3    C5    A    
C30   O7    D    
C19   H6    S    
H19   O4    S    
C6    C7    A    
Cu1   O12   S    
H17   O2    S    
C17   N6    A    
C13   C17   A    
C16   O14   A    
Cu2   O15   S    
C27   O18   D    
C10   H20   S    
C4    O12   A    
C36   H16   S    
C37   H11   S    
C2    C37   A    
C5    C6    A    
C13   N5    A    
C11   H1    S    
C27   O2    S    
C10   C11   S    
C23   N2    A    
C11   C29   S    
C2    C23   S    
C14   C15   A    
C6    H13   S    
C20   O16   A    
C7    H18   S    
C29   O6    S    
