data_mof_unit_66347.cif
_audit_creation_date              2012-12-10T20:59:17-0500
_audit_creation_method            fapswitch 2.2
_symmetry_space_group_name_H-M    P1
_symmetry_Int_Tables_number       1
_space_group_crystal_system       triclinic
_cell_length_a                    22.272754
_cell_length_b                    22.307322
_cell_length_c                    22.322641
_cell_angle_alpha                 110.233044
_cell_angle_beta                  108.093124
_cell_angle_gamma                 110.192898
_cell_volume                      8523.75670195

loop_
_atom_site_label
_atom_site_type_symbol
_atom_type_description
_atom_site_fract_x
_atom_site_fract_y
_atom_site_fract_z
_atom_type_partial_charge
C1    C     C_R   0.900467 0.500031 0.599468 0.534641
C2    C     C_1   0.139101 0.778271 0.638823 0.144674
C3    C     C_3   0.293579 0.572854 0.336606 0.553296
C4    C     C_R   0.099669 0.500050 0.400595 0.548497
C5    C     C_3   0.172641 0.502467 0.217090 0.675580
C6    C     C_3   0.216278 0.504352 0.173677 0.363611
C7    C     C_1   0.360720 0.499850 0.138939 0.095729
C8    C     C_3   0.214482 0.502171 0.287779 -0.079834
C9    C     C_3   0.338611 0.568955 0.294538 0.538301
C10   C     C_3   0.286950 0.502011 0.213477 -0.174022
C11   C     C_3   0.261515 0.429922 0.217857 -0.209943
C12   C     C_1   0.360576 0.221762 0.860616 0.172774
C13   C     C_3   0.222874 0.431599 0.265238 0.506735
C14   C     C_1   0.327495 0.500409 0.172341 0.086497
C15   C     C_1   0.173599 0.501459 0.328630 0.233615
C16   C     C_R   0.140514 0.499946 0.639987 0.567925
C17   C     C_1   0.139716 0.500652 0.361413 0.197384
C18   C     C_R   0.934204 0.441242 0.191481 0.439669
C19   C     C_R   0.896046 0.474866 0.212588 0.393329
C20   C     C_R   0.828235 0.432261 0.205540 -0.011679
C21   C     C_R   0.798289 0.355164 0.176411 0.204733
C22   C     C_R   0.836941 0.321532 0.155390 0.217974
C23   C     C_3   0.211885 0.926656 0.711584 -0.167128
C24   C     C_R   0.904995 0.364811 0.163010 0.206185
C25   C     C_R   0.737655 0.471264 0.179122 0.422787
C26   C     C_R   0.693287 0.497664 0.196649 0.013281
C27   C     C_R   0.699511 0.520249 0.266946 -0.038912
C28   C     C_R   0.858498 0.498799 0.359555 0.573267
C29   C     C_R   0.752799 0.519513 0.320002 0.222388
C30   C     C_R   0.799883 0.496041 0.302979 0.004046
C31   C     C_R   0.789347 0.468601 0.230758 0.040245
C32   C     C_R   0.673149 0.618355 0.325223 -0.034745
C33   C     C_R   0.625361 0.640892 0.339444 0.266479
C34   C     C_3   0.200832 0.043555 0.743035 0.539788
C35   C     C_R   0.553390 0.587953 0.314162 -0.048836
C36   C     C_R   0.529107 0.512473 0.274884 -0.075732
C37   C     C_R   0.576477 0.489397 0.260098 0.270049
C38   C     C_R   0.649030 0.542629 0.285099 0.050782
C39   C     C_3   0.775211 0.568858 0.732879 0.400041
C40   C     C_R   0.900536 0.300991 0.400458 0.538237
C41   C     C_3   0.829095 0.501147 0.785269 0.486652
C42   C     C_3   0.787587 0.506136 0.830535 0.068728
C43   C     C_1   0.638921 0.499701 0.860746 0.153390
C44   C     C_3   0.786753 0.499925 0.713305 -0.095347
C45   C     C_3   0.285419 0.073415 0.785414 -0.126495
C46   C     C_3   0.732713 0.568018 0.777128 0.246548
C47   C     C_3   0.712489 0.498357 0.785967 -0.140515
C48   C     C_3   0.665333 0.426040 0.707928 0.418895
C49   C     C_3   0.710122 0.427150 0.666023 0.244593
C50   C     C_1   0.672023 0.499240 0.827201 0.131239
C51   C     C_1   0.827521 0.500013 0.672363 0.167134
C52   C     C_R   0.099539 0.699046 0.599551 0.532076
C53   C     C_1   0.860832 0.500050 0.639027 0.164919
C54   C     C_3   0.779467 0.043286 0.337782 0.268346
C55   C     C_3   0.822936 0.043447 0.246777 0.198954
C56   C     C_3   0.298087 0.042996 0.839335 0.514522
C57   C     C_3   0.779508 0.957439 0.202864 0.242279
C58   C     C_1   0.638378 0.778258 0.138991 0.144795
C59   C     C_3   0.783190 0.073382 0.284724 -0.098634
C60   C     C_3   0.735934 0.957125 0.294902 0.047587
C61   C     C_3   0.710389 0.926660 0.211634 -0.094178
C62   C     C_3   0.659055 0.955515 0.183104 0.565394
C63   C     C_3   0.703622 0.043441 0.224165 0.388412
C64   C     C_3   0.158307 0.956696 0.693421 0.549708
C65   C     C_1   0.670846 0.844943 0.171799 0.136826
C66   C     C_1   0.825742 0.155075 0.326632 0.136929
C67   C     C_3   0.251144 0.956615 0.795598 0.244753
C68   C     C_1   0.860140 0.221754 0.360552 0.150745
C69   C     C_R   0.302187 0.563250 0.560621 0.482036
C70   C     C_R   0.280906 0.525845 0.596138 0.269466
C71   C     C_R   0.293836 0.566506 0.667661 0.022279
C72   C     C_R   0.328606 0.644104 0.702913 -0.125772
C73   C     C_R   0.349564 0.680934 0.667242 -0.114027
C74   C     C_R   0.336287 0.640736 0.596158 0.264827
C75   C     C_R   0.322215 0.525850 0.757671 0.222529
C76   C     C_3   0.273158 0.956932 0.691595 0.520245
C77   C     C_R   0.303216 0.496596 0.800399 -0.013544
C78   C     C_1   0.326856 0.155095 0.826885 0.199585
C79   C     C_R   0.229795 0.465412 0.786868 -0.003315
C80   C     C_R   0.177783 0.466708 0.734185 0.393351
C81   C     C_R   0.197175 0.499058 0.694382 0.008568
C82   C     C_R   0.270060 0.529213 0.706483 -0.029081
C83   C     C_R   0.173999 0.351877 0.793332 -0.108687
C84   C     C_R   0.155045 0.316507 0.830927 0.273813
C85   C     C_R   0.166014 0.358009 0.900788 0.440293
C86   C     C_R   0.195504 0.434719 0.932758 -0.036849
C87   C     C_R   0.214777 0.470509 0.895515 0.224877
C88   C     C_3   0.310512 0.043287 0.728937 0.670776
C89   C     C_1   0.171973 0.844949 0.671622 0.146517
C90   C     C_R   0.204630 0.428987 0.825558 0.047878
C91   C     C_R   0.639594 0.499499 0.140352 0.567017
C92   C     C_R   0.359553 0.498828 0.858584 0.567434
C93   C     C_R   0.400417 0.499839 0.099476 0.528688
C94   C     C_R   0.599499 0.499950 0.900521 0.528560
C95   C     C_R   0.599434 0.699013 0.099528 0.530583
C96   C     C_R   0.400430 0.300966 0.900504 0.535515
Cl1   Cl    Cl    0.179611 0.085918 0.690021 -0.213856
Cl2   Cl    Cl    0.713246 0.301133 0.168032 -0.320522
Cl3   Cl    Cl    0.800552 0.225379 0.120262 -0.240530
Cl4   Cl    Cl    0.754384 0.541875 0.405230 -0.404392
Cl5   Cl    Cl    0.655375 0.735598 0.388031 -0.327984
Cl6   Cl    Cl    0.543472 0.393818 0.209705 -0.419647
Cl7   Cl    Cl    0.861159 0.654947 0.785951 -0.323675
Cl8   Cl    Cl    0.842453 0.422549 0.764597 -0.298790
Cl9   Cl    Cl    0.239222 0.914158 0.594299 -0.175979
Cl10  Cl    Cl    0.781521 0.447807 0.870295 -0.289096
Cl11  Cl    Cl    0.579418 0.417159 0.656038 -0.168643
Cl12  Cl    Cl    0.079638 0.914388 0.703222 -0.164693
Cl13  Cl    Cl    0.727457 0.570029 0.652064 -0.171167
Cl14  Cl    Cl    0.639106 0.343502 0.713966 -0.312306
Cl15  Cl    Cl    0.789623 0.922334 0.333405 -0.433003
Cl16  Cl    Cl    0.656740 0.081166 0.263832 -0.196962
Cl17  Cl    Cl    0.709618 0.078403 0.163051 -0.314701
Cl18  Cl    Cl    0.615158 0.912062 0.084682 -0.236385
Cl19  Cl    Cl    0.362556 0.688248 0.552214 -0.244668
Cl20  Cl    Cl    0.237467 0.428416 0.550089 -0.370891
Cl21  Cl    Cl    0.409663 0.554356 0.762748 -0.404963
Cl22  Cl    Cl    0.119175 0.220383 0.790804 -0.254034
Cl23  Cl    Cl    0.393009 0.072562 0.891240 -0.264362
Cl24  Cl    Cl    0.253455 0.567331 0.938458 -0.419971
Cl25  Cl    Cl    0.389845 0.655378 0.300307 -0.280735
Cl26  Cl    Cl    0.290401 0.657365 0.367217 -0.212800
Cl27  Cl    Cl    0.238353 0.583924 0.162469 -0.254171
Cl28  Cl    Cl    0.158615 0.426897 0.081249 -0.298762
Cl29  Cl    Cl    0.137018 0.346241 0.217044 -0.260422
Cl30  Cl    Cl    0.954362 0.323967 0.137171 -0.190859
F1    F     F_    0.177303 0.063749 0.793527 -0.442822
F2    F     F_    0.325609 0.938785 0.717329 -0.529188
F3    F     F_    0.731103 0.447879 0.111242 -0.536415
F4    F     F_    0.899258 0.562583 0.827813 -0.500883
F5    F     F_    0.671748 0.417752 0.598119 -0.487662
F6    F     F_    0.671173 0.572549 0.745989 -0.476945
F7    F     F_    0.293044 0.063905 0.676952 -0.472896
F8    F     F_    0.893400 0.068647 0.298404 -0.571169
F9    F     F_    0.760431 0.932159 0.129899 -0.533846
F10   F     F_    0.601670 0.931979 0.197705 -0.515922
F11   F     F_    0.747949 0.069935 0.376960 -0.514700
F12   F     F_    0.103152 0.440204 0.173842 -0.439837
F13   F     F_    0.386102 0.074945 0.763305 -0.443846
F14   F     F_    0.289377 0.524289 0.491586 -0.463941
F15   F     F_    0.108165 0.437864 0.723611 -0.543537
F16   F     F_    0.200753 0.932522 0.818136 -0.468956
F17   F     F_    0.148660 0.324112 0.937908 -0.481227
F18   F     F_    0.278115 0.071060 0.890894 -0.417448
F19   F     F_    0.161426 0.562221 0.235075 -0.442435
F20   F     F_    0.265171 0.433904 0.327465 -0.436318
F21   F     F_    0.129846 0.936445 0.620262 -0.497978
F22   F     F_    0.329206 0.573964 0.400496 -0.400169
F23   F     F_    0.392365 0.555962 0.328973 -0.531011
F24   F     F_    0.000014 0.483284 0.199206 -0.435137
F25   F     F_    0.925531 0.549146 0.240875 -0.513991
H1    H     H_    0.309191 0.423367 0.241420 0.237663
H2    H     H_    0.828863 0.064650 0.209413 0.257084
H3    H     H_    0.815547 0.936771 0.223192 0.249576
H4    H     H_    0.687032 0.937478 0.302289 0.274054
H5    H     H_    0.338743 0.675937 0.757835 0.187287
H6    H     H_    0.375897 0.740784 0.694842 0.212347
H7    H     H_    0.166566 0.319669 0.739766 0.187437
H8    H     H_    0.204330 0.466719 0.986935 0.222353
H9    H     H_    0.286853 0.932992 0.807725 0.213810
H10   H     H_    0.224767 0.380242 0.162107 0.213481
H11   H     H_    0.728626 0.659668 0.344236 0.185236
H12   H     H_    0.516209 0.605300 0.324689 0.238882
H13   H     H_    0.473193 0.471932 0.255448 0.184220
H14   H     H_    0.767985 0.618367 0.832695 0.173218
H15   H     H_    0.822009 0.562632 0.880020 0.189487
H16   H     H_    0.718105 0.378699 0.653232 0.209752
H17   H     H_    0.836297 0.064114 0.378911 0.252978
O1    O     O_3   0.000000 0.500000 0.500000 -0.497170
O2    O     O_R   0.573110 0.542970 0.909170 -0.503997
O3    O     O_R   0.590800 0.663980 0.133850 -0.518052
O4    O     O_R   0.909130 0.543010 0.573110 -0.496025
O5    O     O_R   0.469890 0.336020 0.926900 -0.496567
O6    O     O_R   0.573080 0.663970 0.030140 -0.504507
O7    O     O_R   0.366170 0.336040 0.909160 -0.522926
O8    O     O_R   0.366140 0.457030 0.030130 -0.526962
O9    O     O_R   0.590860 0.456990 0.926900 -0.498847
O10   O     O_R   0.615780 0.542990 0.158810 -0.573383
O11   O     O_R   0.427160 0.542990 0.884210 -0.459179
O12   O     O_R   0.158790 0.542980 0.615810 -0.576194
O13   O     O_R   0.133840 0.542970 0.469880 -0.529007
O14   O     O_R   0.072820 0.457010 0.615810 -0.442744
O15   O     O_R   0.884200 0.457010 0.341200 -0.568678
O16   O     O_R   0.926910 0.336030 0.469870 -0.508686
O17   O     O_R   0.030090 0.663980 0.573120 -0.499562
O18   O     O_R   0.909180 0.336020 0.366160 -0.515697
O19   O     O_R   0.133810 0.663960 0.590860 -0.532426
O20   O     O_R   0.884180 0.543000 0.427180 -0.464363
O21   O     O_R   0.926880 0.457030 0.590850 -0.506150
O22   O     O_R   0.030150 0.456990 0.366160 -0.535370
O23   O     O_3   0.499990 0.500000 0.000010 -0.496911
O24   O     O_R   0.615810 0.457000 0.072830 -0.437857
O25   O     O_R   0.341200 0.457020 0.884200 -0.568833
O26   O     O_R   0.469840 0.543010 0.133850 -0.535511
Zn1   Zn    Zn3+2 0.104790 0.561410 0.543380 0.994617
Zn2   Zn    Zn3+2 0.981970 0.438590 0.543380 1.084684
Zn3   Zn    Zn3+2 0.956640 0.438570 0.395200 1.013081
Zn4   Zn    Zn3+2 0.956600 0.561430 0.518040 1.087170
Zn5   Zn    Zn3+2 0.395190 0.438590 0.956630 1.001317
Zn6   Zn    Zn3+2 0.543350 0.561430 0.104810 0.996166
Zn7   Zn    Zn3+2 0.518020 0.561410 0.956640 1.076364
Zn8   Zn    Zn3+2 0.543380 0.438570 0.981970 1.097060

loop_
_geom_bond_atom_site_label_1
_geom_bond_atom_site_label_2
_ccdc_geom_bond_type
C44   C49   S    
C25   C31   A    
C48   Cl14  S    
C39   Cl7   S    
C77   C92   S    
C8    C13   S    
C72   H5    S    
C46   H14   S    
C55   C59   S    
C27   C29   A    
C73   C74   A    
C66   C68   T    
C35   C36   A    
C75   Cl21  S    
C6    Cl28  S    
C23   C76   S    
C25   F3    S    
C85   F17   S    
C81   C82   A    
C43   C94   S    
O1    Zn1   S    
C54   C60   S    
C85   C86   A    
C49   F5    S    
C9    F23   S    
C26   C27   A    
C37   C38   A    
C83   C84   A    
C33   Cl5   S    
C13   F20   S    
C36   C37   A    
C96   O7    A    
C28   O15   A    
O23   Zn5   S    
C88   F7    S    
C49   H16   S    
C28   O20   A    
C59   C66   S    
C46   F6    S    
C41   F4    S    
C16   O14   A    
C48   Cl11  S    
C40   O18   A    
C67   F16   S    
C27   C38   S    
C23   C67   S    
C91   O10   A    
C73   H6    S    
C11   H10   S    
C34   Cl1   S    
C15   C17   T    
C18   C19   A    
C41   C42   S    
C62   F10   S    
C63   Cl16  S    
C1    C53   S    
O2    Zn7   S    
C33   C35   A    
C7    C14   T    
O26   Zn6   S    
C93   O26   A    
C45   C56   S    
C34   F1    S    
C79   C90   S    
C12   C78   T    
C19   F25   S    
C23   C89   S    
O18   Zn3   S    
O4    Zn4   S    
C70   C71   A    
O23   Zn8   S    
C32   C38   A    
C4    O13   A    
O1    Zn2   S    
C29   C30   A    
C9    C10   S    
C76   C88   S    
C3    Cl26  S    
C71   C82   S    
C13   Cl29  S    
C69   F14   S    
C3    F22   S    
C21   C22   A    
C24   Cl30  S    
C69   C70   A    
C6    Cl27  S    
C64   Cl12  S    
C47   C50   S    
C54   C59   S    
C77   C79   A    
C7    C93   S    
C63   Cl17  S    
C5    F19   S    
C96   O5    A    
O11   Zn7   S    
C5    F12   S    
C45   C88   S    
O23   Zn6   S    
C3    C8    S    
C10   C14   S    
C86   C87   A    
C72   C73   A    
C70   Cl20  S    
C25   C26   A    
O25   Zn5   S    
O6    Zn7   S    
C35   H12   S    
C37   Cl6   S    
C32   H11   S    
C60   C61   S    
C51   C53   T    
C94   O9    A    
C56   F18   S    
C2    C89   T    
C58   C95   S    
C88   F13   S    
C62   C63   S    
C3    C9    S    
C92   O11   A    
C4    O22   A    
C42   Cl10  S    
C58   C65   T    
C9    Cl25  S    
C47   C48   S    
O20   Zn4   S    
C30   C31   A    
C34   C64   S    
C69   C74   A    
C43   C50   T    
C34   C45   S    
O15   Zn3   S    
C84   C85   A    
C57   C61   S    
C75   C77   A    
O7    Zn5   S    
C45   C78   S    
O12   Zn1   S    
C2    C52   S    
C39   C46   S    
C4    C17   S    
C44   C51   S    
C48   C49   S    
C52   O19   A    
C92   O25   A    
C8    C15   S    
C55   C57   S    
C64   F21   S    
O17   Zn4   S    
C41   C44   S    
C18   C24   A    
O1    Zn4   S    
O3    Zn6   S    
O14   Zn2   S    
C52   O17   A    
O8    Zn5   S    
C56   C67   S    
O1    Zn3   S    
C86   H8    S    
C55   H2    S    
C83   C90   A    
O10   Zn6   S    
C46   C47   S    
C23   C64   S    
C22   Cl3   S    
C1    O4    A    
C29   Cl4   S    
O19   Zn1   S    
C95   O6    A    
C12   C96   S    
C54   H17   S    
C80   C81   A    
C6    C10   S    
C5    C8    S    
C75   C82   A    
C62   Cl18  S    
C39   C44   S    
C55   F8    S    
C91   O24   A    
C93   O8    A    
C59   C63   S    
C41   Cl8   S    
C32   C33   A    
C19   C20   A    
C28   C30   S    
C26   C91   S    
C60   H4    S    
C57   F9    S    
C87   Cl24  S    
C60   Cl15  S    
O16   Zn2   S    
C94   O2    A    
C21   Cl2   S    
C11   C13   S    
O21   Zn2   S    
C5    C6    S    
C83   H7    S    
C76   F2    S    
C74   Cl19  S    
C16   C81   S    
C56   Cl23  S    
C22   C24   A    
C42   C47   S    
C61   C62   S    
O13   Zn1   S    
C10   C11   S    
C79   C80   A    
C54   F11   S    
C61   C65   S    
C11   H1    S    
C39   Cl13  S    
C71   C72   A    
C20   C21   A    
C84   Cl22  S    
C80   F15   S    
C40   C68   S    
C87   C90   A    
C36   H13   S    
O24   Zn8   S    
O9    Zn8   S    
O5    Zn8   S    
C67   H9    S    
O23   Zn7   S    
C18   F24   S    
C57   H3    S    
C95   O3    A    
C76   Cl9   S    
C16   O12   A    
O22   Zn3   S    
C42   H15   S    
C40   O16   A    
C20   C31   S    
C1    O21   A    
