data_mof_unit_47770.cif
_audit_creation_date              2012-10-26T18:27:08-0400
_audit_creation_method            fapswitch 2.2
_symmetry_space_group_name_H-M    P1
_symmetry_Int_Tables_number       1
_space_group_crystal_system       triclinic
_cell_length_a                    14.991334
_cell_length_b                    10.952301
_cell_length_c                    9.951954
_cell_angle_alpha                 88.255567
_cell_angle_beta                  88.445574
_cell_angle_gamma                 93.894566
_cell_volume                      1628.78005635

loop_
_atom_site_label
_atom_site_type_symbol
_atom_type_description
_atom_site_fract_x
_atom_site_fract_y
_atom_site_fract_z
_atom_type_partial_charge
C1    C     C_R   0.505877 0.267297 0.502143 0.571413
C2    C     C_R   0.182257 0.408211 0.536858 -0.082534
C3    C     C_R   0.233341 0.515830 0.500508 0.013185
C4    C     C_R   0.330153 0.509154 0.500506 0.580726
C5    C     C_R   0.191831 0.622631 0.458220 0.233777
C6    C     C_2   0.522320 0.942813 0.393187 0.215191
C7    C     C_2   0.493175 0.864859 0.494580 0.014918
C8    C     C_2   0.504439 0.070924 0.402820 -0.125259
C9    C     C_2   0.525953 0.139487 0.508313 0.197275
C10   C     C_2   0.437234 0.439699 0.930280 0.340232
C11   C     C_2   0.440451 0.432045 0.086332 0.318000
C12   C     C_R   0.909049 0.616453 0.469901 0.017929
C13   C     C_R   0.500859 0.733826 0.497824 0.568756
C14   C     C_R   0.670093 0.498061 0.498558 0.525836
C15   C     C_R   0.815511 0.610099 0.467804 -0.052942
C16   C     C_R   0.766312 0.499702 0.495385 0.011597
C17   C     C_R   0.808396 0.393151 0.525216 -0.095011
C18   C     C_R   0.901444 0.396545 0.528441 -0.018596
C19   C     C_R   0.952408 0.508190 0.500988 0.019254
C20   C     C_R   0.943681 0.289603 0.558305 -0.065096
C21   C     C_R   0.036862 0.290655 0.562016 0.259909
C22   C     C_R   0.088928 0.402165 0.534170 -0.002080
C23   C     C_R   0.046421 0.510878 0.502688 -0.023626
C24   C     C_R   0.097576 0.622196 0.471536 -0.016274
C25   C     C_R   0.052894 0.730246 0.453283 -0.020559
C26   C     C_R   0.960193 0.728013 0.444893 0.242485
Cu1   Cu    Cu3+1 0.500020 0.500020 0.638630 1.261619
Cu2   Cu    Cu3+1 0.499980 0.499980 0.361370 1.197987
H1    H     H_    0.473191 0.110968 0.316289 0.177738
H2    H     H_    0.903428 0.204696 0.578185 0.195452
H3    H     H_    0.187731 0.089835 0.726609 0.407412
H4    H     H_    0.217240 0.328015 0.562182 0.224327
H5    H     H_    0.227674 0.905142 0.248382 0.408038
H6    H     H_    0.089508 0.818409 0.447279 0.243807
H7    H     H_    0.818249 0.918754 0.248064 0.409383
H8    H     H_    0.577876 0.067188 0.113760 0.365489
H9    H     H_    0.768637 0.307929 0.545398 0.173711
H10   H     H_    0.779231 0.690430 0.448153 0.206900
H11   H     H_    0.459132 0.899677 0.581425 0.164353
H12   H     H_    0.678529 0.174428 0.788538 0.387782
H13   H     H_    0.196898 0.308248 0.917886 0.395067
H14   H     H_    0.685844 0.731540 0.805916 0.384987
H15   H     H_    0.210902 0.332966 0.195749 0.379567
H16   H     H_    0.563153 0.486219 0.123442 0.256194
N1    N     N_2   0.499020 0.498660 0.846910 -0.109659
N2    N     N_2   0.499000 0.498630 0.153040 -0.313725
O1    O     O_R   0.500020 0.321960 0.617040 -0.429185
O2    O     O_2   0.654321 0.998450 0.601761 -0.249395
O3    O     O_3   0.646933 0.209191 0.711636 -0.519736
O4    O     O_2   0.281197 0.486442 0.823114 -0.278744
O5    O     O_2   0.352970 0.305608 0.736256 -0.245163
O6    O     O_3   0.256311 0.279529 0.939300 -0.391937
O7    O     O_2   0.560546 0.680667 0.001203 -0.194029
O8    O     O_2   0.662492 0.519837 0.946276 -0.298663
O9    O     O_3   0.633921 0.684976 0.768076 -0.436759
O10   O     O_2   0.358361 0.206936 0.101606 -0.219554
O11   O     O_2   0.353526 0.290888 0.316363 -0.277813
O12   O     O_R   0.499980 0.321920 0.382900 -0.514585
O13   O     O_3   0.256743 0.391032 0.150912 -0.463088
O14   O     O_2   0.014213 0.049211 0.630380 -0.201559
O15   O     O_2   0.138555 0.116385 0.474271 -0.237131
O16   O     O_3   0.153389 0.163979 0.726838 -0.499527
O17   O     O_2   0.280888 0.840258 0.489929 -0.303477
O18   O     O_2   0.337062 0.718090 0.308028 -0.214787
O19   O     O_3   0.194259 0.825049 0.267486 -0.472554
O20   O     O_2   0.855553 0.906373 0.513547 -0.230520
O21   O     O_2   0.982244 0.965088 0.358277 -0.198827
O22   O     O_3   0.845787 0.840316 0.265446 -0.471867
O23   O     O_R   0.370270 0.499990 0.617090 -0.447763
O24   O     O_2   0.637842 0.806248 0.261349 -0.203074
O25   O     O_2   0.498298 0.852151 0.152172 -0.168182
O26   O     O_3   0.624865 0.025541 0.161829 -0.485046
O27   O     O_R   0.370240 0.499950 0.382940 -0.415801
O28   O     O_R   0.500020 0.678080 0.617100 -0.453122
O29   O     O_R   0.499980 0.678040 0.382960 -0.421240
O30   O     O_R   0.629760 0.500050 0.617060 -0.433662
O31   O     O_R   0.629730 0.500010 0.382910 -0.512348
O32   O     O_2   0.527052 0.030384 0.754337 -0.227353
S1    S     S_3+6 0.589395 0.088904 0.646454 0.033713
S2    S     S_3+6 0.332476 0.376796 0.857880 0.125838
S3    S     S_3+6 0.589313 0.595291 0.896067 0.139764
S4    S     S_3+6 0.354853 0.326886 0.170525 0.101741
S5    S     S_3+6 0.085234 0.149680 0.596300 0.055608
S6    S     S_3+6 0.254795 0.753109 0.381732 0.034209
S7    S     S_3+6 0.911377 0.865785 0.397565 0.067865
S8    S     S_3+6 0.571662 0.901509 0.239424 0.112820

loop_
_geom_bond_atom_site_label_1
_geom_bond_atom_site_label_2
_ccdc_geom_bond_type
C8    C9    D    
O16   S5    S    
O13   S4    S    
O20   S7    D    
H5    O19   S    
C20   H2    S    
Cu2   N2    S    
C8    H1    S    
O2    S1    D    
C2    H4    S    
O14   S5    D    
C15   C16   A    
O7    S3    D    
C18   C19   A    
C9    S1    S    
C14   O31   A    
O5    S2    D    
O18   S6    D    
C21   S5    S    
C16   C17   A    
C2    C22   A    
C23   C24   A    
O9    S3    S    
Cu1   O28   S    
H13   O6    S    
Cu1   O23   S    
H15   O13   S    
C25   H6    S    
Cu1   N1    S    
C21   C22   A    
O22   S7    S    
H3    O16   S    
Cu2   O27   S    
C4    O23   A    
H16   N2    S    
C11   S4    S    
O21   S7    D    
C13   O29   A    
C1    C9    S    
C24   C25   A    
O15   S5    D    
C5    S6    S    
C10   S2    S    
O32   S1    D    
C1    O1    A    
O19   S6    S    
C6    C8    S    
C25   C26   A    
C3    C4    S    
O3    S1    S    
C12   C26   A    
C14   O30   A    
C19   C23   A    
C15   H10   S    
H14   O9    S    
O25   S8    D    
C12   C15   A    
C10   N1    D    
C17   C18   A    
C17   H9    S    
C20   C21   A    
Cu2   O31   S    
C4    O27   A    
C14   C16   S    
Cu1   O30   S    
O24   S8    D    
Cu1   O1    S    
C22   C23   A    
N1    S3    S    
C3    C5    A    
O4    S2    D    
O26   S8    S    
O10   S4    D    
C6    C7    D    
Cu2   O12   S    
C6    S8    S    
O17   S6    D    
C2    C3    A    
C1    O12   A    
C5    C24   A    
H7    O22   S    
C26   S7    S    
C12   C19   A    
C18   C20   A    
C10   C11   S    
H8    O26   S    
C7    C13   S    
C13   O28   A    
Cu1   Cu2   S    
C7    H11   S    
O11   S4    D    
C11   N2    D    
O6    S2    S    
Cu2   O29   S    
O8    S3    D    
H12   O3    S    
