data_mof_unit_43189.cif
_audit_creation_date              2012-10-26T19:21:04-0400
_audit_creation_method            fapswitch 2.2
_symmetry_space_group_name_H-M    P1
_symmetry_Int_Tables_number       1
_space_group_crystal_system       triclinic
_cell_length_a                    9.826173
_cell_length_b                    11.044684
_cell_length_c                    13.442057
_cell_angle_alpha                 93.95598
_cell_angle_beta                  81.79422
_cell_angle_gamma                 111.555918
_cell_volume                      1342.68655513

loop_
_atom_site_label
_atom_site_type_symbol
_atom_type_description
_atom_site_fract_x
_atom_site_fract_y
_atom_site_fract_z
_atom_type_partial_charge
C1    C     C_R   0.556507 0.745550 0.507802 0.563999
C2    C     C_R   0.374065 0.477842 0.799535 -0.001335
C3    C     C_2   0.587994 0.884886 0.512959 -0.129518
C4    C     C_R   0.421315 0.483671 0.690353 0.536159
C5    C     C_2   0.482511 0.930166 0.502298 -0.158663
C6    C     C_2   0.410150 0.114807 0.491027 -0.131678
C7    C     C_2   0.513912 0.069271 0.505529 -0.163489
C8    C     C_2   0.925151 0.491805 0.492269 -0.023724
C9    C     C_2   0.080548 0.511211 0.508605 -0.030155
C10   C     C_R   0.442957 0.254352 0.493375 0.555147
C11   C     C_R   0.577053 0.509883 0.309623 0.548690
C12   C     C_R   0.433111 0.482514 0.971286 0.036183
C13   C     C_R   0.744346 0.418498 0.061013 -0.139355
C14   C     C_R   0.616475 0.498882 0.201149 -0.001265
C15   C     C_R   0.253757 0.514498 0.836715 -0.134854
C16   C     C_R   0.220429 0.531955 0.939204 -0.145292
C17   C     C_R   0.310239 0.519200 0.005827 -0.119322
C18   C     C_R   0.902224 0.638036 0.624031 0.179213
C19   C     C_R   0.952294 0.773092 0.611849 -0.080802
C20   C     C_R   0.006862 0.857696 0.691216 -0.139708
C21   C     C_R   0.010709 0.807718 0.783158 -0.105835
C22   C     C_R   0.960572 0.673093 0.795712 -0.129696
C23   C     C_R   0.456792 0.450888 0.867699 0.030217
C24   C     C_R   0.906836 0.588398 0.716283 -0.094505
C25   C     C_R   0.532486 0.474927 0.036064 0.031966
C26   C     C_R   0.644789 0.425518 0.998374 0.050447
C27   C     C_R   0.654136 0.380266 0.899382 -0.146663
C28   C     C_R   0.560790 0.391443 0.835228 -0.121681
C29   C     C_R   0.523867 0.514754 0.137401 -0.129992
C30   C     C_R   0.729742 0.454338 0.162227 -0.138108
Cu1   Cu    Cu3+1 0.362000 0.479240 0.482530 0.925349
Cu2   Cu    Cu3+1 0.638000 0.520760 0.517470 0.935968
H1    H     H_    0.802009 0.441187 0.210819 0.119792
H2    H     H_    0.443753 0.556192 0.169881 0.117276
H3    H     H_    0.187667 0.533578 0.786187 0.127338
H4    H     H_    0.278248 0.536114 0.083977 0.101699
H5    H     H_    0.126950 0.559809 0.967100 0.109008
H6    H     H_    0.569625 0.350304 0.760367 0.140260
H7    H     H_    0.623571 0.134915 0.519105 0.152969
H8    H     H_    0.950302 0.812542 0.540775 0.118188
H9    H     H_    0.046156 0.961941 0.681448 0.112446
H10   H     H_    0.052734 0.873275 0.844570 0.118217
H11   H     H_    0.963594 0.634384 0.866826 0.110931
H12   H     H_    0.372205 0.864432 0.490203 0.156578
H13   H     H_    0.869863 0.484326 0.725808 0.099649
H14   H     H_    0.300678 0.048906 0.477412 0.098025
H15   H     H_    0.698042 0.950847 0.525226 0.096693
H16   H     H_    0.133685 0.580001 0.565394 0.159127
H17   H     H_    0.877268 0.424289 0.433084 0.128636
H18   H     H_    0.103927 0.383559 0.401825 0.200657
H19   H     H_    0.734627 0.336380 0.871162 0.099113
H20   H     H_    0.830520 0.381276 0.032386 0.104210
N1    N     N_2   0.845330 0.551960 0.543750 -0.257857
N2    N     N_2   0.154690 0.448120 0.456210 -0.360378
O1    O     O_R   0.426290 0.668220 0.490680 -0.496065
O2    O     O_R   0.659360 0.703290 0.520190 -0.494160
O3    O     O_R   0.326580 0.473880 0.629020 -0.501635
O4    O     O_R   0.559660 0.508940 0.658530 -0.492807
O5    O     O_R   0.340640 0.296710 0.479810 -0.488216
O6    O     O_R   0.573710 0.331780 0.509320 -0.509863
O7    O     O_R   0.440340 0.491060 0.341470 -0.493468
O8    O     O_R   0.673420 0.526120 0.370980 -0.504059

loop_
_geom_bond_atom_site_label_1
_geom_bond_atom_site_label_2
_ccdc_geom_bond_type
C8    N1    D    
C6    C10   S    
C10   O6    A    
C6    C7    D    
C9    N2    D    
C17   H4    S    
C28   H6    S    
C13   H20   S    
C12   C25   A    
C2    C4    S    
Cu1   Cu2   S    
C18   N1    S    
Cu2   O4    S    
C16   H5    S    
C11   O8    A    
Cu1   O1    S    
Cu1   O3    S    
C10   O5    A    
C1    O1    A    
Cu2   O8    S    
C21   C22   A    
C20   C21   A    
C12   C17   A    
C2    C15   A    
C12   C23   A    
C26   C27   A    
H18   N2    S    
C14   C30   A    
C18   C24   A    
C24   H13   S    
C8    H17   S    
C3    H15   S    
C5    H12   S    
C27   H19   S    
C20   H9    S    
C1    O2    A    
Cu1   N2    S    
C25   C29   A    
C11   C14   S    
C22   C24   A    
C13   C26   A    
C19   H8    S    
Cu2   O6    S    
C4    O4    A    
Cu1   O5    S    
C15   C16   A    
C3    C5    D    
Cu2   N1    S    
C2    C23   A    
C13   C30   A    
C9    H16   S    
C18   C19   A    
C15   H3    S    
C27   C28   A    
C5    C7    S    
Cu1   O7    S    
C16   C17   A    
C7    H7    S    
C21   H10   S    
C6    H14   S    
C30   H1    S    
C1    C3    S    
C25   C26   A    
C23   C28   A    
C29   H2    S    
Cu2   O2    S    
C22   H11   S    
C19   C20   A    
C4    O3    A    
C14   C29   A    
C8    C9    S    
C11   O7    A    
