data_mof_unit_67614.cif
_audit_creation_date              2012-12-10T18:05:46-0500
_audit_creation_method            fapswitch 2.2
_symmetry_space_group_name_H-M    P1
_symmetry_Int_Tables_number       1
_space_group_crystal_system       triclinic
_cell_length_a                    10.904036
_cell_length_b                    10.949516
_cell_length_c                    9.591129
_cell_angle_alpha                 89.122361
_cell_angle_beta                  90.134762
_cell_angle_gamma                 91.951342
_cell_volume                      1144.32222507

loop_
_atom_site_label
_atom_site_type_symbol
_atom_type_description
_atom_site_fract_x
_atom_site_fract_y
_atom_site_fract_z
_atom_type_partial_charge
C1    C     C_R   0.506503 0.263042 0.500420 0.971776
C2    C     C_R   0.481249 0.061529 0.620370 0.266668
C3    C     C_R   0.513027 0.873534 0.500229 -0.331681
C4    C     C_R   0.514724 0.130000 0.500189 -0.359007
C5    C     C_R   0.406399 0.445247 0.077034 -0.019467
C6    C     C_R   0.595751 0.550712 0.923706 -0.068891
C7    C     C_R   0.405106 0.446013 0.929881 0.522873
C8    C     C_R   0.594241 0.555116 0.070796 0.500568
C9    C     C_R   0.262687 0.496435 0.498955 0.890369
C10   C     C_R   0.737829 0.502109 0.501065 0.906218
C11   C     C_R   0.229007 0.913485 0.411146 -0.242696
C12   C     C_R   0.500380 0.738355 0.499566 0.946406
C13   C     C_R   0.810377 0.094658 0.686898 -0.226912
C14   C     C_R   0.192427 0.801880 0.472722 -0.234690
C15   C     C_R   0.826170 0.194382 0.595885 -0.222162
C16   C     C_R   0.142434 0.707984 0.390506 -0.039031
C17   C     C_R   0.872367 0.306804 0.644635 -0.033633
C18   C     C_R   0.142553 0.721619 0.243985 0.323869
C19   C     C_R   0.892207 0.321129 0.789079 0.259107
C20   C     C_R   0.181187 0.833653 0.182070 0.347848
C21   C     C_R   0.882771 0.218824 0.879479 0.312100
C22   C     C_R   0.221349 0.930627 0.266705 0.389848
C23   C     C_R   0.872357 0.504528 0.505362 -0.181832
C24   C     C_R   0.845544 0.104428 0.826476 0.433934
C25   C     C_R   0.943011 0.611035 0.467401 0.431466
C26   C     C_R   0.058437 0.388780 0.526009 0.345754
C27   C     C_R   0.129047 0.495745 0.494018 -0.174757
C28   C     C_R   0.931611 0.397353 0.546866 -0.037915
C29   C     C_R   0.071415 0.604505 0.457141 -0.054091
C30   C     C_R   0.555080 0.068606 0.380294 0.245527
C31   C     C_R   0.505187 0.938058 0.627216 0.281062
C32   C     C_R   0.534186 0.941633 0.374767 0.311540
Cl1   Cl    Cl    0.259188 0.075417 0.194331 -0.392450
Cl2   Cl    Cl    0.394826 0.121809 0.757501 -0.377639
Cl3   Cl    Cl    0.856955 0.969626 0.927002 -0.244039
Cl4   Cl    Cl    0.276524 0.372400 0.856783 -0.445996
Cl5   Cl    Cl    0.714905 0.640462 0.146080 -0.330027
Cl6   Cl    Cl    0.087127 0.600749 0.138993 -0.380725
Cl7   Cl    Cl    0.943179 0.464279 0.853800 -0.407428
Cl8   Cl    Cl    0.171911 0.855100 0.999728 -0.312540
Cl9   Cl    Cl    0.931545 0.231626 0.054288 -0.278611
Cl10  Cl    Cl    0.529282 0.873682 0.208284 -0.458539
Cu1   Cu    Cu3+1 0.500000 0.500020 0.640660 1.110483
Cu2   Cu    Cu3+1 0.500000 0.499980 0.359340 1.128432
H1    H     H_    0.260167 0.987918 0.476473 0.247099
H2    H     H_    0.443205 0.762590 0.948115 0.384251
H3    H     H_    0.780281 0.007103 0.646048 0.232132
H4    H     H_    0.194279 0.791950 0.585256 0.252678
H5    H     H_    0.814438 0.179712 0.486054 0.247852
H6    H     H_    0.331782 0.400719 0.134595 0.228907
H7    H     H_    0.673383 0.589752 0.867126 0.243400
H8    H     H_    0.961513 0.932271 0.516753 0.396486
H9    H     H_    0.119196 0.213383 0.732953 0.394011
H10   H     H_    0.495180 0.116569 0.080468 0.428193
N1    N     N_R   0.500030 0.500030 0.852070 -0.251857
N2    N     N_R   0.499970 0.499970 0.147930 -0.253360
O1    O     O_R   0.499990 0.319660 0.618740 -0.540321
O2    O     O_2   0.746730 0.753948 0.496819 -0.298526
O3    O     O_3   0.952928 0.852748 0.567019 -0.481419
O4    O     O_2   0.046616 0.175547 0.396827 -0.189523
O5    O     O_2   0.250693 0.245412 0.466844 -0.285907
O6    O     O_3   0.103700 0.155757 0.656394 -0.475568
O7    O     O_2   0.709332 0.254001 0.285602 -0.266431
O8    O     O_2   0.720740 0.058517 0.172622 -0.119587
O9    O     O_3   0.533793 0.192052 0.118039 -0.461177
O10   O     O_2   0.652944 0.800252 0.782427 -0.228662
O11   O     O_2   0.567859 0.973841 0.897655 -0.191476
O12   O     O_R   0.500010 0.680340 0.381260 -0.537582
O13   O     O_3   0.421171 0.787010 0.851741 -0.461148
O14   O     O_R   0.499990 0.319630 0.381170 -0.509903
O15   O     O_R   0.500010 0.680370 0.618830 -0.519905
O16   O     O_R   0.319650 0.500020 0.618780 -0.529969
O17   O     O_R   0.680350 0.499980 0.381220 -0.507787
O18   O     O_R   0.319640 0.500000 0.381210 -0.591561
O19   O     O_R   0.680360 0.500000 0.618790 -0.594211
O20   O     O_2   0.890445 0.809307 0.310401 -0.189824
S1    S     S_3+6 0.878391 0.758382 0.456317 0.072058
S2    S     S_3+6 0.118710 0.239990 0.509090 0.057795
S3    S     S_3+6 0.634587 0.144614 0.238308 0.116323
S4    S     S_3+6 0.540656 0.874922 0.794410 0.113433

loop_
_geom_bond_atom_site_label_1
_geom_bond_atom_site_label_2
_ccdc_geom_bond_type
Cu1   O16   S    
O9    S3    S    
C27   C29   A    
C7    Cl4   S    
C5    N2    A    
C9    O16   A    
C7    N1    A    
C6    N1    A    
O3    S1    S    
C31   S4    S    
H10   O9    S    
O7    S3    D    
C12   O12   A    
O4    S2    D    
C26   C27   A    
C26   S2    S    
C25   S1    S    
C19   C21   A    
C20   Cl8   S    
C10   O17   A    
C10   O19   A    
H2    O13   S    
C3    C12   S    
O2    S1    D    
C17   C19   A    
Cu2   O14   S    
C6    H7    S    
C2    Cl2   S    
C23   C25   A    
Cu1   O19   S    
C8    N2    A    
C3    C32   A    
C25   C29   A    
C24   Cl3   S    
Cu2   O18   S    
O20   S1    D    
C13   H3    S    
C14   H4    S    
C16   C29   S    
C13   C24   A    
C2    C31   A    
C2    C4    A    
Cu1   Cu2   S    
H8    O3    S    
C1    O1    A    
H9    O6    S    
Cu2   N2    S    
O5    S2    D    
C23   C28   A    
C3    C31   A    
C19   Cl7   S    
C21   Cl9   S    
C30   S3    S    
Cu1   N1    S    
C12   O15   A    
C20   C22   A    
C13   C15   A    
O8    S3    D    
C14   C16   A    
C5    H6    S    
Cu2   O12   S    
C9    O18   A    
C9    C27   S    
C5    C7    A    
C15   C17   A    
C22   Cl1   S    
Cu1   O15   S    
C17   C28   S    
O6    S2    S    
O11   S4    D    
C6    C8    A    
C10   C23   S    
O10   S4    D    
C11   C22   A    
C26   C28   A    
C1    O14   A    
C1    C4    S    
C18   Cl6   S    
C30   C32   A    
C11   C14   A    
C18   C20   A    
C15   H5    S    
Cu2   O17   S    
C11   H1    S    
Cu1   O1    S    
C16   C18   A    
C8    Cl5   S    
C21   C24   A    
C32   Cl10  S    
O13   S4    S    
C4    C30   A    
