data_mof_unit_6013.cif
_audit_creation_date              2012-12-10T17:53:24-0500
_audit_creation_method            fapswitch 2.2
_symmetry_space_group_name_H-M    P1
_symmetry_Int_Tables_number       1
_space_group_crystal_system       triclinic
_cell_length_a                    22.409668
_cell_length_b                    10.70839
_cell_length_c                    10.036923
_cell_angle_alpha                 87.784462
_cell_angle_beta                  91.877236
_cell_angle_gamma                 92.659327
_cell_volume                      2403.02563191

loop_
_atom_site_label
_atom_site_type_symbol
_atom_type_description
_atom_site_fract_x
_atom_site_fract_y
_atom_site_fract_z
_atom_type_partial_charge
C1    C     C_R   0.503218 0.259905 0.502493 0.934049
C2    C     C_R   0.133825 0.734687 0.542859 0.648278
C3    C     C_R   0.267921 0.730415 0.482960 0.576829
C4    C     C_R   0.388839 0.503475 0.497462 0.881760
C5    C     C_R   0.322379 0.675178 0.512382 -0.283544
C6    C     C_R   0.329253 0.549135 0.487297 -0.030732
C7    C     C_R   0.282028 0.476672 0.432710 -0.170758
C8    C     C_R   0.226569 0.528344 0.411765 -0.122851
C9    C     C_R   0.218942 0.654585 0.438307 0.173484
C10   C     C_R   0.776399 0.496534 0.449890 -0.153357
C11   C     C_R   0.717245 0.451823 0.464597 0.348200
C12   C     C_R   0.969623 0.665407 0.192535 0.448335
C13   C     C_R   0.674756 0.535041 0.503080 -0.136337
C14   C     C_R   0.691420 0.660425 0.525333 -0.200378
C15   C     C_R   0.749995 0.704249 0.508651 -0.065271
C16   C     C_R   0.493071 0.737888 0.498283 0.859628
C17   C     C_R   0.792664 0.622789 0.470332 0.180552
C18   C     C_R   0.524388 0.094064 0.750430 -0.104073
C19   C     C_R   0.514682 0.022529 0.867809 -0.069485
C20   C     C_R   0.476712 0.915735 0.865677 0.543256
C21   C     C_R   0.459075 0.868782 0.740424 -0.259668
C22   C     C_R   0.479212 0.929604 0.621077 0.044377
C23   C     C_R   0.032070 0.675564 0.192460 -0.177082
C24   C     C_R   0.501983 0.052403 0.626275 0.096744
C25   C     C_R   0.503784 0.124821 0.505463 -0.053074
C26   C     C_R   0.496956 0.066503 0.382567 -0.170953
C27   C     C_R   0.489085 0.939015 0.379334 -0.190781
C28   C     C_R   0.611352 0.501758 0.501716 0.995381
C29   C     C_R   0.482452 0.869508 0.498344 -0.132001
C30   C     C_R   0.397407 0.416942 0.134106 -0.178500
C31   C     C_R   0.342381 0.439105 0.071325 -0.301003
C32   C     C_R   0.341124 0.470105 0.934862 0.296612
C33   C     C_R   0.390968 0.437930 0.863876 0.391748
C34   C     C_R   0.066059 0.701201 0.308227 -0.073663
C35   C     C_R   0.447465 0.469807 0.926691 -0.106654
C36   C     C_R   0.449626 0.459333 0.070366 0.031943
C37   C     C_R   0.547923 0.543190 0.070677 0.387993
C38   C     C_R   0.551145 0.515434 0.934557 0.376044
C39   C     C_R   0.885720 0.711497 0.559208 0.574314
C40   C     C_R   0.877679 0.659743 0.329844 0.586065
C41   C     C_R   0.939934 0.682279 0.314139 -0.152164
C42   C     C_R   0.974659 0.718622 0.428658 -0.055039
C43   C     C_R   0.946788 0.739805 0.548864 -0.084172
C44   C     C_3   0.403507 0.805651 0.987036 0.127529
C45   C     C_R   0.037627 0.727714 0.425839 -0.050696
C46   C     C_3   0.384799 0.779632 0.130183 -0.810659
C47   C     C_3   0.295825 0.931934 0.421458 0.039935
C48   C     C_3   0.283910 0.068303 0.442891 -0.654348
C49   C     C_R   0.072178 0.756463 0.542648 -0.186117
C50   C     C_R   0.042794 0.795942 0.656236 0.450269
C51   C     C_R   0.980553 0.784494 0.658205 -0.136366
C52   C     C_R   0.128154 0.692620 0.311030 0.532303
H1    H     H_    0.658399 0.725476 0.551369 0.196248
H2    H     H_    0.301812 0.428537 0.126978 0.196819
H3    H     H_    0.958271 0.808737 0.747092 0.253585
H4    H     H_    0.359786 0.731034 0.552314 0.121273
H5    H     H_    0.287871 0.380273 0.408873 0.145840
H6    H     H_    0.189110 0.469814 0.376381 0.176980
H7    H     H_    0.809945 0.434341 0.420471 0.201496
H8    H     H_    0.872820 0.475409 0.972453 0.404039
H9    H     H_    0.683329 0.224764 0.632058 0.384887
H10   H     H_    0.400086 0.715595 0.935708 0.140975
H11   H     H_    0.371814 0.872091 0.938579 0.188705
H12   H     H_    0.762090 0.801924 0.523454 0.196093
H13   H     H_    0.385680 0.868272 0.184185 0.227422
H14   H     H_    0.338721 0.736706 0.130993 0.239632
H15   H     H_    0.415544 0.714063 0.182046 0.277715
H16   H     H_    0.693840 0.650178 0.211304 0.393945
H17   H     H_    0.208765 0.405075 0.967899 0.370448
H18   H     H_    0.412403 0.179165 0.994349 0.352038
H19   H     H_    0.701865 0.553896 0.808272 0.391813
H20   H     H_    0.138939 0.799588 0.955723 0.411335
H21   H     H_    0.284467 0.911647 0.315270 0.148575
H22   H     H_    0.344337 0.919522 0.441757 0.139424
H23   H     H_    0.499270 0.118573 0.288011 0.188483
H24   H     H_    0.236049 0.085607 0.420807 0.257770
H25   H     H_    0.295238 0.091608 0.547881 0.301422
H26   H     H_    0.311803 0.129782 0.375703 0.175736
H27   H     H_    0.551100 0.178931 0.757668 0.230878
H28   H     H_    0.532682 0.056085 0.961998 0.183191
H29   H     H_    0.431849 0.783095 0.735884 0.147625
H30   H     H_    0.489888 0.895123 0.284093 0.231941
H31   H     H_    0.054667 0.657197 0.102286 0.257252
H32   H     H_    0.398676 0.366322 0.228339 0.202610
N1    N     N_R   0.853204 0.667784 0.452205 -0.353845
N2    N     N_R   0.159933 0.701378 0.428839 -0.351468
N3    N     N_R   0.499460 0.498800 0.142780 -0.176790
N4    N     N_R   0.499440 0.498720 0.857170 -0.177906
O1    O     O_R   0.500000 0.316780 0.614690 -0.556058
O2    O     O_R   0.583850 0.500050 0.614640 -0.537928
O3    O     O_R   0.583840 0.500030 0.385310 -0.529810
O4    O     O_2   0.859332 0.722874 0.676903 -0.494356
O5    O     O_2   0.889602 0.724347 0.997683 -0.200052
O6    O     O_2   0.977261 0.617346 0.930651 -0.285751
O7    O     O_3   0.896016 0.486093 0.057291 -0.473965
O8    O     O_2   0.660386 0.291119 0.302029 -0.184713
O9    O     O_2   0.751519 0.219953 0.415975 -0.260612
O10   O     O_3   0.655559 0.229417 0.553392 -0.565585
O11   O     O_3   0.463164 0.855017 0.986824 -0.623164
O12   O     O_2   0.841353 0.628304 0.225970 -0.440459
O13   O     O_2   0.625607 0.733628 0.013722 -0.246981
O14   O     O_2   0.579024 0.741424 0.226483 -0.283028
O15   O     O_3   0.661854 0.583639 0.203260 -0.479875
O16   O     O_2   0.281056 0.649006 0.808460 -0.256325
O17   O     O_2   0.260736 0.436655 0.732894 -0.246930
O18   O     O_3   0.216597 0.496643 0.956907 -0.457363
O19   O     O_2   0.319080 0.227037 0.849710 -0.274018
O20   O     O_2   0.388572 0.262945 0.671031 -0.292981
O21   O     O_3   0.430221 0.195524 0.905996 -0.586041
O22   O     O_2   0.657131 0.422139 0.009445 -0.205410
O23   O     O_2   0.156443 0.669333 0.198525 -0.525092
O24   O     O_2   0.614222 0.353785 0.800106 -0.327471
O25   O     O_3   0.660354 0.581739 0.809726 -0.507658
O26   O     O_2   0.127951 0.958599 0.747268 -0.231604
O27   O     O_2   0.037276 0.931455 0.876776 -0.273211
O28   O     O_3   0.112042 0.753627 0.892409 -0.444601
O29   O     O_3   0.260465 0.854892 0.508348 -0.557918
O30   O     O_2   0.166764 0.736886 0.657375 -0.372831
O31   O     O_R   0.500000 0.316750 0.385360 -0.636736
O32   O     O_R   0.416160 0.499970 0.614690 -0.594438
O33   O     O_R   0.416150 0.499950 0.385360 -0.662728
O34   O     O_R   0.500000 0.683250 0.614640 -0.630838
O35   O     O_R   0.500000 0.683220 0.385310 -0.576287
S1    S     S_3+6 0.932915 0.625811 0.038759 0.105427
S2    S     S_3+6 0.696968 0.294390 0.430096 0.073127
S3    S     S_3+6 0.603303 0.654839 0.130614 0.116717
S4    S     S_3+6 0.274040 0.513775 0.853019 0.087065
S5    S     S_3+6 0.380630 0.279115 0.816896 0.055689
S6    S     S_3+6 0.621626 0.463838 0.887526 0.098188
S7    S     S_3+6 0.080412 0.865431 0.795420 0.105826
Zn1   Zn    Zn3+2 0.500000 0.500020 0.653130 1.063210
Zn2   Zn    Zn3+2 0.500000 0.499980 0.346870 1.025480

loop_
_geom_bond_atom_site_label_1
_geom_bond_atom_site_label_2
_ccdc_geom_bond_type
O7    S1    S    
C40   N1    A    
C22   C29   A    
O35   Zn2   S    
C27   C29   A    
O32   Zn1   S    
C41   C42   A    
O34   Zn1   S    
C5    H4    S    
C35   C36   A    
O5    S1    D    
C2    O30   S    
C7    C8    A    
C20   O11   S    
C12   C23   A    
C26   C27   A    
C37   C38   A    
C23   H31   S    
C17   N1    S    
C32   S4    S    
C11   S2    S    
C16   O35   A    
O19   S5    D    
C46   H14   S    
C30   C31   A    
C44   O11   S    
C10   C17   A    
H19   O25   S    
O22   S6    D    
C18   C19   A    
C1    O31   A    
C48   H26   S    
O15   S3    S    
C16   O34   A    
C3    O29   S    
C8    H6    S    
O10   S2    S    
C19   C20   A    
C8    C9    A    
O13   S3    D    
O8    S2    D    
C15   H12   S    
H16   O15   S    
C13   C28   S    
O24   S6    D    
C50   S7    S    
C51   H3    S    
C36   N3    A    
C13   C14   A    
C1    C25   S    
O26   S7    D    
C44   C46   S    
C26   H23   S    
C27   H30   S    
C44   H11   S    
O17   S4    D    
C38   S6    S    
C24   C25   A    
C47   H21   S    
C46   H13   S    
O9    S2    D    
C18   H27   S    
C39   C43   A    
O3    Zn2   S    
C52   O23   S    
C3    C5    A    
C25   C26   A    
O18   S4    S    
C33   S5    S    
C38   N4    A    
C42   C45   A    
C48   H25   S    
C12   C41   A    
C3    C9    A    
C2    C49   A    
C9    N2    S    
C35   N4    A    
O21   S5    S    
C47   C48   S    
C12   S1    S    
C45   C49   A    
C23   C34   A    
C50   C51   A    
C34   C45   A    
O20   S5    D    
O25   S6    S    
O2    Zn1   S    
C4    C6    S    
C40   C41   A    
C21   H29   S    
C18   C24   A    
C42   C43   A    
C39   N1    A    
O33   Zn2   S    
C39   O4    S    
C37   S3    S    
C15   C17   A    
H18   O21   S    
C1    O1    A    
C37   N3    A    
C31   C32   A    
C47   H22   S    
O14   S3    D    
O31   Zn2   S    
C40   O12   S    
H17   O18   S    
C6    C7    A    
H20   O28   S    
C34   C52   A    
O1    Zn1   S    
C30   C36   A    
C44   H10   S    
C32   C33   A    
C52   N2    A    
C10   H7    S    
C16   C29   S    
C46   H15   S    
C11   C13   A    
H9    O10   S    
C43   C51   A    
C5    C6    A    
O16   S4    D    
C33   C35   A    
N3    Zn2   S    
C4    O33   A    
C2    N2    A    
C28   O3    A    
C22   C24   A    
C31   H2    S    
C30   H32   S    
C19   H28   S    
C10   C11   A    
C48   H24   S    
H8    O7    S    
C47   O29   S    
C14   H1    S    
O28   S7    S    
C20   C21   A    
C49   C50   A    
C14   C15   A    
C4    O32   A    
C28   O2    A    
N4    Zn1   S    
C21   C22   A    
C7    H5    S    
O27   S7    D    
O6    S1    D    
