data_mof_unit_43926.cif
_audit_creation_date              2012-12-11T17:39:40-0500
_audit_creation_method            fapswitch 2.2
_symmetry_space_group_name_H-M    P1
_symmetry_Int_Tables_number       1
_space_group_crystal_system       triclinic
_cell_length_a                    15.069391
_cell_length_b                    15.122109
_cell_length_c                    15.022493
_cell_angle_alpha                 108.36794
_cell_angle_beta                  110.299631
_cell_angle_gamma                 110.115906
_cell_volume                      2622.51527466

loop_
_atom_site_label
_atom_site_type_symbol
_atom_type_description
_atom_site_fract_x
_atom_site_fract_y
_atom_site_fract_z
_atom_type_partial_charge
C1    C     C_R   0.909984 0.917359 0.715569 -0.066293
C2    C     C_R   0.999254 0.303695 0.444673 0.003383
C3    C     C_R   0.306640 0.322807 0.827116 -0.125650
C4    C     C_R   0.634266 0.939252 0.437274 -0.277645
C5    C     C_R   0.696393 0.703214 0.293864 -0.139381
C6    C     C_R   0.303094 0.090097 0.502183 0.477876
C7    C     C_R   0.091710 0.779796 0.528739 -0.108361
C8    C     C_R   0.908883 0.938764 0.187586 -0.119219
C9    C     C_R   0.092038 0.023776 0.281411 -0.170343
C10   C     C_R   0.907528 0.685878 0.443725 -0.102886
C11   C     C_R   0.695924 0.794342 0.203070 -0.113252
C12   C     C_R   0.090598 0.300168 0.499288 -0.132946
C13   C     C_R   0.299553 0.996722 0.589845 -0.276585
C14   C     C_R   0.631930 0.703952 0.203843 0.114988
C15   C     C_R   0.360623 0.051997 0.555959 0.003506
C16   C     C_R   0.000492 0.677775 0.464454 0.039918
C17   C     C_R   0.000638 0.950229 0.178120 0.058596
C18   C     C_R   0.306332 0.642745 0.144908 -0.294280
C19   C     C_R   0.373646 0.749398 0.230979 -0.160459
C20   C     C_R   0.399536 0.771719 0.337595 0.143120
C21   C     C_R   0.359496 0.685814 0.357456 -0.279207
C22   C     C_R   0.294812 0.578880 0.271745 -0.138944
C23   C     C_R   0.266485 0.219774 0.814146 -0.235806
C24   C     C_R   0.266800 0.556459 0.164856 0.581234
C25   C     C_R   0.393457 0.916408 0.464051 -0.261976
C26   C     C_R   0.435085 0.026181 0.532373 0.091638
C27   C     C_R   0.537589 0.106636 0.561770 0.033283
C28   C     C_R   0.600387 0.074262 0.527540 -0.249055
C29   C     C_R   0.558950 0.964817 0.459437 0.076211
C30   C     C_R   0.453586 0.884884 0.423978 0.031992
C31   C     C_R   0.620110 0.292882 0.586854 -0.086854
C32   C     C_R   0.664859 0.404102 0.648097 -0.118042
C33   C     C_R   0.670973 0.447035 0.748310 -0.070157
C34   C     C_R   0.697395 0.996801 0.405405 0.463277
C35   C     C_R   0.631440 0.378771 0.787152 -0.092490
C36   C     C_R   0.586497 0.267445 0.726123 -0.148855
C37   C     C_R   0.580772 0.223745 0.625575 0.177650
C38   C     C_R   0.821169 0.127532 0.096057 -0.102941
C39   C     C_R   0.893689 0.225247 0.194498 -0.128457
C40   C     C_R   0.854874 0.289701 0.238427 0.110021
C41   C     C_R   0.742608 0.255498 0.180738 -0.157363
C42   C     C_R   0.670453 0.157881 0.082053 -0.100555
C43   C     C_R   0.709624 0.093806 0.039970 -0.085926
C44   C     C_R   0.932565 0.486798 0.354901 -0.247327
C45   C     C_R   0.271535 0.312871 0.724389 0.484412
C46   C     C_R   0.005150 0.582894 0.455022 0.066022
C47   C     C_R   0.078141 0.586409 0.547487 0.014844
C48   C     C_R   0.077494 0.493272 0.536933 -0.223005
C49   C     C_R   0.003642 0.396840 0.438607 0.062186
C50   C     C_R   0.931021 0.391663 0.345115 0.025559
C51   C     C_R   0.266595 0.731986 0.699252 -0.211403
C52   C     C_R   0.340579 0.824183 0.801799 -0.103913
C53   C     C_R   0.302023 0.867962 0.865449 -0.213306
C54   C     C_R   0.189356 0.819137 0.827192 -0.160234
C55   C     C_R   0.113517 0.726544 0.724401 0.561068
C56   C     C_R   0.697514 0.908945 0.498427 0.489604
C57   C     C_R   0.152713 0.683104 0.658435 -0.059550
C58   C     C_2   0.372354 0.509587 0.944555 -0.223916
C59   C     C_2   0.384844 0.422864 0.930134 0.515050
C60   C     C_2   0.460052 0.617538 0.035630 -0.145633
C61   C     C_2   0.514429 0.629218 0.133678 -0.068706
C62   C     C_R   0.409255 0.183525 0.116311 -0.117238
C63   C     C_R   0.310570 0.090932 0.076509 -0.168588
C64   C     C_R   0.211138 0.090944 0.039129 0.093365
C65   C     C_R   0.212519 0.186085 0.044987 -0.131302
C66   C     C_R   0.311699 0.278827 0.085616 -0.097024
C67   C     C_R   0.907716 0.211377 0.412455 -0.075726
C68   C     C_R   0.409853 0.277464 0.121052 -0.118765
C69   C     C_R   0.106348 0.974100 0.087746 -0.216040
C70   C     C_R   0.006104 0.913811 0.078280 0.049398
C71   C     C_R   0.911268 0.843006 0.973764 0.021469
C72   C     C_R   0.915842 0.852633 0.885789 -0.200658
C73   C     C_R   0.010222 0.935075 0.902633 0.073081
C74   C     C_R   0.108314 0.995260 0.005574 0.001773
C75   C     C_R   0.811429 0.701071 0.010741 -0.165901
C76   C     C_R   0.714385 0.624853 0.994671 -0.139136
C77   C     C_R   0.613153 0.603365 0.919028 -0.074221
C78   C     C_R   0.092690 0.004201 0.802192 -0.113694
C79   C     C_R   0.608382 0.661875 0.863737 -0.119808
C80   C     C_R   0.705297 0.740639 0.881987 -0.199624
C81   C     C_R   0.807910 0.760063 0.954685 0.113661
C82   C     C_R   0.004233 0.955950 0.812819 0.024060
H1    H     H_    0.826233 0.862970 0.689450 0.154614
H2    H     H_    0.176414 0.801063 0.560648 0.111568
H3    H     H_    0.823524 0.892397 0.124269 0.119797
H4    H     H_    0.176341 0.049936 0.305849 0.134111
H5    H     H_    0.822983 0.621074 0.399774 0.098837
H6    H     H_    0.666543 0.827459 0.153099 0.110140
H7    H     H_    0.324889 0.963871 0.641769 0.139468
H8    H     H_    0.284092 0.627603 0.062705 0.136461
H9    H     H_    0.376730 0.701845 0.438940 0.137529
H10   H     H_    0.264225 0.513324 0.288072 0.138038
H11   H     H_    0.310667 0.855933 0.436133 0.145845
H12   H     H_    0.682808 0.134909 0.554738 0.136100
H13   H     H_    0.616029 0.260557 0.509200 0.113885
H14   H     H_    0.636272 0.411488 0.864870 0.116997
H15   H     H_    0.558008 0.215777 0.758050 0.106909
H16   H     H_    0.653565 0.018087 0.963836 0.095139
H17   H     H_    0.851478 0.077919 0.063305 0.115005
H18   H     H_    0.584007 0.131604 0.038406 0.099521
H19   H     H_    0.877816 0.486517 0.285018 0.133289
H20   H     H_    0.297903 0.699413 0.650493 0.137100
H21   H     H_    0.427974 0.861840 0.831906 0.114862
H22   H     H_    0.160637 0.852895 0.878131 0.141366
H23   H     H_    0.492001 0.680077 0.015877 0.131661
H24   H     H_    0.477715 0.567235 0.152531 0.160352
H25   H     H_    0.486504 0.349424 0.152880 0.135981
H26   H     H_    0.485446 0.182861 0.144810 0.110954
H27   H     H_    0.137211 0.188583 0.019186 0.139862
H28   H     H_    0.312777 0.351863 0.089716 0.167384
H29   H     H_    0.182634 0.020911 0.164665 0.137203
H30   H     H_    0.844093 0.798160 0.804933 0.126760
H31   H     H_    0.717463 0.580045 0.038313 0.140692
H32   H     H_    0.538340 0.539722 0.901366 0.174502
H33   H     H_    0.529549 0.645659 0.806224 0.139578
H34   H     H_    0.700031 0.786530 0.839699 0.119731
H35   H     H_    0.175708 0.023007 0.849422 0.112625
H36   H     H_    0.667435 0.652852 0.326687 0.111873
N1    N     N_R   0.941940 0.944580 0.650780 -0.040841
N2    N     N_R   0.206190 0.054080 0.497260 -0.106365
N3    N     N_R   0.056380 0.847410 0.553580 -0.037708
N4    N     N_R   0.944890 0.999100 0.292900 -0.038378
N5    N     N_R   0.058060 0.055420 0.349220 -0.052786
N6    N     N_R   0.943200 0.791100 0.497260 -0.035867
N7    N     N_R   0.795540 0.849750 0.292910 -0.051483
N8    N     N_R   0.205730 0.996760 0.553580 -0.054489
N9    N     N_R   0.056800 0.208900 0.502740 -0.054281
N10   N     N_R   0.204460 0.150250 0.707090 -0.053033
N11   N     N_R   0.794270 0.003240 0.446420 -0.102352
N12   N     N_R   0.204920 0.207570 0.650770 -0.099833
N13   N     N_R   0.793810 0.945920 0.502740 -0.103502
N14   N     N_R   0.943620 0.152590 0.446420 -0.041014
N15   N     N_R   0.055110 0.000900 0.707100 -0.043753
N16   N     N_R   0.795080 0.792430 0.349230 -0.052324
Ni1   Ni    Ni4+2 0.869690 0.869690 0.500000 0.247413
Ni2   Ni    Ni4+2 0.130310 0.130310 0.500000 0.189641
Ni3   Ni    Ni4+2 0.129250 0.998840 0.629170 0.210120
Ni4   Ni    Ni4+2 0.870750 0.001160 0.370830 0.237866
O1    O     O_3   0.349195 0.173379 0.483967 -0.776347
H37   H     H_    0.299099 0.202451 0.470449 0.298789
O2    O     O_3   0.199491 0.450315 0.081884 -0.792827
H38   H     H_    0.188788 0.448182 0.012093 0.307028
H39   H     H_    0.401462 0.814866 0.213767 0.129235
H40   H     H_    0.173048 0.354492 0.522188 0.126325
H41   H     H_    0.695373 0.457082 0.618194 0.123854
H42   H     H_    0.707005 0.533256 0.795467 0.141550
H43   H     H_    0.284354 0.197757 0.877173 0.150742
H44   H     H_    0.979969 0.250382 0.236663 0.117771
H45   H     H_    0.710607 0.303405 0.212983 0.106131
H46   H     H_    0.130722 0.494931 0.608941 0.153008
H47   H     H_    0.359819 0.939462 0.944883 0.131560
O3    O     O_3   0.664039 0.031379 0.332314 -0.786797
H48   H     H_    0.586105 0.009944 0.307783 0.314634
O4    O     O_3   0.003624 0.681902 0.692914 -0.774424
H49   H     H_    0.959662 0.612419 0.623802 0.313515
H50   H     H_    0.304698 0.503846 0.880358 0.129924
O5    O     O_3   0.475837 0.430948 0.006686 -0.794939
H51   H     H_    0.475467 0.362223 0.976568 0.307837
H52   H     H_    0.311578 0.019553 0.076048 0.111628
O6    O     O_3   0.319709 0.392887 0.703500 -0.799036
H53   H     H_    0.313278 0.355976 0.632252 0.306256
H54   H     H_    0.889195 0.714370 0.067098 0.127165
O7    O     O_3   0.666532 0.843141 0.540519 -0.787512
H55   H     H_    0.591568 0.825311 0.525803 0.318227
H56   H     H_    0.823038 0.185232 0.360030 0.170339

loop_
_geom_bond_atom_site_label_1
_geom_bond_atom_site_label_2
_ccdc_geom_bond_type
N7    N16   A    
C55   O4    S    
C66   C68   A    
C72   H30   S    
N8    Ni3   S    
N15   Ni3   S    
O5    H51   S    
C48   H46   S    
C59   O5    S    
C73   C74   A    
C3    C23   A    
C35   C36   A    
C43   H16   S    
C63   H52   S    
N10   Ni3   S    
C56   N13   A    
C2    C12   A    
C52   H21   S    
C12   N9    A    
C20   C30   S    
C35   H14   S    
C51   H20   S    
C25   H11   S    
C56   O7    S    
C26   C27   A    
C29   C30   A    
C75   H54   S    
C18   C24   A    
C38   H17   S    
C54   H22   S    
C28   C29   A    
C11   N7    A    
C18   C19   A    
C79   H33   S    
C1    N1    A    
C38   C39   A    
C11   C14   A    
N2    N8    A    
O6    H53   S    
C41   H45   S    
C58   C60   S    
C28   H12   S    
C8    H3    S    
C41   C42   A    
N3    Ni3   S    
C6    O1    S    
N9    N14   A    
N3    N6    A    
C33   C35   A    
C6    C15   A    
C54   C55   A    
N11   Ni4   S    
C80   H34   S    
C34   N11   A    
C39   H44   S    
C36   H15   S    
C51   C57   A    
C68   H25   S    
C24   O2    S    
C4    C29   S    
C67   H56   S    
C7    H2    S    
C45   N12   A    
C21   C22   A    
C4    C56   A    
C45   O6    S    
N12   Ni2   S    
C7    N3    A    
C6    N2    A    
C44   C46   A    
C77   C79   A    
C5    N16   A    
C4    C34   A    
C10   H5    S    
C63   C64   A    
C51   C52   A    
C18   H8    S    
C78   H35   S    
C76   C77   A    
N4    Ni4   S    
C2    C67   A    
C16   C46   S    
C39   C40   A    
C34   O3    S    
C80   C81   A    
C15   C26   S    
C32   H41   S    
C1    C82   A    
C53   C54   A    
C14   C61   S    
C23   H43   S    
C3    C45   A    
N1    Ni1   S    
C31   C37   A    
C60   C61   D    
N2    Ni2   S    
C75   C76   A    
C62   C63   A    
C2    C49   S    
C42   H18   S    
C9    H4    S    
C47   C57   S    
C78   C82   A    
N13   Ni1   S    
C47   C48   A    
C11   H6    S    
O1    H37   S    
C76   H31   S    
O4    H49   S    
C69   C74   A    
N1    N15   A    
N9    Ni2   S    
C61   H24   S    
C65   H27   S    
C5    C14   A    
C70   C71   A    
C58   H50   S    
C13   N8    A    
C9    C17   A    
C48   C49   A    
C49   C50   A    
C13   C15   A    
C7    C16   A    
C22   C24   A    
C58   C59   D    
C42   C43   A    
C77   H32   S    
C73   C82   S    
C52   C53   A    
C21   H9    S    
N14   Ni4   S    
C44   C50   A    
C25   C30   A    
C46   C47   A    
C36   C37   A    
C19   H39   S    
N6    Ni1   S    
C13   H7    S    
C31   C32   A    
C75   C81   A    
C72   C73   A    
N10   N12   A    
C44   H19   S    
C64   C74   S    
N16   Ni1   S    
N7    Ni4   S    
C1    H1    S    
C5    H36   S    
C10   N6    A    
C8    C17   A    
C62   C68   A    
N5    Ni2   S    
C64   C65   A    
C19   C20   A    
C55   C57   A    
C25   C26   A    
C71   C72   A    
C31   H13   S    
C10   C16   A    
O2    H38   S    
C32   C33   A    
C69   H29   S    
C8    N4    A    
C27   C37   S    
C40   C50   S    
C9    N5    A    
C67   N14   A    
C69   C70   A    
C78   N15   A    
O7    H55   S    
C33   H42   S    
C79   C80   A    
C12   H40   S    
C38   C43   A    
C62   H26   S    
C20   C21   A    
C66   H28   S    
C65   C66   A    
C27   C28   A    
C53   H47   S    
C22   H10   S    
C40   C41   A    
O3    H48   S    
C71   C81   S    
N4    N5    A    
C17   C70   S    
C60   H23   S    
C23   N10   A    
N11   N13   A    
C3    C59   S    
