data_mof_unit_5756.cif
_audit_creation_date              2012-12-10T18:20:36-0500
_audit_creation_method            fapswitch 2.2
_symmetry_space_group_name_H-M    P1
_symmetry_Int_Tables_number       1
_space_group_crystal_system       triclinic
_cell_length_a                    14.064522
_cell_length_b                    13.613134
_cell_length_c                    14.947877
_cell_angle_alpha                 89.697574
_cell_angle_beta                  90.830531
_cell_angle_gamma                 82.480269
_cell_volume                      2836.96812623

loop_
_atom_site_label
_atom_site_type_symbol
_atom_type_description
_atom_site_fract_x
_atom_site_fract_y
_atom_site_fract_z
_atom_type_partial_charge
C1    C     C_R   0.499322 0.500388 0.327253 0.950391
C2    C     C_R   0.500675 0.499556 0.672740 0.951314
C3    C     C_R   0.500834 0.500626 0.953049 -0.059030
C4    C     C_R   0.499705 0.499472 0.046927 -0.059372
C5    C     C_R   0.534342 0.412452 0.907165 0.126879
C6    C     C_R   0.465679 0.587507 0.092797 0.126669
C7    C     C_R   0.430550 0.675451 0.952235 0.103238
C8    C     C_R   0.570318 0.324742 0.047699 0.103559
C9    C     C_R   0.430935 0.673717 0.045094 -0.245614
C10   C     C_R   0.569346 0.326313 0.954835 -0.250486
C11   C     C_R   0.805932 0.433830 0.553765 0.218584
C12   C     C_R   0.193545 0.568364 0.448848 0.220177
C13   C     C_R   0.788892 0.567168 0.449400 -0.030064
C14   C     C_R   0.211299 0.434174 0.552268 -0.039105
C15   C     C_R   0.888722 0.570885 0.450446 -0.023096
C16   C     C_R   0.111079 0.432967 0.554656 -0.034038
C17   C     C_R   0.949062 0.502966 0.504550 -0.046039
C18   C     C_R   0.050279 0.503968 0.504047 -0.038646
C19   C     C_R   0.908016 0.433999 0.558634 -0.133573
C20   C     C_R   0.090979 0.575197 0.452233 -0.134575
C21   C     C_R   0.928465 0.642728 0.400181 0.002212
C22   C     C_R   0.071244 0.363143 0.607720 0.009415
C23   C     C_R   0.517516 0.314144 0.500030 0.912231
C24   C     C_R   0.482469 0.685840 0.499895 0.913068
C25   C     C_R   0.027869 0.649344 0.405769 0.485782
C26   C     C_R   0.970149 0.368478 0.614869 0.489007
C27   C     C_1   0.468429 0.789685 0.500275 -0.178391
C28   C     C_1   0.531432 0.210291 0.498549 -0.173661
C29   C     C_2   0.457180 0.982921 0.501055 0.434408
C30   C     C_2   0.542215 0.017102 0.495336 0.429476
C31   C     C_1   0.540035 0.122404 0.496947 -0.072721
C32   C     C_1   0.459586 0.877588 0.500704 -0.070930
C33   C     C_R   0.532230 0.411578 0.814098 -0.035392
C34   C     C_R   0.466909 0.588157 0.185879 -0.030650
C35   C     C_R   0.502304 0.499921 0.767900 -0.230989
C36   C     C_R   0.497676 0.500005 0.232079 -0.229600
C37   C     C_R   0.473537 0.589195 0.811430 0.452838
C38   C     C_R   0.527344 0.410933 0.188546 0.452558
C39   C     C_R   0.467868 0.589517 0.905110 0.001959
C40   C     C_R   0.532926 0.410638 0.094859 0.002573
H1    H     H_    0.402715 0.740895 0.079502 0.172556
H2    H     H_    0.597426 0.259115 0.920382 0.171834
H3    H     H_    0.740993 0.618544 0.408864 0.172056
H4    H     H_    0.259689 0.382690 0.592200 0.165860
N1    N     N_R   0.750030 0.500040 0.500070 -0.114641
N2    N     N_R   0.249970 0.499960 0.499930 -0.111213
O1    O     O_R   0.580280 0.500020 0.367860 -0.600984
O2    O     O_R   0.419720 0.499980 0.632140 -0.600755
O3    O     O_R   0.419730 0.500030 0.367840 -0.625160
O4    O     O_R   0.580270 0.499970 0.632160 -0.634363
O5    O     O_R   0.591830 0.359650 0.500030 -0.592369
O6    O     O_R   0.408170 0.640350 0.499970 -0.603018
O7    O     O_R   0.431280 0.359660 0.500010 -0.621616
O8    O     O_R   0.568720 0.640340 0.499990 -0.619311
Zn1   Zn    Zn3+2 0.607200 0.499990 0.500020 0.964409
Zn2   Zn    Zn3+2 0.392800 0.500010 0.499980 0.962967
O9    O     O_3   0.626696 0.950318 0.489250 -0.626663
C41   C     C_3   0.709373 0.997801 0.479546 -0.298922
H5    H     H_    0.721457 0.043090 0.539372 0.169978
H6    H     H_    0.704714 0.043751 0.417470 0.174938
H7    H     H_    0.772497 0.940234 0.473641 0.183888
O10   O     O_3   0.372656 0.049626 0.507219 -0.626575
C42   C     C_3   0.289604 0.002032 0.513104 -0.316899
H8    H     H_    0.291902 0.955130 0.574471 0.176408
H9    H     H_    0.279764 0.957672 0.452151 0.165070
H10   H     H_    0.226256 0.059505 0.517750 0.187301
N3    N     N_3   0.558289 0.320393 0.766884 -0.467383
H11   H     H_    0.616099 0.328372 0.725673 0.196827
H12   H     H_    0.500132 0.306463 0.726690 0.187614
N4    N     N_3   0.438671 0.678872 0.233149 -0.467594
H13   H     H_    0.380344 0.669666 0.273344 0.204283
H14   H     H_    0.495779 0.693712 0.274289 0.185170
O11   O     O_3   0.446444 0.674250 0.760977 -0.585838
C43   C     C_3   0.528159 0.722325 0.747141 -0.297931
H15   H     H_    0.505524 0.792841 0.710609 0.195772
H16   H     H_    0.581809 0.676958 0.705460 0.169831
H17   H     H_    0.562039 0.740961 0.811556 0.157927
O12   O     O_3   0.555072 0.325997 0.238986 -0.585731
C44   C     C_3   0.473780 0.277305 0.253024 -0.295094
H18   H     H_    0.420207 0.322144 0.295167 0.170816
H19   H     H_    0.497022 0.206660 0.289150 0.194605
H20   H     H_    0.439601 0.258810 0.188708 0.158476
N5    N     N_3   0.390060 0.764612 0.906888 -0.386708
H21   H     H_    0.318777 0.781671 0.926520 0.186613
H22   H     H_    0.427515 0.822121 0.927780 0.171895
N6    N     N_3   0.611273 0.235723 0.093001 -0.386758
H23   H     H_    0.682464 0.218843 0.073041 0.184621
H24   H     H_    0.573883 0.178054 0.072389 0.172320
N7    N     N_3   0.758534 0.363635 0.601696 -0.393612
H25   H     H_    0.763338 0.376685 0.670176 0.202799
H26   H     H_    0.789015 0.291756 0.585950 0.209330
N8    N     N_3   0.241139 0.627254 0.388777 -0.399697
H27   H     H_    0.233344 0.700706 0.409799 0.206925
H28   H     H_    0.213395 0.621785 0.324011 0.204164
N9    N     N_3   0.867458 0.709065 0.342481 -0.461595
H29   H     H_    0.867426 0.781614 0.364662 0.203371
H30   H     H_    0.895258 0.703904 0.277936 0.218586
N10   N     N_3   0.134332 0.286911 0.654323 -0.467496
H31   H     H_    0.171371 0.242514 0.605897 0.184256
H32   H     H_    0.096373 0.239220 0.690152 0.234186
O13   O     O_3   0.061806 0.728581 0.364344 -0.626849
C45   C     C_3   0.060760 0.806354 0.426824 -0.380580
H33   H     H_    0.103312 0.782692 0.488429 0.161328
H34   H     H_    0.986547 0.836288 0.445659 0.166355
H35   H     H_    0.093688 0.867640 0.395677 0.196011
O14   O     O_3   0.933066 0.308218 0.676482 -0.641572
C46   C     C_3   0.932632 0.354348 0.760992 -0.375133
H36   H     H_    0.891586 0.430106 0.759007 0.161628
H37   H     H_    0.006676 0.358047 0.786638 0.188613
H38   H     H_    0.896916 0.309563 0.809252 0.200110

loop_
_geom_bond_atom_site_label_1
_geom_bond_atom_site_label_2
_ccdc_geom_bond_type
C2    C35   S    
C24   O6    A    
C7    N5    S    
C42   H9    S    
O13   C45   S    
C22   N10   S    
C10   H2    S    
O11   C43   S    
N9    H29   S    
C24   C27   S    
C26   O14   S    
C6    C9    A    
C14   N2    A    
C11   C19   A    
O10   C42   S    
C43   H16   S    
O1    Zn1   S    
C35   C37   A    
C29   C32   S    
C30   C31   S    
N6    H24   S    
O14   C46   S    
C41   H6    S    
C30   O9    S    
C45   H35   S    
C15   C17   A    
C19   C26   A    
C21   C25   A    
C2    O4    A    
C33   C35   A    
C29   O10   S    
C4    C40   A    
C43   H17   S    
C5    C33   A    
C46   H36   S    
N4    H13   S    
N7    H26   S    
C34   N4    S    
O5    Zn1   S    
C41   H7    S    
C42   H10   S    
C3    C39   A    
C38   C40   A    
C46   H37   S    
C23   O7    A    
C43   H15   S    
N3    H11   S    
C20   C25   A    
C44   H18   S    
C4    C6    A    
C44   H19   S    
N6    H23   S    
C1    O1    A    
C21   N9    S    
C2    O2    A    
C41   H5    S    
C6    C34   A    
N3    H12   S    
C24   O8    A    
C29   C30   D    
C11   N7    S    
C23   O5    A    
N5    H21   S    
C12   C20   A    
N8    H28   S    
C17   C18   A    
C16   C18   A    
C23   C28   S    
C45   H34   S    
C12   N2    A    
N5    H22   S    
N10   H32   S    
C13   C15   A    
C46   H38   S    
C14   C16   A    
C11   N1    A    
C3    C4    A    
C13   H3    S    
C33   N3    S    
C14   H4    S    
O7    Zn2   S    
O2    Zn2   S    
C37   O11   S    
O8    Zn1   S    
C16   C22   A    
C27   C32   T    
O12   C44   S    
C12   N8    S    
C28   C31   T    
C3    C5    A    
C44   H20   S    
N9    H30   S    
O3    Zn2   S    
C38   O12   S    
C9    H1    S    
O4    Zn1   S    
C36   C38   A    
C5    C10   A    
C37   C39   A    
C13   N1    A    
C8    N6    S    
C25   O13   S    
O9    C41   S    
N8    H27   S    
C17   C19   A    
C34   C36   A    
C18   C20   A    
C45   H33   S    
C42   H8    S    
C7    C9    A    
C15   C21   A    
N1    Zn1   S    
C8    C10   A    
N10   H31   S    
C22   C26   A    
N2    Zn2   S    
C7    C39   A    
N4    H14   S    
C8    C40   A    
N7    H25   S    
C1    O3    A    
O6    Zn2   S    
C1    C36   S    
