data_mof_unit_64362.cif
_audit_creation_date              2012-12-10T21:37:22-0500
_audit_creation_method            fapswitch 2.2
_symmetry_space_group_name_H-M    P1
_symmetry_Int_Tables_number       1
_space_group_crystal_system       triclinic
_cell_length_a                    16.135056
_cell_length_b                    15.745777
_cell_length_c                    16.919414
_cell_angle_alpha                 90.214274
_cell_angle_beta                  87.594277
_cell_angle_gamma                 92.307061
_cell_volume                      4291.25056693

loop_
_atom_site_label
_atom_site_type_symbol
_atom_type_description
_atom_site_fract_x
_atom_site_fract_y
_atom_site_fract_z
_atom_type_partial_charge
C1    C     C_R   0.511183 0.502369 0.347353 0.924909
C2    C     C_R   0.488818 0.497732 0.652651 0.925043
C3    C     C_R   0.452903 0.538934 0.219968 0.649735
C4    C     C_R   0.547157 0.462399 0.780307 0.650080
C5    C     C_R   0.458687 0.540652 0.138352 -0.210517
C6    C     C_R   0.541586 0.461826 0.861939 -0.210566
C7    C     C_R   0.529886 0.511139 0.097808 0.233525
C8    C     C_R   0.470562 0.492031 0.902266 0.233569
C9    C     C_R   0.597189 0.485810 0.139755 -0.135604
C10   C     C_R   0.403233 0.516984 0.860151 -0.135528
C11   C     C_R   0.591745 0.484244 0.221780 -0.263244
C12   C     C_R   0.408472 0.517415 0.778105 -0.263416
C13   C     C_R   0.237505 0.540357 0.539274 -0.248115
C14   C     C_R   0.762496 0.459649 0.460721 -0.248224
C15   C     C_R   0.150472 0.538614 0.537560 0.532607
C16   C     C_R   0.849529 0.461393 0.462436 0.532599
C17   C     C_R   0.109287 0.483426 0.484172 -0.035020
C18   C     C_R   0.890713 0.516576 0.515828 -0.035026
C19   C     C_R   0.158350 0.432096 0.434641 0.454535
C20   C     C_R   0.841649 0.567900 0.565364 0.454547
C21   C     C_R   0.245138 0.436053 0.438519 0.658830
C22   C     C_R   0.754861 0.563942 0.561486 0.658728
C23   C     C_R   0.500202 0.337857 0.499888 0.890459
C24   C     C_R   0.499798 0.662143 0.500112 0.890202
C25   C     C_3   0.545333 0.973497 0.437599 0.329406
C26   C     C_3   0.454666 0.026502 0.562393 0.329399
C27   C     C_3   0.466964 0.026385 0.432239 -0.390333
C28   C     C_3   0.533035 0.973614 0.567753 -0.390369
C29   C     C_1   0.500587 0.249090 0.499659 -0.085308
C30   C     C_1   0.499413 0.750910 0.500338 -0.085315
C31   C     C_3   0.577461 0.031145 0.503964 0.684016
C32   C     C_3   0.422538 0.968854 0.496028 0.683982
C33   C     C_3   0.499759 0.083155 0.499459 -0.207565
C34   C     C_3   0.500241 0.916845 0.500533 -0.207566
C35   C     C_1   0.500427 0.173903 0.499483 0.181374
C36   C     C_1   0.499573 0.826096 0.500511 0.181316
C37   C     C_R   0.518710 0.508555 0.261992 -0.188091
C38   C     C_R   0.481324 0.492344 0.738056 -0.188047
H1    H     H_    0.439835 0.048982 0.377270 0.239437
H2    H     H_    0.560165 0.951017 0.622721 0.239422
H3    H     H_    0.593286 0.439013 0.893507 0.196323
H4    H     H_    0.406973 0.563686 0.106947 0.196398
H5    H     H_    0.652607 0.464359 0.108691 0.186545
H6    H     H_    0.347922 0.538904 0.891062 0.186588
H7    H     H_    0.643466 0.461757 0.253563 0.205740
H8    H     H_    0.356754 0.539638 0.746152 0.205688
H9    H     H_    0.731076 0.417554 0.419967 0.219768
H10   H     H_    0.268926 0.582456 0.580024 0.219658
N1    N     N_2   0.534844 0.503818 0.014974 -0.149644
N2    N     N_2   0.465604 0.499808 0.985065 -0.149716
N3    N     N_R   0.283080 0.489710 0.490280 -0.209529
N4    N     N_R   0.716920 0.510290 0.509720 -0.209573
N5    N     N_2   0.020697 0.476568 0.477482 0.032020
N6    N     N_2   0.979303 0.523435 0.522519 0.032017
O1    O     O_R   0.577460 0.503680 0.387340 -0.644221
O2    O     O_R   0.422540 0.496320 0.612660 -0.644187
O3    O     O_R   0.438150 0.497080 0.381100 -0.508635
O4    O     O_R   0.561850 0.502920 0.618900 -0.508826
O5    O     O_R   0.569640 0.380080 0.503110 -0.606144
O6    O     O_R   0.430360 0.619920 0.496890 -0.606136
O7    O     O_R   0.430330 0.373470 0.496870 -0.567540
O8    O     O_R   0.569670 0.626530 0.503130 -0.567613
Zn1   Zn    Zn3+2 0.593020 0.504410 0.504170 1.071680
Zn2   Zn    Zn3+2 0.406980 0.495590 0.495830 1.071813
F1    F     F_    0.121911 0.378142 0.382544 -0.518304
F2    F     F_    0.878087 0.621849 0.617466 -0.518338
F3    F     F_    0.291514 0.385977 0.390369 -0.564474
F4    F     F_    0.708484 0.614012 0.609640 -0.564551
Cl1   Cl    Cl    0.606776 0.936886 0.355466 -0.433192
Cl2   Cl    Cl    0.393223 0.063112 0.644525 -0.433078
F5    F     F_    0.342474 0.934645 0.492756 -0.561987
F6    F     F_    0.657526 0.065355 0.507236 -0.561976
F7    F     F_    0.616734 0.433474 0.743018 -0.607209
F8    F     F_    0.383150 0.567194 0.257457 -0.607254
F9    F     F_    0.891843 0.409587 0.412315 -0.555975
F10   F     F_    0.108159 0.590427 0.587674 -0.556002

loop_
_geom_bond_atom_site_label_1
_geom_bond_atom_site_label_2
_ccdc_geom_bond_type
C25   C31   S    
C5    H4    S    
C26   C32   S    
C8    N2    S    
C16   F9    S    
N5    N6    D    
C27   C33   S    
C23   O5    A    
C23   C29   S    
C20   F2    S    
C19   C21   A    
C8    C10   A    
C28   H2    S    
C15   C17   A    
C11   C37   A    
C3    F8    S    
C17   C19   A    
C13   N3    A    
C14   N4    A    
C27   H1    S    
C6    H3    S    
O1    Zn1   S    
O2    Zn2   S    
C18   C20   A    
C1    C37   S    
C25   C34   S    
C15   F10   S    
C28   C34   S    
C21   F3    S    
C32   F5    S    
C9    H5    S    
C10   H6    S    
C7    N1    S    
C12   H8    S    
C5    C7    A    
C6    C8    A    
C32   C34   S    
O7    Zn2   S    
O8    Zn1   S    
C1    O3    A    
C2    C38   S    
C26   C33   S    
C24   O6    A    
C31   C33   S    
C9    C11   A    
C22   F4    S    
C4    F7    S    
C10   C12   A    
C4    C6    A    
C31   F6    S    
C20   C22   A    
C13   C15   A    
C26   Cl2   S    
C14   C16   A    
C11   H7    S    
C25   Cl1   S    
C17   N5    S    
C21   N3    A    
O3    Zn2   S    
C22   N4    A    
O4    Zn1   S    
C7    C9    A    
C24   O8    A    
C27   C32   S    
O5    Zn1   S    
C28   C31   S    
N3    Zn2   S    
C4    C38   A    
C3    C5    A    
N4    Zn1   S    
C13   H10   S    
C2    O4    A    
C14   H9    S    
C25   C27   S    
C29   C35   T    
C26   C28   S    
C30   C36   T    
O6    Zn2   S    
C1    O1    A    
C2    O2    A    
C33   C35   S    
C19   F1    S    
C34   C36   S    
C12   C38   A    
C24   C30   S    
C18   N6    S    
C23   O7    A    
C3    C37   A    
C16   C18   A    
N1    N2    D    
