data_mof_unit_59772.cif
_audit_creation_date              2012-12-10T16:59:14-0500
_audit_creation_method            fapswitch 2.2
_symmetry_space_group_name_H-M    P1
_symmetry_Int_Tables_number       1
_space_group_crystal_system       triclinic
_cell_length_a                    7.788032
_cell_length_b                    8.541758
_cell_length_c                    27.719764
_cell_angle_alpha                 91.859743
_cell_angle_beta                  85.229885
_cell_angle_gamma                 93.473037
_cell_volume                      1833.55654851

loop_
_atom_site_label
_atom_site_type_symbol
_atom_type_description
_atom_site_fract_x
_atom_site_fract_y
_atom_site_fract_z
_atom_type_partial_charge
C1    C     C_R   0.545550 0.794612 0.498791 0.972774
C2    C     C_R   0.528989 0.640735 0.128393 -0.021723
C3    C     C_R   0.504689 0.500220 0.646460 -0.036130
C4    C     C_R   0.495304 0.499744 0.353539 -0.036142
C5    C     C_R   0.537871 0.642657 0.026214 0.047788
C6    C     C_R   0.462122 0.357202 0.973784 0.047787
C7    C     C_R   0.457084 0.357702 0.025036 0.048073
C8    C     C_R   0.542911 0.642158 0.974963 0.048074
C9    C     C_R   0.495292 0.500371 0.050886 0.071931
C10   C     C_R   0.504701 0.499489 0.949112 0.071930
C11   C     C_R   0.573962 0.781167 0.053965 -0.227402
C12   C     C_R   0.454450 0.205388 0.501209 0.972770
C13   C     C_R   0.426028 0.218694 0.946034 -0.227402
C14   C     C_R   0.569573 0.779786 0.103978 -0.139048
C15   C     C_R   0.430412 0.220076 0.896021 -0.139046
C16   C     C_R   0.501422 0.500207 0.593883 0.868235
C17   C     C_R   0.498576 0.499789 0.406116 0.868233
C18   C     C_R   0.585328 0.779951 0.948354 -0.226193
C19   C     C_R   0.414670 0.219908 0.051645 -0.226191
C20   C     C_2   0.569727 0.958008 0.498065 -0.373466
C21   C     C_2   0.430273 0.041992 0.501934 -0.373475
C22   C     C_R   0.551832 0.636263 0.822268 0.505458
C23   C     C_R   0.508848 0.499150 0.897880 -0.049561
C24   C     C_R   0.448154 0.363600 0.177731 0.505458
C25   C     C_R   0.473961 0.361755 0.821151 0.507483
C26   C     C_R   0.526017 0.638110 0.178847 0.507485
C27   C     C_R   0.353100 0.503401 0.726189 -0.098109
C28   C     C_R   0.646874 0.496400 0.273809 -0.098111
C29   C     C_R   0.349849 0.503853 0.676206 -0.208015
C30   C     C_R   0.650131 0.495997 0.323792 -0.208006
C31   C     C_R   0.662602 0.496566 0.667380 -0.210620
C32   C     C_R   0.337396 0.503466 0.332620 -0.210620
C33   C     C_R   0.665360 0.496690 0.717405 -0.097596
C34   C     C_R   0.491140 0.500711 0.102119 -0.049560
C35   C     C_R   0.334632 0.503297 0.282594 -0.097612
C36   C     C_R   0.510678 0.499870 0.746660 0.325057
C37   C     C_R   0.489303 0.500002 0.253339 0.325071
C38   C     C_R   0.550406 0.638907 0.872753 -0.021443
C39   C     C_R   0.449584 0.360954 0.127246 -0.021445
C40   C     C_R   0.588688 0.777972 0.898324 -0.143013
C41   C     C_R   0.411307 0.221889 0.101675 -0.143014
C42   C     C_R   0.470994 0.359128 0.871606 -0.021722
H1    H     H_    0.783691 0.493823 0.645221 0.156499
H2    H     H_    0.233588 0.505929 0.749090 0.135811
H3    H     H_    0.598901 0.888887 0.123465 0.195862
H4    H     H_    0.401080 0.110975 0.876534 0.195864
H5    H     H_    0.606733 0.893903 0.038503 0.141719
H6    H     H_    0.393259 0.105958 0.961496 0.141720
H7    H     H_    0.617254 0.892575 0.964745 0.140883
H8    H     H_    0.382747 0.107284 0.035253 0.140883
H9    H     H_    0.701617 0.008611 0.494351 0.173328
H10   H     H_    0.298383 0.991389 0.505649 0.173321
H11   H     H_    0.975074 0.239069 0.465263 0.171949
H12   H     H_    0.216319 0.506299 0.354781 0.156527
H13   H     H_    0.998618 0.370637 0.421234 0.167742
H14   H     H_    0.025039 0.760940 0.534741 0.171957
H15   H     H_    0.001279 0.629353 0.578764 0.167731
H16   H     H_    0.787143 0.493865 0.733501 0.134069
H17   H     H_    0.212859 0.506184 0.266498 0.134066
H18   H     H_    0.621633 0.886714 0.879733 0.192181
H19   H     H_    0.378363 0.113146 0.120266 0.192179
H20   H     H_    0.773496 0.493243 0.339042 0.157429
H21   H     H_    0.226475 0.506549 0.660956 0.157430
H22   H     H_    0.766375 0.493786 0.250905 0.135804
N1    N     N_R   0.513228 0.499126 0.797853 -0.361887
N2    N     N_R   0.486753 0.500739 0.202145 -0.361891
N3    N     N_2   0.950320 0.457960 0.486880 -0.006845
N4    N     N_2   0.049680 0.542040 0.513120 -0.006844
N5    N     N_3   0.031403 0.349352 0.456110 -0.316354
N6    N     N_3   0.968607 0.650680 0.543879 -0.316354
O1    O     O_R   0.389250 0.738570 0.503220 -0.622639
O2    O     O_2   0.409910 0.230398 0.202313 -0.533786
O3    O     O_2   0.562039 0.771344 0.204543 -0.531234
O4    O     O_2   0.437935 0.228522 0.795455 -0.531241
O5    O     O_R   0.610750 0.261430 0.496780 -0.622631
O6    O     O_R   0.678390 0.711630 0.494810 -0.612683
O7    O     O_R   0.321610 0.288370 0.505190 -0.612706
O8    O     O_R   0.355440 0.513440 0.575450 -0.632008
O9    O     O_R   0.644560 0.486560 0.424550 -0.632016
O10   O     O_R   0.644590 0.486500 0.567040 -0.611986
O11   O     O_R   0.355410 0.513500 0.432960 -0.611967
O12   O     O_2   0.590076 0.769467 0.797688 -0.533792
Zn1   Zn    Zn3+2 0.306940 0.517990 0.505620 0.967483
Zn2   Zn    Zn3+2 0.693060 0.482010 0.494380 0.967485

loop_
_geom_bond_atom_site_label_1
_geom_bond_atom_site_label_2
_ccdc_geom_bond_type
C29   H21   S    
C33   H16   S    
C40   H18   S    
C27   C29   A    
C11   H5    S    
C41   H19   S    
O10   Zn2   S    
H11   N5    S    
O6    Zn2   S    
C39   C41   A    
C1    O1    A    
C23   C42   A    
C31   H1    S    
C22   O12   S    
C35   C37   A    
C5    C11   A    
C20   H9    S    
O9    Zn2   S    
C11   C14   A    
O5    Zn2   S    
O7    Zn1   S    
C22   C38   A    
C17   O9    A    
C26   O3    S    
C35   H17   S    
C25   O4    S    
C3    C29   A    
C18   C40   A    
O8    Zn1   S    
C31   C33   A    
C33   C36   A    
H15   N6    S    
C16   O8    A    
C24   N2    A    
C2    C34   A    
N3    Zn2   S    
C37   N2    S    
C1    O6    A    
C27   H2    S    
C32   H12   S    
O11   Zn1   S    
C14   H3    S    
O1    Zn1   S    
N3    N4    D    
C26   N2    A    
C32   C35   A    
C25   N1    A    
C36   N1    S    
C12   C21   S    
C8    C18   A    
C34   C39   A    
N3    N5    S    
C22   N1    A    
C5    C9    A    
C5    C8    A    
C12   O7    A    
C2    C26   A    
C4    C32   A    
C3    C31   A    
H13   N5    S    
C4    C17   S    
C28   H22   S    
N4    N6    S    
H14   N6    S    
C30   H20   S    
C9    C34   A    
C10   C23   A    
C24   O2    S    
C7    C9    A    
C1    C20   S    
N4    Zn1   S    
C15   C42   A    
C25   C42   A    
C6    C10   A    
C13   H6    S    
C6    C7    A    
C27   C36   A    
C23   C38   A    
C7    C19   A    
C13   C15   A    
C6    C13   A    
C38   C40   A    
C19   H8    S    
C28   C37   A    
C28   C30   A    
C17   O11   A    
C2    C14   A    
C20   C21   D    
C8    C10   A    
C12   O5    A    
C15   H4    S    
C16   O10   A    
C24   C39   A    
C21   H10   S    
C4    C30   A    
C3    C16   S    
C19   C41   A    
C18   H7    S    
