data_mof_unit_5056.cif
_audit_creation_date              2012-12-10T17:49:42-0500
_audit_creation_method            fapswitch 2.2
_symmetry_space_group_name_H-M    P1
_symmetry_Int_Tables_number       1
_space_group_crystal_system       triclinic
_cell_length_a                    10.494572
_cell_length_b                    10.684043
_cell_length_c                    9.909821
_cell_angle_alpha                 89.954218
_cell_angle_beta                  89.615519
_cell_angle_gamma                 91.607006
_cell_volume                      1110.67074843

loop_
_atom_site_label
_atom_site_type_symbol
_atom_type_description
_atom_site_fract_x
_atom_site_fract_y
_atom_site_fract_z
_atom_type_partial_charge
C1    C     C_R   0.508379 0.259828 0.500902 0.840408
C2    C     C_R   0.507928 0.058927 0.628705 0.033197
C3    C     C_R   0.511776 0.125320 0.504371 -0.087636
C4    C     C_R   0.257403 0.499262 0.500527 0.842032
C5    C     C_R   0.495186 0.062525 0.381833 -0.218821
C6    C     C_R   0.476306 0.935398 0.381226 -0.224894
C7    C     C_R   0.463786 0.870969 0.503380 -0.126701
C8    C     C_R   0.334105 0.334560 0.141084 -0.140273
C9    C     C_R   0.252873 0.252802 0.071344 -0.210007
C10   C     C_R   0.252541 0.253262 0.931683 -0.185983
C11   C     C_R   0.333543 0.335396 0.860942 -0.124159
C12   C     C_3   0.960955 0.501743 0.371011 -0.121352
C13   C     C_R   0.418083 0.418720 0.928175 0.087387
C14   C     C_R   0.418265 0.418543 0.072802 0.149361
C15   C     C_R   0.577969 0.577888 0.071509 -0.191779
C16   C     C_R   0.484612 0.738530 0.500679 0.925768
C17   C     C_R   0.578322 0.578055 0.928618 0.436315
C18   C     C_R   0.742577 0.499845 0.499469 0.878263
C19   C     C_3   0.039021 0.495818 0.628884 -0.131507
C20   C     C_3   0.953971 0.394353 0.560908 -0.186145
C21   C     C_3   0.877671 0.498982 0.498276 0.030975
C22   C     C_3   0.959993 0.600403 0.566036 -0.171784
C23   C     C_3   0.040016 0.397165 0.433820 -0.187945
C24   C     C_3   0.045948 0.603237 0.438997 -0.191885
C25   C     C_3   0.208893 0.814449 0.707372 -0.350929
C26   C     C_3   0.122300 0.498721 0.501642 0.031284
C27   C     C_R   0.550269 0.109430 0.753407 -0.161268
C28   C     C_R   0.519816 0.049294 0.874666 -0.217280
C29   C     C_R   0.445438 0.939700 0.873901 -0.177133
C30   C     C_R   0.411069 0.883721 0.751511 0.587758
C31   C     C_R   0.458356 0.936257 0.627639 -0.023613
Cl1   Cl    Cl    0.683755 0.682593 0.845040 -0.638048
H1    H     H_    0.911588 0.309488 0.610267 0.132247
H2    H     H_    0.922295 0.683031 0.619380 0.169449
H3    H     H_    0.088330 0.688191 0.389819 0.135698
H4    H     H_    0.925154 0.504150 0.265882 0.152868
H5    H     H_    0.077623 0.314636 0.380181 0.126714
H6    H     H_    0.498800 0.111042 0.285732 0.170881
H7    H     H_    0.609757 0.193434 0.758989 0.174335
H8    H     H_    0.550163 0.090180 0.969502 0.162791
H9    H     H_    0.211069 0.824668 0.595762 0.151939
H10   H     H_    0.174828 0.901691 0.755679 0.152235
H11   H     H_    0.138696 0.738662 0.732900 0.208164
H12   H     H_    0.414564 0.897650 0.968500 0.152991
H13   H     H_    0.474781 0.887522 0.284842 0.174531
H14   H     H_    0.641510 0.641320 0.125573 0.178811
H15   H     H_    0.327862 0.329118 0.248100 0.200704
H16   H     H_    0.189490 0.188967 0.126220 0.145261
H17   H     H_    0.189076 0.189649 0.877612 0.142256
H18   H     H_    0.327208 0.330538 0.753992 0.199618
H19   H     H_    0.074961 0.493183 0.733964 0.158422
N1    N     N_R   0.498800 0.498800 0.142780 -0.142189
N2    N     N_R   0.498760 0.498720 0.857170 -0.142329
O1    O     O_R   0.500000 0.316780 0.614690 -0.658855
O2    O     O_R   0.499990 0.316750 0.385360 -0.642092
O3    O     O_R   0.313960 0.499980 0.614650 -0.623247
O4    O     O_R   0.313940 0.499960 0.385310 -0.640029
O5    O     O_R   0.500010 0.683250 0.614640 -0.520616
O6    O     O_R   0.500000 0.683220 0.385310 -0.635122
O7    O     O_R   0.686060 0.500040 0.614690 -0.575555
O8    O     O_R   0.686040 0.500020 0.385350 -0.629162
O9    O     O_3   0.328846 0.780288 0.756328 -0.588770
Zn1   Zn    Zn3+2 0.500010 0.500020 0.653130 1.003266
Zn2   Zn    Zn3+2 0.499990 0.499980 0.346870 0.931179

loop_
_geom_bond_atom_site_label_1
_geom_bond_atom_site_label_2
_ccdc_geom_bond_type
C25   H10   S    
C4    O4    A    
O8    Zn2   S    
C4    C26   S    
C1    O1    A    
C18   O8    A    
C29   C30   A    
C6    H13   S    
C13   C14   A    
C8    C9    A    
C12   H4    S    
C18   C21   S    
C11   C13   A    
C9    C10   A    
C12   C24   S    
C19   C20   S    
C20   C23   S    
C30   C31   A    
C10   C11   A    
O2    Zn2   S    
C25   H11   S    
C15   N1    A    
C2    C3    A    
C1    O2    A    
O3    Zn1   S    
C11   H18   S    
C16   O5    A    
C21   C22   S    
C4    O3    A    
N2    Zn1   S    
C12   C23   S    
O6    Zn2   S    
C2    C27   A    
C19   H19   S    
O4    Zn2   S    
O7    Zn1   S    
C20   H1    S    
C17   Cl1   S    
C18   O7    A    
C7    C16   S    
C24   C26   S    
C6    C7    A    
C13   N2    A    
C25   O9    S    
C30   O9    S    
C29   H12   S    
C5    C6    A    
C22   H2    S    
C22   C24   S    
C8    H15   S    
C24   H3    S    
C7    C31   A    
O1    Zn1   S    
C28   H8    S    
C17   N2    A    
C27   C28   A    
C19   C22   S    
C5    H6    S    
C20   C21   S    
C9    H16   S    
N1    Zn2   S    
C23   C26   S    
C25   H9    S    
O5    Zn1   S    
C15   C17   A    
C19   C26   S    
C28   C29   A    
C8    C14   A    
C15   H14   S    
C3    C5    A    
C23   H5    S    
C10   H17   S    
C12   C21   S    
C14   N1    A    
C27   H7    S    
C2    C31   A    
C1    C3    S    
C16   O6    A    
