data_mof_unit_16838.cif
_audit_creation_date              2012-12-10T17:43:37-0500
_audit_creation_method            fapswitch 2.2
_symmetry_space_group_name_H-M    P1
_symmetry_Int_Tables_number       1
_space_group_crystal_system       triclinic
_cell_length_a                    14.963919
_cell_length_b                    10.625267
_cell_length_c                    9.918607
_cell_angle_alpha                 89.861682
_cell_angle_beta                  89.84924
_cell_angle_gamma                 91.951577
_cell_volume                      1576.09009006

loop_
_atom_site_label
_atom_site_type_symbol
_atom_type_description
_atom_site_fract_x
_atom_site_fract_y
_atom_site_fract_z
_atom_type_partial_charge
C1    C     C_R   0.502192 0.260753 0.500201 0.836975
C2    C     C_R   0.906165 0.577463 0.583042 0.126726
C3    C     C_R   0.956457 0.321820 0.339481 -0.223212
C4    C     C_R   0.048938 0.328944 0.340291 -0.219206
C5    C     C_R   0.094016 0.417919 0.420402 0.128599
C6    C     C_R   0.046910 0.501341 0.501987 0.038310
C7    C     C_R   0.093249 0.591768 0.583884 0.095655
C8    C     C_R   0.043676 0.673289 0.664414 -0.230463
C9    C     C_R   0.951223 0.665756 0.664035 -0.211139
C10   C     C_R   0.185978 0.423115 0.420656 -0.299801
C11   C     C_R   0.231990 0.509983 0.501210 -0.089485
C12   C     C_R   0.327324 0.503726 0.500354 0.871141
C13   C     C_R   0.187579 0.597634 0.582391 0.027035
C14   C     C_R   0.650897 0.137870 0.627204 -0.199554
C15   C     C_R   0.720880 0.075262 0.687373 -0.131227
C16   C     C_R   0.721112 0.944346 0.686361 -0.144825
C17   C     C_R   0.651341 0.875704 0.625180 -0.191757
C18   C     C_R   0.579461 0.937704 0.564571 0.104020
C19   C     C_R   0.579281 0.069575 0.565310 0.093866
C20   C     C_R   0.508150 0.128745 0.500316 -0.087320
C21   C     C_R   0.440853 0.061624 0.432365 -0.210264
C22   C     C_R   0.440906 0.933048 0.432109 -0.216358
C23   C     C_R   0.502413 0.739450 0.499845 0.858023
C24   C     C_R   0.508394 0.872060 0.499475 -0.098956
C25   C     C_R   0.382473 0.334678 0.140807 -0.149931
C26   C     C_R   0.324452 0.253342 0.071060 -0.204123
C27   C     C_R   0.324505 0.253268 0.931472 -0.190387
C28   C     C_R   0.382557 0.334565 0.860817 -0.165499
C29   C     C_R   0.442126 0.418476 0.928120 0.165146
C30   C     C_R   0.442111 0.418538 0.072671 0.176050
C31   C     C_R   0.555326 0.578087 0.071036 -0.126758
C32   C     C_R   0.555295 0.578080 0.927955 -0.116106
C33   C     C_R   0.672700 0.495615 0.499705 0.864521
C34   C     C_R   0.814253 0.572731 0.582271 -0.300283
C35   C     C_R   0.768056 0.487876 0.499518 -0.103317
C36   C     C_R   0.812420 0.400113 0.418345 0.090867
C37   C     C_R   0.906834 0.404418 0.418716 0.094100
C38   C     C_R   0.953223 0.494389 0.501074 0.027359
H1    H     H_    0.778066 0.637663 0.644622 0.146125
H2    H     H_    0.654480 0.239556 0.627985 0.152701
H3    H     H_    0.775450 0.128555 0.733873 0.137625
H4    H     H_    0.775845 0.895825 0.732093 0.124605
H5    H     H_    0.655007 0.774405 0.624145 0.139382
H6    H     H_    0.387235 0.880696 0.381745 0.149206
H7    H     H_    0.600604 0.641845 0.124366 0.149838
H8    H     H_    0.378628 0.329032 0.247744 0.195501
H9    H     H_    0.279217 0.189937 0.125856 0.137555
H10   H     H_    0.279305 0.189786 0.877419 0.146362
H11   H     H_    0.378649 0.329141 0.753865 0.206943
H12   H     H_    0.600480 0.641932 0.873847 0.145287
H13   H     H_    0.925417 0.251215 0.275278 0.159181
H14   H     H_    0.085390 0.264449 0.277874 0.142162
H15   H     H_    0.222429 0.357165 0.359737 0.141926
H16   H     H_    0.074717 0.743432 0.729150 0.150274
H17   H     H_    0.914780 0.729761 0.727042 0.137549
H18   H     H_    0.387197 0.109048 0.381956 0.135983
N1    N     N_R   0.499150 0.498800 0.142780 -0.122187
N2    N     N_R   0.499120 0.498720 0.857170 -0.120740
O1    O     O_R   0.500000 0.316780 0.614690 -0.635743
O2    O     O_R   0.499990 0.316750 0.385360 -0.633374
O3    O     O_R   0.367850 0.499980 0.614680 -0.638749
O4    O     O_R   0.367840 0.499960 0.385350 -0.635807
O5    O     O_R   0.500010 0.683250 0.614640 -0.627847
O6    O     O_R   0.500000 0.683220 0.385310 -0.608155
O7    O     O_R   0.632160 0.500040 0.614650 -0.629830
O8    O     O_R   0.632150 0.500020 0.385320 -0.609645
Zn1   Zn    Zn3+2 0.500010 0.500020 0.653130 0.919452
Zn2   Zn    Zn3+2 0.499990 0.499980 0.346870 0.931967
C39   C     C_3   0.759485 0.300139 0.338248 -0.395668
C40   C     C_3   0.752442 0.335830 0.189220 -0.802256
H19   H     H_    0.718684 0.426545 0.177525 0.275334
H20   H     H_    0.819393 0.345091 0.141355 0.240791
H21   H     H_    0.712653 0.261771 0.135172 0.244145
H22   H     H_    0.789661 0.206713 0.349232 0.192000
H23   H     H_    0.691013 0.284326 0.378943 0.210453
C41   C     C_3   0.240739 0.698532 0.660972 -0.406173
C42   C     C_3   0.251422 0.660955 0.809771 -0.305839
C43   C     C_3   0.316580 0.750961 0.882495 -0.853185
H24   H     H_    0.383867 0.748871 0.835138 0.281959
H25   H     H_    0.292272 0.848531 0.878736 0.251617
H26   H     H_    0.322422 0.721803 0.989635 0.247559
H27   H     H_    0.185841 0.661190 0.862242 0.207627
H28   H     H_    0.276591 0.564165 0.817511 0.247543
H29   H     H_    0.307621 0.716684 0.614934 0.209145
H30   H     H_    0.208916 0.791057 0.652662 0.178974

loop_
_geom_bond_atom_site_label_1
_geom_bond_atom_site_label_2
_ccdc_geom_bond_type
C27   H10   S    
O8    Zn2   S    
C35   C36   A    
C32   N2    A    
C41   H29   S    
C33   O7    A    
C7    C8    A    
C42   C43   S    
C26   C27   A    
C29   C30   A    
C4    H14   S    
C18   C24   A    
O6    Zn2   S    
C36   C37   A    
C34   C35   A    
C1    O1    A    
C5    C6    A    
C43   H25   S    
C42   H28   S    
C15   C16   A    
C30   N1    A    
C18   C19   A    
C10   H15   S    
C2    C38   A    
O1    Zn1   S    
C22   H6    S    
C19   C20   A    
C8    C9    A    
O7    Zn1   S    
C23   C24   S    
C6    C38   A    
C40   H19   S    
C9    H17   S    
C2    C34   A    
C23   O5    A    
C21   C22   A    
C33   O8    A    
O5    Zn1   S    
C34   H1    S    
C41   C42   S    
C15   H3    S    
C1    O2    A    
C8    H16   S    
C3    H13   S    
C43   H24   S    
C16   C17   A    
C25   C26   A    
C17   H5    S    
C37   C38   A    
C12   O4    A    
C28   H11   S    
O3    Zn1   S    
C31   C32   A    
C13   C41   S    
C40   H21   S    
C17   C18   A    
C39   H22   S    
C20   C21   A    
C32   H12   S    
C26   H9    S    
C23   O6    A    
C22   C24   A    
N1    Zn2   S    
C3    C4    A    
C16   H4    S    
C36   C39   S    
C25   C30   A    
C28   C29   A    
C1    C20   S    
C14   C19   A    
C4    C5    A    
C21   H18   S    
C11   C12   S    
C6    C7    A    
O4    Zn2   S    
C31   N1    A    
C5    C10   A    
C12   O3    A    
C11   C13   A    
C43   H26   S    
C42   H27   S    
C25   H8    S    
C33   C35   S    
C39   H23   S    
C39   C40   S    
C10   C11   A    
C14   H2    S    
N2    Zn1   S    
C7    C13   A    
C29   N2    A    
O2    Zn2   S    
C31   H7    S    
C27   C28   A    
C14   C15   A    
C40   H20   S    
C2    C9    A    
C41   H30   S    
C3    C37   A    
