data_mof_unit_50847.cif
_audit_creation_date              2013-03-05T15:40:10-0500
_audit_creation_method            fapswitch 2.2
_symmetry_space_group_name_H-M    P1
_symmetry_Int_Tables_number       1
_space_group_crystal_system       triclinic
_cell_length_a                    7.537127
_cell_length_b                    8.687605
_cell_length_c                    12.947743
_cell_angle_alpha                 87.231238
_cell_angle_beta                  79.173613
_cell_angle_gamma                 103.329391
_cell_volume                      806.558595608

loop_
_atom_site_label
_atom_site_type_symbol
_atom_site_description
_atom_site_fract_x
_atom_site_fract_y
_atom_site_fract_z
_atom_type_partial_charge
O1    O     O_R   0.621060 0.286250 0.492350 -0.560923
O2    O     O_R   0.378940 0.713750 0.507650 -0.559141
O3    O     O_R   0.306310 0.256580 0.512240 -0.582208
O4    O     O_R   0.693690 0.743420 0.487760 -0.582077
C1    C     C_R   0.452413 0.199744 0.503511 0.854013
C2    C     C_R   0.547588 0.800256 0.496486 0.855367
O5    O     O_R   0.631800 0.512400 0.642670 -0.558915
O6    O     O_R   0.368200 0.487600 0.357330 -0.560238
O7    O     O_R   0.317060 0.482730 0.662570 -0.562474
O8    O     O_R   0.682940 0.517270 0.337430 -0.563618
C3    C     C_R   0.466207 0.495367 0.701100 0.806029
C4    C     C_R   0.533768 0.504419 0.298892 0.800402
Cu1   Cu    Cu3+1 0.686350 0.517570 0.488220 1.098904
Cu2   Cu    Cu3+1 0.313650 0.482430 0.511780 1.100105
N1    N     N_2   0.033570 0.455950 0.529530 0.024054
N2    N     N_2   0.966430 0.544050 0.470470 0.025577
C5    C     C_R   0.553906 0.511710 0.185071 -0.063797
C6    C     C_R   0.446019 0.486914 0.814900 -0.112341
C7    C     C_R   0.257867 0.393735 0.989094 0.132564
C8    C     C_R   0.742752 0.602088 0.010172 0.162024
C9    C     C_R   0.276053 0.408509 0.880183 -0.153371
C10   C     C_R   0.724301 0.588774 0.119622 -0.212906
C11   C     C_R   0.598512 0.554059 0.858031 -0.174940
C12   C     C_R   0.401298 0.443979 0.142170 -0.206409
C13   C     C_R   0.586166 0.538474 0.966786 0.121612
C14   C     C_R   0.413783 0.457807 0.033352 0.067118
H1    H     H_    0.273432 0.379989 0.194520 0.188309
H2    H     H_    0.726412 0.619572 0.806162 0.213304
H3    H     H_    0.842523 0.640390 0.153778 0.192055
H4    H     H_    0.157329 0.356269 0.846562 0.210445
C15   C     C_2   0.426293 0.031223 0.505881 -0.306368
C16   C     C_2   0.573711 0.968780 0.494114 -0.309140
H5    H     H_    0.284674 0.958268 0.517617 0.206930
H6    H     H_    0.715330 0.041735 0.482381 0.205273
N3    N     N_3   0.080050 0.312957 0.052215 -0.580702
H7    H     H_    0.095858 0.214937 0.096454 0.232700
H8    H     H_    0.032522 0.390855 0.103458 0.252130
N4    N     N_3   0.918968 0.680325 0.943265 -0.575179
H9    H     H_    0.014495 0.731505 0.988427 0.230787
H10   H     H_    0.972800 0.592860 0.904833 0.253185
N5    N     N_R   0.919392 0.389810 0.625494 0.261493
O9    O     O_R   0.835558 0.239641 0.636233 -0.366829
O10   O     O_R   0.943512 0.460010 0.709948 -0.389574
N6    N     N_R   0.080694 0.610400 0.374572 0.261485
O11   O     O_R   0.164295 0.760614 0.363958 -0.373440
O12   O     O_R   0.056761 0.540354 0.290044 -0.401278

loop_
_geom_bond_atom_site_label_1
_geom_bond_atom_site_label_2
_geom_bond_distance
_ccdc_geom_bond_type
C4    C5    1.449631 S    
C2    C16   1.429568 S    
O7    Cu2   1.957501 S    
C15   H5    1.087181 S    
C3    C6    1.449067 S    
C10   H3    1.083324 S    
C6    C9    1.398134 A    
C8    N4    1.439126 S    
C9    H4    1.083689 S    
N2    N6    1.384166 S    
C5    C10   1.398432 A    
C12   H1    1.080939 S    
O6    C4    1.304479 A    
C11   C13   1.391538 A    
C7    N3    1.433895 S    
C11   H2    1.082190 S    
O5    C3    1.304333 A    
N5    O10   1.299498 A    
C12   C14   1.391777 A    
O2    C2    1.296704 A    
O3    Cu2   1.949773 S    
O8    C4    1.297620 A    
O1    C1    1.296697 A    
N1    N2    1.301558 D    
N4    H10   1.045212 S    
N6    O12   1.299450 A    
O7    C3    1.297569 A    
N4    H9    1.045800 S    
O2    Cu2   1.951235 S    
C1    C15   1.429558 S    
C5    C12   1.391873 A    
O1    Cu1   1.951235 S    
C8    C13   1.411451 A    
C6    C11   1.391624 A    
O5    Cu1   1.960641 S    
N6    O11   1.299974 A    
N1    N5    1.384169 S    
O4    C2    1.295595 A    
N5    O9    1.299984 A    
Cu1   N2    2.037343 S    
N3    H8    1.045181 S    
O4    Cu1   1.949772 S    
C7    C14   1.414707 A    
Cu2   N1    2.037344 S    
O6    Cu2   1.960640 S    
C7    C9    1.387656 A    
C13   C14   1.422386 A    
Cu1   Cu2   2.711253 S    
O8    Cu1   1.957499 S    
C15   C16   1.332055 D    
C8    C10   1.394160 A    
O3    C1    1.295597 A    
N3    H7    1.045341 S    
C16   H6    1.087188 S    
