data_mof_unit_51285.cif
_audit_creation_date              2012-12-11T20:19:21-0500
_audit_creation_method            fapswitch 2.2
_symmetry_space_group_name_H-M    P1
_symmetry_Int_Tables_number       1
_space_group_crystal_system       triclinic
_cell_length_a                    8.34302
_cell_length_b                    17.396333
_cell_length_c                    22.858892
_cell_angle_alpha                 100.126656
_cell_angle_beta                  90.43418
_cell_angle_gamma                 98.313507
_cell_volume                      3229.83289006

loop_
_atom_site_label
_atom_site_type_symbol
_atom_type_description
_atom_site_fract_x
_atom_site_fract_y
_atom_site_fract_z
_atom_type_partial_charge
Ba1   Ba    Ba6+2 0.857050 0.537370 0.474190 1.640855
Ba2   Ba    Ba6+2 0.332790 0.462700 0.525820 1.627121
C1    C     C_3   0.654822 0.816179 0.318903 -0.364394
C2    C     C_3   0.624826 0.736973 0.339410 0.378320
C3    C     C_3   0.596763 0.337053 0.334149 0.243225
C4    C     C_3   0.561658 0.325165 0.267380 -0.394362
C5    C     C_3   0.956345 0.272131 0.668581 0.301982
C6    C     C_3   0.947733 0.245115 0.728285 -0.337839
C7    C     C_3   0.484827 0.266820 0.654775 0.348320
C8    C     C_3   0.471295 0.189199 0.677513 -0.375101
C9    C     C_R   0.342436 0.515609 0.332493 -0.280322
C10   C     C_R   0.086232 0.580694 0.947512 -0.027045
C11   C     C_R   0.041934 0.579009 0.887113 0.586956
C12   C     C_3   0.156065 0.756831 0.328525 0.327943
C13   C     C_R   0.935570 0.441255 0.875645 0.590107
C14   C     C_R   0.980848 0.440688 0.935479 -0.025075
C15   C     C_R   0.055847 0.510961 0.971661 -0.051238
C16   C     C_R   0.159418 0.650625 0.984537 -0.075552
C17   C     C_R   0.201188 0.651356 0.044143 -0.077643
C18   C     C_R   0.172828 0.582005 0.068764 -0.023549
C19   C     C_R   0.100430 0.511492 0.032246 -0.051341
C20   C     C_R   0.952713 0.371324 0.960036 -0.076487
C21   C     C_R   0.998412 0.371631 0.019152 -0.075644
C22   C     C_R   0.072521 0.441475 0.056054 -0.022052
C23   C     C_3   0.082492 0.777645 0.273348 -0.331095
C24   C     C_R   0.120468 0.442567 0.115946 0.584754
C25   C     C_R   0.215179 0.581717 0.128985 0.585921
C26   C     C_2   0.758646 0.492606 0.772031 -0.092390
C27   C     C_3   0.706438 0.496345 0.708679 -0.011323
C28   C     C_1   0.998277 0.523915 0.688056 0.025503
C29   C     C_2   0.042356 0.527708 0.744825 -0.100483
C30   C     C_2   0.917860 0.509413 0.790007 0.223608
C31   C     C_R   0.402655 0.544049 0.234293 -0.101316
C32   C     C_R   0.451670 0.545821 0.293565 -0.037586
C33   C     C_R   0.184918 0.482022 0.313355 0.022473
C34   C     C_3   0.238561 0.699881 0.601651 0.302548
C35   C     C_R   0.134000 0.480844 0.254036 -0.103803
C36   C     C_R   0.242169 0.512457 0.213663 0.227404
C37   C     C_2   0.849733 0.490344 0.668279 -0.191959
C38   C     C_2   0.446563 0.719407 0.480715 -0.241329
C39   C     C_3   0.368693 0.769972 0.444632 -0.072917
C40   C     C_2   0.421511 0.857198 0.464096 -0.099658
C41   C     C_2   0.552679 0.884030 0.500873 0.019602
C42   C     C_2   0.637556 0.825395 0.524780 -0.142210
C43   C     C_1   0.575662 0.749323 0.515952 0.058718
C44   C     C_R   0.781789 0.139724 0.531325 -0.137873
C45   C     C_3   0.301646 0.787453 0.620598 -0.407115
C46   C     C_R   0.862704 0.212857 0.522794 0.030271
C47   C     C_R   0.623931 0.235186 0.469681 0.030828
C48   C     C_R   0.544048 0.161292 0.477694 -0.116774
C49   C     C_R   0.625426 0.111067 0.505710 0.020079
C50   C     C_2   0.626980 0.968831 0.511889 -0.083437
C51   C     C_2   0.545012 0.028888 0.506026 -0.085394
C52   C     C_R   0.788075 0.257471 0.488205 -0.205031
C53   C     C_3   0.137065 0.297368 0.318096 0.239800
C54   C     C_3   0.079921 0.265839 0.253877 -0.395078
C55   C     C_3   0.813645 0.726430 0.661545 0.349576
C56   C     C_3   0.799795 0.715633 0.726344 -0.336944
H1    H     H_    0.664864 0.746363 0.386934 0.053741
H2    H     H_    0.417217 0.795453 0.646870 0.126668
H3    H     H_    0.322083 0.815897 0.581076 0.081078
H4    H     H_    0.212393 0.817299 0.648254 0.124647
H5    H     H_    0.164874 0.247014 0.338240 0.091092
H6    H     H_    0.250954 0.339045 0.319846 0.021796
H7    H     H_    0.973608 0.218918 0.252200 0.117052
H8    H     H_    0.178931 0.240719 0.228481 0.106755
H9    H     H_    0.044441 0.313962 0.232991 0.151655
H10   H     H_    0.905352 0.690782 0.641926 0.069600
H11   H     H_    0.715126 0.753500 0.749729 0.125335
H12   H     H_    0.920569 0.730948 0.749675 0.109087
H13   H     H_    0.752787 0.653428 0.728470 0.089227
H14   H     H_    0.492698 0.714856 0.334124 -0.088582
H15   H     H_    0.581121 0.857622 0.344835 0.062905
H16   H     H_    0.593414 0.400116 0.353294 0.071759
H17   H     H_    0.717503 0.320240 0.339327 0.076874
H18   H     H_    0.453712 0.351651 0.257535 0.092824
H19   H     H_    0.666503 0.354718 0.245955 0.103219
H20   H     H_    0.542263 0.261253 0.247922 0.131071
H21   H     H_    0.620398 0.808646 0.270982 0.127024
H22   H     H_    0.169690 0.772725 0.236902 0.115888
H23   H     H_    0.993905 0.337205 0.676346 0.052507
H24   H     H_    0.833541 0.256731 0.647017 -0.029254
H25   H     H_    0.064550 0.265593 0.753742 0.134812
H26   H     H_    0.848893 0.269742 0.753929 0.156370
H27   H     H_    0.921513 0.179673 0.721598 0.106715
H28   H     H_    0.567316 0.263991 0.616765 -0.010320
H29   H     H_    0.362893 0.273722 0.639088 0.123540
H30   H     H_    0.424228 0.139661 0.641125 0.088700
H31   H     H_    0.386810 0.189832 0.714857 0.136434
H32   H     H_    0.175175 0.693837 0.318361 0.021793
H33   H     H_    0.592059 0.179810 0.693123 0.110429
H34   H     H_    0.974915 0.316747 0.035947 0.120613
H35   H     H_    0.895584 0.316230 0.933469 0.119759
H36   H     H_    0.256744 0.706625 0.070896 0.117928
H37   H     H_    0.488869 0.567603 0.204429 0.103796
H38   H     H_    0.184213 0.705342 0.967575 0.121431
H39   H     H_    0.169365 0.542461 0.758730 0.110743
H40   H     H_    0.666447 0.481179 0.803945 0.093294
H41   H     H_    0.011198 0.455304 0.239340 0.109940
H42   H     H_    0.381959 0.516431 0.377840 0.077257
H43   H     H_    0.274437 0.795786 0.338397 -0.033937
H44   H     H_    0.415387 0.016599 0.496358 0.078043
H45   H     H_    0.754767 0.845649 0.547052 0.074487
H46   H     H_    0.841395 0.106098 0.558071 0.072150
H47   H     H_    0.756168 0.980601 0.522147 0.078632
H48   H     H_    0.363303 0.896656 0.442054 0.058112
H49   H     H_    0.410150 0.656009 0.469519 0.069630
H50   H     H_    0.969850 0.736549 0.258327 0.166047
H51   H     H_    0.055627 0.839206 0.282826 0.097458
H52   H     H_    0.338031 0.669077 0.582367 0.033674
H53   H     H_    0.139768 0.692627 0.567659 0.084805
N1    N     N_R   0.966750 0.509807 0.851799 -0.425198
N2    N     N_R   0.190666 0.512280 0.152122 -0.422493
O1    O     O_2   0.889310 0.456460 0.358460 -0.470832
O2    O     O_3   0.661637 0.698154 0.632556 -0.625686
O3    O     O_3   0.052952 0.769651 0.376661 -0.568425
O4    O     O_2   0.300380 0.543560 0.641570 -0.442922
O5    O     O_3   0.059830 0.542790 0.570460 -0.518051
O6    O     O_3   0.515070 0.399440 0.599070 -0.485222
O7    O     O_3   0.180239 0.669924 0.651559 -0.633506
O8    O     O_3   0.612780 0.404640 0.465950 -0.496203
O9    O     O_3   0.096040 0.358680 0.568240 -0.503314
O10   O     O_2   0.201994 0.220750 0.530751 -0.488747
O11   O     O_3   0.069319 0.233771 0.633938 -0.606369
O12   O     O_3   0.129890 0.457280 0.429550 -0.472620
O13   O     O_3   0.576930 0.595420 0.534060 -0.470986
O14   O     O_2   0.340570 0.306450 0.462190 -0.438573
O15   O     O_3   0.483096 0.287427 0.360499 -0.659167
O16   O     O_2   0.360722 0.437963 0.700749 -0.486625
O17   O     O_3   0.545499 0.329439 0.700729 -0.606881
O18   O     O_2   0.068492 0.639468 0.866257 -0.595808
O19   O     O_2   0.868886 0.380439 0.844684 -0.606937
O20   O     O_2   0.101813 0.381010 0.135499 -0.616516
O21   O     O_2   0.272855 0.643632 0.160926 -0.614544
O22   O     O_3   0.674650 0.600620 0.400940 -0.477713
O23   O     O_2   0.786633 0.542659 0.294979 -0.477923
O24   O     O_3   0.012470 0.329746 0.350074 -0.651868
O25   O     O_3   0.714115 0.684096 0.305181 -0.581328
O26   O     O_2   0.849130 0.693580 0.537840 -0.484330
O27   O     O_3   0.093680 0.641380 0.431770 -0.468371
O28   O     O_2   0.061105 0.782632 0.493264 -0.489604
P1    P     P_3+3 0.055640 0.433080 0.366120 0.976195
P2    P     P_3+3 0.671420 0.681950 0.554390 0.975844
P3    P     P_3+3 0.143944 0.743078 0.437982 0.964297
P4    P     P_3+3 0.134070 0.566990 0.633890 0.986866
P5    P     P_3+3 0.058428 0.255555 0.562360 0.933947
P6    P     P_3+3 0.656184 0.590793 0.323282 0.978504
P7    P     P_3+3 0.517441 0.306368 0.438022 0.931022
P8    P     P_3+3 0.527507 0.419074 0.677892 0.987224
C57   C     C_3   0.866234 0.814209 0.659472 -0.385567
H54   H     H_    0.760565 0.846716 0.665373 0.106521
H55   H     H_    0.958965 0.841638 0.695024 0.088412
H56   H     H_    0.922236 0.821014 0.616585 0.111447
H57   H     H_    0.784652 0.841810 0.326018 0.132340
C58   C     C_3   0.822061 0.440523 0.608214 -0.273819
H58   H     H_    0.928047 0.435735 0.586375 0.147907
H59   H     H_    0.778684 0.377918 0.610473 0.035305
H60   H     H_    0.751988 0.469588 0.579364 0.154481
H61   H     H_    0.420574 0.142134 0.460673 0.084285
C59   C     C_3   0.888823 0.323903 0.466076 -0.231378
H62   H     H_    0.892976 0.379972 0.496762 0.122685
H63   H     H_    0.012735 0.310456 0.456233 0.144867
H64   H     H_    0.834856 0.332755 0.424927 0.094519

loop_
_geom_bond_atom_site_label_1
_geom_bond_atom_site_label_2
_ccdc_geom_bond_type
O6    P8    S    
C53   C54   S    
C58   H59   S    
C6    H25   S    
C16   H38   S    
C39   C40   S    
C17   C18   A    
C35   H41   S    
C5    O11   S    
O24   P1    S    
C1    H21   S    
C45   H4    S    
Ba2   O5    S    
C5    C6    S    
C55   O2    S    
C7    O17   S    
C42   C43   D    
Ba2   P4    S    
C46   C52   A    
C8    H30   S    
O1    P1    D    
C26   C27   S    
C33   C35   A    
C22   C24   A    
C16   C17   A    
C11   N1    Am   
C28   C29   D    
C54   H8    S    
C41   C50   S    
C4    H20   S    
C54   H7    S    
C23   H22   S    
O13   P2    S    
C46   P5    S    
C2    H1    S    
C34   C45   S    
O4    P4    D    
Ba1   Ba2   S    
C3    H16   S    
C12   H32   S    
Ba1   P1    S    
C45   H2    S    
O3    P3    S    
O26   P2    D    
Ba2   O4    S    
C13   O19   D    
C8    H31   S    
C14   C15   A    
C57   H56   S    
C53   H5    S    
C10   C15   A    
C21   C22   A    
C7    C8    S    
O25   P6    S    
Ba1   O26   S    
C23   H51   S    
O14   P7    D    
Ba2   O14   S    
O9    P5    S    
O7    P4    S    
C47   C52   A    
C53   H6    S    
C58   H60   S    
C52   C59   S    
C34   H53   S    
C1    H15   S    
C31   H37   S    
C20   C21   A    
C42   H45   S    
C48   C49   A    
C44   C46   A    
Ba2   O9    S    
C38   C43   D    
O2    P2    S    
O23   P6    D    
C59   H64   S    
C45   H3    S    
C26   C30   D    
Ba1   O13   S    
C39   P3    S    
O28   P3    D    
C36   N2    S    
O15   P7    S    
C4    H19   S    
O11   P5    S    
C44   C49   A    
C6    H27   S    
C1    H57   S    
C15   C19   A    
C47   P7    S    
C37   C58   S    
C9    H42   S    
C49   C51   S    
C59   H63   S    
C3    H17   S    
C41   C42   S    
O16   P8    D    
C35   C36   A    
Ba1   P2    S    
C7    H28   S    
C32   P6    S    
C29   C30   S    
O10   P5    D    
C51   H44   S    
C55   C57   S    
C27   C37   S    
O17   P8    S    
C31   C32   A    
C11   O18   D    
O8    P7    S    
C10   C11   A    
C40   H48   S    
C17   H36   S    
C38   H49   S    
Ba2   O13   S    
C38   C39   S    
C5    H23   S    
C8    H33   S    
O22   P6    S    
C34   H52   S    
C20   H35   S    
C57   H55   S    
O12   P1    S    
C40   C41   D    
C55   H10   S    
C1    C2    S    
C25   N2    Am   
C2    H14   S    
C50   C51   D    
C28   P4    S    
Ba2   O8    S    
C26   H40   S    
C14   C20   A    
C30   N1    S    
C6    H26   S    
C25   O21   D    
C13   N1    Am   
O5    P4    S    
C9    C32   A    
C56   H12   S    
O27   P3    S    
Ba1   O12   S    
C12   H43   S    
C50   H47   S    
Ba2   O6    S    
C56   H11   S    
C4    H18   S    
C18   C25   A    
C48   H61   S    
C54   H9    S    
C31   C36   A    
C53   O24   S    
C59   H62   S    
C9    C33   A    
C24   N2    Am   
C24   O20   D    
C7    H29   S    
C55   C56   S    
C3    C4    S    
C44   H46   S    
C12   O3    S    
C3    O15   S    
C28   C37   D    
Ba1   O5    S    
C29   H39   S    
C12   C23   S    
C34   O7    S    
Ba1   O8    S    
C27   P8    S    
C56   H13   S    
C33   P1    S    
C2    O25   S    
Ba2   O12   S    
C5    H24   S    
C18   C19   A    
C47   C48   A    
Ba1   O1    S    
C19   C22   A    
C10   C16   A    
C58   H58   S    
C43   P2    S    
C21   H34   S    
Ba1   O27   S    
Ba1   O22   S    
C13   C14   A    
C23   H50   S    
C57   H54   S    
