data_mof_unit_13108.cif
_audit_creation_date              2012-12-10T17:21:39-0500
_audit_creation_method            fapswitch 2.2
_symmetry_space_group_name_H-M    P1
_symmetry_Int_Tables_number       1
_space_group_crystal_system       triclinic
_cell_length_a                    10.730748
_cell_length_b                    10.795811
_cell_length_c                    9.608933
_cell_angle_alpha                 90.251779
_cell_angle_beta                  89.930551
_cell_angle_gamma                 92.275246
_cell_volume                      1112.27836907

loop_
_atom_site_label
_atom_site_type_symbol
_atom_type_description
_atom_site_fract_x
_atom_site_fract_y
_atom_site_fract_z
_atom_type_partial_charge
C1    C     C_R   0.497090 0.262606 0.499547 0.796446
C2    C     C_3   0.878315 0.501468 0.501118 0.151132
C3    C     C_3   0.933084 0.617637 0.424842 -0.404543
C4    C     C_3   0.923775 0.383930 0.426655 -0.345421
C5    C     C_R   0.298496 0.122879 0.642889 -0.185159
C6    C     C_R   0.205291 0.055570 0.714223 -0.144510
C7    C     C_R   0.205620 0.926839 0.716869 -0.140703
C8    C     C_R   0.298977 0.864648 0.647864 -0.183545
C9    C     C_R   0.395232 0.930963 0.575815 0.105992
C10   C     C_R   0.395606 0.061991 0.573822 0.093295
C11   C     C_R   0.490053 0.128032 0.497860 -0.159999
C12   C     C_R   0.260060 0.500410 0.500314 0.732061
C13   C     C_R   0.577194 0.064225 0.417732 -0.027103
C14   C     C_R   0.575874 0.936317 0.420620 -0.249505
C15   C     C_R   0.488401 0.870042 0.500826 -0.108160
C16   C     C_R   0.665652 0.664174 0.144303 -0.150616
C17   C     C_R   0.746579 0.744459 0.072493 -0.213940
C18   C     C_R   0.746361 0.744694 0.929107 -0.208340
C19   C     C_R   0.665177 0.664675 0.856695 -0.147416
C20   C     C_R   0.581231 0.580865 0.925497 0.211447
C21   C     C_R   0.581338 0.580706 0.074983 0.218821
C22   C     C_R   0.422537 0.423264 0.073581 -0.054539
C23   C     C_R   0.495664 0.736841 0.500347 0.775638
C24   C     C_R   0.422569 0.423293 0.925748 -0.059722
C25   C     C_R   0.740087 0.500878 0.500200 0.740287
C26   C     C_3   0.071492 0.502898 0.652896 -0.372330
C27   C     C_3   0.928803 0.503185 0.652762 -0.365082
C28   C     C_3   0.076985 0.617413 0.424939 -0.364115
C29   C     C_3   0.067468 0.383298 0.427290 -0.393232
C30   C     C_3   0.122089 0.501084 0.501321 0.158418
Cu1   Cu    Cu3+1 0.499990 0.499990 0.640660 0.921273
Cu2   Cu    Cu3+1 0.500010 0.500010 0.359340 0.938130
H1    H     H_    0.109066 0.586797 0.708978 0.166317
H2    H     H_    0.890345 0.381540 0.317095 0.197399
H3    H     H_    0.111506 0.618742 0.315659 0.176298
H4    H     H_    0.899339 0.618807 0.315461 0.172088
H5    H     H_    0.291313 0.222386 0.639974 0.131287
H6    H     H_    0.131555 0.103532 0.766124 0.127009
H7    H     H_    0.132211 0.874779 0.770913 0.126259
H8    H     H_    0.292920 0.764554 0.649339 0.144562
H9    H     H_    0.645004 0.887630 0.361288 0.138131
H10   H     H_    0.358982 0.360316 0.128443 0.133938
H11   H     H_    0.102013 0.420133 0.710573 0.162761
H12   H     H_    0.673590 0.671838 0.253922 0.189418
H13   H     H_    0.809936 0.807026 0.128885 0.147457
H14   H     H_    0.809625 0.807384 0.873207 0.143455
H15   H     H_    0.672722 0.672717 0.747061 0.195096
H16   H     H_    0.359014 0.360373 0.870395 0.132081
H17   H     H_    0.891157 0.420718 0.710619 0.177323
H18   H     H_    0.898370 0.587340 0.708608 0.165374
H19   H     H_    0.115107 0.703007 0.476975 0.151781
H20   H     H_    0.901528 0.703306 0.476748 0.144410
H21   H     H_    0.102126 0.379074 0.318201 0.172343
H22   H     H_    0.098274 0.298847 0.481396 0.151665
H23   H     H_    0.885020 0.299344 0.479577 0.161082
N1    N     N_R   0.501200 0.501210 0.147910 -0.197530
N2    N     N_R   0.501250 0.501290 0.852040 -0.199260
O1    O     O_R   0.499990 0.319640 0.618810 -0.574851
O2    O     O_R   0.500000 0.319660 0.381240 -0.563875
O3    O     O_R   0.317680 0.499970 0.618790 -0.599048
O4    O     O_R   0.317700 0.499990 0.381210 -0.584153
O5    O     O_R   0.500000 0.680340 0.618760 -0.600032
O6    O     O_R   0.500010 0.680360 0.381190 -0.590198
O7    O     O_R   0.682300 0.500010 0.618790 -0.602420
O8    O     O_R   0.682320 0.500030 0.381210 -0.593899
C31   C     C_1   0.669837 0.127240 0.331291 0.248403
N3    N     N_1   0.743557 0.176838 0.260901 -0.315633

loop_
_geom_bond_atom_site_label_1
_geom_bond_atom_site_label_2
_ccdc_geom_bond_type
Cu1   O3    S    
C26   H11   S    
C21   N1    A    
C2    C4    S    
C3    H20   S    
C6    H6    S    
C16   C21   A    
C5    H5    S    
C9    C10   A    
C16   H12   S    
C26   H1    S    
C4    C29   S    
C1    C11   S    
C27   H18   S    
C22   N1    A    
C2    C27   S    
Cu1   N2    S    
C19   C20   A    
C15   C23   S    
C17   C18   A    
C9    C15   A    
C5    C10   A    
C22   H10   S    
C1    O1    A    
C12   O4    A    
C11   C13   A    
Cu1   O5    S    
C26   C27   S    
C29   C30   S    
C29   H21   S    
C3    H4    S    
C14   H9    S    
C18   H14   S    
Cu1   O1    S    
C28   C30   S    
C3    C28   S    
C17   H13   S    
Cu2   O4    S    
C26   C30   S    
C2    C25   S    
C22   C24   A    
C13   C31   S    
C1    O2    A    
C4    H23   S    
C5    C6    A    
C28   H19   S    
C4    H2    S    
C23   O6    A    
C16   C17   A    
C29   H22   S    
Cu2   O8    S    
C24   H16   S    
C7    C8    A    
C25   O8    A    
C20   C21   A    
Cu2   O6    S    
Cu1   Cu2   S    
C18   C19   A    
C10   C11   A    
C19   H15   S    
C31   N3    T    
C7    H7    S    
C14   C15   A    
C24   N2    A    
C2    C3    S    
C8    H8    S    
Cu2   O2    S    
C12   C30   S    
C20   N2    A    
C13   C14   A    
Cu1   O7    S    
Cu2   N1    S    
C23   O5    A    
C6    C7    A    
C27   H17   S    
C28   H3    S    
C8    C9    A    
C25   O7    A    
C12   O3    A    
