data_mof_unit_64990.cif
_audit_creation_date              2012-12-10T18:12:11-0500
_audit_creation_method            fapswitch 2.2
_symmetry_space_group_name_H-M    P1
_symmetry_Int_Tables_number       1
_space_group_crystal_system       triclinic
_cell_length_a                    18.627856
_cell_length_b                    18.925303
_cell_length_c                    18.644493
_cell_angle_alpha                 109.777545
_cell_angle_beta                  109.038131
_cell_angle_gamma                 109.685613
_cell_volume                      5054.14584018

loop_
_atom_site_label
_atom_site_type_symbol
_atom_type_description
_atom_site_fract_x
_atom_site_fract_y
_atom_site_fract_z
_atom_type_partial_charge
C1    C     C_R   0.620102 0.619850 0.499500 0.862491
C2    C     C_R   0.319589 0.805859 0.293464 -0.177523
C3    C     C_R   0.264582 0.825246 0.322210 -0.168319
C4    C     C_R   0.379492 0.499558 0.379204 0.881003
C5    C     C_R   0.206836 0.765776 0.333016 -0.125353
C6    C     C_R   0.202868 0.686105 0.313924 -0.242085
C7    C     C_R   0.257974 0.665880 0.285230 -0.038632
C8    C     C_R   0.758829 0.755702 0.578944 -0.175423
C9    C     C_R   0.823035 0.819272 0.578949 -0.165579
C10   C     C_R   0.812886 0.813315 0.499118 -0.022889
C11   C     C_R   0.739611 0.743588 0.419151 -0.160321
C12   C     C_R   0.243527 0.180286 0.164579 0.293149
C13   C     C_R   0.676641 0.678564 0.419048 -0.120396
C14   C     C_R   0.686319 0.685341 0.499017 -0.026227
C15   C     C_R   0.673162 0.492217 0.757704 0.443378
C16   C     C_R   0.379085 0.380209 0.499634 0.892549
C17   C     C_R   0.738506 0.491804 0.819925 -0.178702
C18   C     C_R   0.812823 0.498832 0.813513 -0.077036
C19   C     C_R   0.823275 0.506018 0.745167 -0.162598
C20   C     C_R   0.757878 0.504530 0.681560 -0.227177
C21   C     C_R   0.683339 0.498136 0.687708 -0.167604
C22   C     C_R   0.237163 0.317260 0.491734 -0.141961
C23   C     C_R   0.186018 0.425838 0.169686 -0.152541
C24   C     C_R   0.173076 0.252967 0.491237 -0.111315
C25   C     C_R   0.187584 0.188951 0.503278 -0.013749
C26   C     C_R   0.265861 0.189001 0.515946 -0.077767
C27   C     C_R   0.328276 0.251166 0.512851 -0.062016
C28   C     C_R   0.618329 0.498524 0.620601 0.929236
C29   C     C_R   0.313780 0.315194 0.501255 0.006568
C30   C     C_R   0.996710 0.619691 0.117328 0.956874
C31   C     C_R   0.120282 0.502383 0.121926 0.872584
C32   C     C_R   0.000548 0.380129 0.879936 0.847873
C33   C     C_R   0.879598 0.498859 0.878881 0.926824
C34   C     C_R   0.187033 0.503754 0.188063 -0.063808
C35   C     C_R   0.999996 0.879924 0.379585 0.978467
C36   C     C_R   0.879472 0.879547 0.499541 0.842760
C37   C     C_R   0.000344 0.120270 0.620405 0.839509
C38   C     C_R   0.120609 0.121495 0.501497 0.929196
C39   C     C_R   0.003198 0.761537 0.176686 0.317060
C40   C     C_R   0.286693 0.234754 0.138740 -0.389247
C41   C     C_R   0.018867 0.831151 0.250134 0.254425
C42   C     C_R   0.001194 0.815508 0.312753 -0.186647
C43   C     C_R   0.980533 0.736353 0.309750 -0.253972
C44   C     C_R   0.978462 0.672035 0.244648 -0.232479
C45   C     C_R   0.252967 0.581395 0.266904 0.052037
C46   C     C_R   0.991141 0.684879 0.179203 -0.193603
C47   C     C_R   0.080958 0.321279 0.823281 -0.141823
C48   C     C_R   0.080812 0.256216 0.760243 -0.164355
C49   C     C_R   0.000792 0.186581 0.686967 -0.020109
C50   C     C_R   0.920952 0.180747 0.676857 -0.167528
C51   C     C_R   0.921002 0.244357 0.741135 -0.178407
C52   C     C_R   0.289260 0.314082 0.158094 0.480083
C53   C     C_R   0.000981 0.314613 0.813660 -0.018425
C54   C     C_R   0.248990 0.340145 0.205769 -0.072238
C55   C     C_R   0.205269 0.286163 0.231041 -0.396852
C56   C     C_R   0.314830 0.578173 0.329712 -0.149837
C57   C     C_R   0.200815 0.205980 0.210176 0.322825
C58   C     C_R   0.313864 0.499760 0.311828 -0.076624
C59   C     C_R   0.250995 0.423661 0.229778 0.109252
C60   C     C_R   0.317283 0.726536 0.275026 0.493691
H1    H     H_    0.267123 0.886742 0.336685 0.168242
H2    H     H_    0.226342 0.367134 0.482639 0.136664
H3    H     H_    0.112783 0.253437 0.482176 0.150320
H4    H     H_    0.388135 0.250204 0.520642 0.159206
H5    H     H_    0.968003 0.725281 0.358913 0.171374
H6    H     H_    0.967722 0.612553 0.245765 0.182762
H7    H     H_    0.859138 0.239575 0.733925 0.151066
H8    H     H_    0.174123 0.307215 0.266989 0.206761
H9    H     H_    0.135769 0.367067 0.107286 0.163587
H10   H     H_    0.364849 0.637252 0.391791 0.172835
H11   H     H_    0.269834 0.055078 0.029376 0.358907
H12   H     H_    0.165292 0.781656 0.356471 0.167644
H13   H     H_    0.157280 0.640331 0.322118 0.151127
H14   H     H_    0.619917 0.624120 0.357236 0.188869
H15   H     H_    0.525424 0.451268 0.847192 0.395416
H16   H     H_    0.277494 0.139760 0.525713 0.170222
H17   H     H_    0.952116 0.840246 0.022158 0.398188
H18   H     H_    0.177525 0.937130 0.243500 0.354881
H19   H     H_    0.142804 0.375662 0.880006 0.170289
H20   H     H_    0.303720 0.432513 0.040524 0.400547
H21   H     H_    0.142646 0.260759 0.767677 0.160869
H22   H     H_    0.858996 0.126525 0.620156 0.156341
H23   H     H_    0.766097 0.760596 0.640809 0.154854
H24   H     H_    0.024613 0.056529 0.111927 0.340193
H25   H     H_    0.477601 0.764748 0.199832 0.395250
H26   H     H_    0.364362 0.853239 0.286182 0.204391
H27   H     H_    0.879729 0.873549 0.640875 0.155927
H28   H     H_    0.732142 0.738932 0.357322 0.163080
H29   H     H_    0.732547 0.487316 0.874323 0.211995
H30   H     H_    0.881144 0.511372 0.740443 0.159418
H31   H     H_    0.318656 0.215377 0.103215 0.232321
H32   H     H_    0.765870 0.509615 0.628140 0.168397
O1    O     O_R   0.591640 0.539900 0.448310 -0.613263
O2    O     O_R   0.948270 0.908330 0.356580 -0.582311
O3    O     O_R   0.960090 0.908280 0.551610 -0.625737
O4    O     O_R   0.591610 0.643330 0.551710 -0.619782
O5    O     O_R   0.856650 0.908310 0.448190 -0.618905
O6    O     O_R   0.051730 0.091500 0.643240 -0.619439
O7    O     O_R   0.948290 0.091530 0.539820 -0.626943
O8    O     O_R   0.143350 0.091510 0.551630 -0.629930
O9    O     O_R   0.039910 0.091550 0.448210 -0.581412
O10   O     O_R   0.408400 0.448280 0.356670 -0.595244
O11   O     O_R   0.408370 0.551710 0.460080 -0.641837
O12   O     O_R   0.051750 0.643320 0.091550 -0.569059
O13   O     O_R   0.408390 0.356670 0.448290 -0.617304
O14   O     O_R   0.408360 0.460100 0.551690 -0.590364
O15   O     O_R   0.591630 0.448290 0.539920 -0.629143
O16   O     O_R   0.591600 0.551720 0.643330 -0.561036
O17   O     O_R   0.948300 0.539910 0.091570 -0.631466
O18   O     O_2   0.286025 0.080291 0.222494 -0.193384
O19   O     O_2   0.155458 0.005345 0.078352 -0.224858
O20   O     O_3   0.308488 0.075611 0.091760 -0.524725
O21   O     O_2   0.581306 0.567406 0.794251 -0.255393
O22   O     O_2   0.497919 0.412854 0.682630 -0.356278
O23   O     O_R   0.039910 0.448280 0.091610 -0.637435
O24   O     O_3   0.579627 0.456011 0.846118 -0.548343
O25   O     O_2   0.065791 0.786780 0.070746 -0.245593
O26   O     O_2   0.911382 0.676288 0.000350 -0.333587
O27   O     O_3   0.952340 0.836986 0.074140 -0.438825
O28   O     O_2   0.010594 0.969617 0.250357 -0.145368
O29   O     O_2   0.141365 0.997027 0.369421 -0.376626
O30   O     O_3   0.129147 0.947168 0.216966 -0.350804
O31   O     O_2   0.411706 0.468813 0.199898 -0.265082
O32   O     O_2   0.386251 0.340471 0.079339 -0.283521
O33   O     O_3   0.268751 0.387594 0.049968 -0.567374
O34   O     O_R   0.143370 0.551700 0.091590 -0.583117
O35   O     O_2   0.200042 0.128865 0.306201 -0.173332
O36   O     O_2   0.096939 0.182089 0.282455 -0.322727
O37   O     O_3   0.060682 0.043346 0.151889 -0.388254
O38   O     O_2   0.458961 0.708616 0.312628 -0.303944
O39   O     O_2   0.339079 0.616692 0.159975 -0.266284
O40   O     O_3   0.437338 0.780145 0.216455 -0.554948
O41   O     O_R   0.948300 0.356650 0.908390 -0.620964
O42   O     O_R   0.051750 0.460070 0.908380 -0.621931
O43   O     O_R   0.856690 0.448280 0.908350 -0.633270
O44   O     O_R   0.960140 0.551690 0.908340 -0.582842
O45   O     O_R   0.051710 0.908290 0.460000 -0.621279
S1    S     S_3+6 0.246644 0.082541 0.139585 0.107684
S2    S     S_3+6 0.579788 0.482376 0.768559 0.033099
S3    S     S_3+6 0.983681 0.764042 0.077528 0.091862
S4    S     S_3+6 0.075258 0.939346 0.273265 0.126967
S5    S     S_3+6 0.343144 0.379621 0.122488 0.049617
S6    S     S_3+6 0.139626 0.140534 0.240975 0.124336
S7    S     S_3+6 0.389280 0.705360 0.240186 0.032960
Zn1   Zn    Zn3+2 0.500020 0.430940 0.430950 1.047412
Zn2   Zn    Zn3+2 0.499980 0.569060 0.569050 1.055583
Zn3   Zn    Zn3+2 0.930950 0.430940 0.999980 0.996256
Zn4   Zn    Zn3+2 0.069100 0.569040 0.999960 1.095604
Zn5   Zn    Zn3+2 0.069070 0.999890 0.568970 1.000807
Zn6   Zn    Zn3+2 0.930930 0.999930 0.430860 1.058466

loop_
_geom_bond_atom_site_label_1
_geom_bond_atom_site_label_2
_ccdc_geom_bond_type
O40   S7    S    
C22   C29   A    
C27   C29   A    
C8    H23   S    
C41   C42   A    
O12   Zn4   S    
C44   H6    S    
C19   C20   A    
C33   O44   A    
C47   H19   S    
O45   Zn5   S    
C55   H8    S    
C39   C41   A    
C23   C59   A    
C20   H32   S    
C26   C27   A    
O27   S3    S    
C7    C45   S    
C5    H12   S    
H25   O40   S    
C32   O41   A    
O15   Zn1   S    
C2    C60   A    
H20   O33   S    
C28   O15   A    
C4    O11   A    
O23   Zn3   S    
H24   O37   S    
C48   H21   S    
C18   C19   A    
C35   O45   A    
C35   C42   S    
C23   H9    S    
C54   C55   A    
C45   C56   A    
C44   C46   A    
C8    C9    A    
C4    O10   A    
C26   H16   S    
O5    Zn6   S    
O21   S2    D    
O1    Zn1   S    
C36   O5    A    
O41   Zn3   S    
O38   S7    D    
C9    C10   A    
C11   H28   S    
O16   Zn2   S    
C16   O14   A    
C47   C53   A    
O24   S2    S    
C13   C14   A    
O32   S5    D    
C1    C14   S    
O17   Zn3   S    
O26   S3    D    
C31   O23   A    
C37   O6    A    
O36   S6    D    
C52   C54   A    
C50   C51   A    
C15   S2    S    
C54   C59   S    
C3    H1    S    
O7    Zn6   S    
C57   S6    S    
C30   O17   A    
O29   S4    D    
O18   S1    D    
C17   H29   S    
C24   C25   A    
C38   O8    A    
C27   H4    S    
O34   Zn4   S    
O35   S6    D    
C3    C5    A    
C16   C29   S    
C40   C52   A    
C52   S5    S    
O9    Zn6   S    
C51   C53   A    
C12   C40   A    
C43   C44   A    
C41   S4    S    
O20   S1    S    
C25   C38   S    
C22   H2    S    
C37   C49   S    
C33   O43   A    
C47   C48   A    
O33   S5    S    
C43   H5    S    
C23   C34   A    
O13   Zn1   S    
H11   O20   S    
C17   C18   A    
C31   C34   S    
C34   C45   A    
C51   H7    S    
O22   S2    D    
C20   C21   A    
O44   Zn4   S    
C16   O13   A    
C39   C46   A    
O3    Zn5   S    
C12   C57   A    
C48   C49   A    
C21   C28   S    
C24   H3    S    
C56   H10   S    
C55   C57   A    
O30   S4    S    
C12   S1    S    
C58   C59   A    
O25   S3    D    
O2    Zn6   S    
C42   C43   A    
C30   O12   A    
C7    C60   A    
C37   O7    A    
O4    Zn2   S    
C50   H22   S    
C6    H13   S    
C35   O2    A    
C15   C17   A    
C39   S3    S    
C8    C14   A    
C30   C46   S    
O28   S4    D    
H17   O27   S    
C6    C7    A    
O37   S6    S    
O8    Zn5   S    
C38   O9    A    
C32   C53   S    
O42   Zn4   S    
O43   Zn3   S    
O14   Zn2   S    
C2    C3    A    
C25   C26   A    
O10   Zn1   S    
C19   H30   S    
C60   S7    S    
C32   O42   A    
C11   C13   A    
C36   O3    A    
C5    C6    A    
C28   O16   A    
C1    O4    A    
O31   S5    D    
C56   C58   A    
C2    H26   S    
C22   C24   A    
C40   H31   S    
H18   O30   S    
C18   C33   S    
C10   C11   A    
C15   C21   A    
C13   H14   S    
O11   Zn2   S    
C1    O1    A    
C49   C50   A    
C4    C58   S    
C10   C36   S    
H15   O24   S    
C31   O34   A    
C9    H27   S    
O39   S7    D    
O19   S1    D    
O6    Zn5   S    
