data_mof_unit_31803.cif
_audit_creation_date              2012-12-10T19:55:03-0500
_audit_creation_method            fapswitch 2.2
_symmetry_space_group_name_H-M    P1
_symmetry_Int_Tables_number       1
_space_group_crystal_system       triclinic
_cell_length_a                    14.28039
_cell_length_b                    15.002094
_cell_length_c                    16.842261
_cell_angle_alpha                 89.942199
_cell_angle_beta                  83.734102
_cell_angle_gamma                 89.808266
_cell_volume                      3586.63849598

loop_
_atom_site_label
_atom_site_type_symbol
_atom_type_description
_atom_site_fract_x
_atom_site_fract_y
_atom_site_fract_z
_atom_type_partial_charge
C1    C     C_R   0.500326 0.671459 0.499732 0.882905
C2    C     C_R   0.499748 0.327094 0.501744 0.974895
C3    C     C_R   0.471517 0.895920 0.591607 0.431601
C4    C     C_R   0.582333 0.090696 0.522752 0.331500
C5    C     C_R   0.474921 0.804091 0.583800 0.373081
C6    C     C_R   0.583818 0.182071 0.507597 0.380695
C7    C     C_R   0.501844 0.766215 0.507948 -0.339635
C8    C     C_R   0.498045 0.229757 0.510924 -0.246242
C9    C     C_R   0.537544 0.819258 0.442333 0.335211
C10   C     C_R   0.410575 0.185171 0.526827 0.326744
C11   C     C_R   0.532316 0.911530 0.449560 -0.056573
C12   C     C_R   0.409310 0.092210 0.536400 -0.147635
C13   C     C_R   0.496393 0.949479 0.523652 -0.187976
C14   C     C_R   0.495423 0.045810 0.530892 -0.122142
C15   C     C_R   0.883602 0.522992 0.574205 -0.109537
C16   C     C_R   0.109004 0.423054 0.472116 -0.110532
C17   C     C_R   0.785756 0.531407 0.566550 0.483249
C18   C     C_R   0.208746 0.430372 0.464985 0.510108
C19   C     C_R   0.808637 0.472502 0.435742 0.061715
C20   C     C_R   0.196837 0.565053 0.538709 0.049550
C21   C     C_R   0.906576 0.474651 0.438031 -0.313109
C22   C     C_R   0.098820 0.566005 0.536230 -0.324423
C23   C     C_R   0.486063 0.495014 0.652534 0.885590
C24   C     C_R   0.513278 0.505217 0.347389 0.883503
C25   C     C_R   0.946120 0.495680 0.507579 0.019836
C26   C     C_R   0.052419 0.493859 0.506220 0.013712
C27   C     C_R   0.474271 0.482959 0.738361 -0.094525
C28   C     C_R   0.520151 0.516860 0.261365 -0.113146
C29   C     C_R   0.515556 0.410434 0.775648 -0.140413
C30   C     C_R   0.467955 0.584028 0.225784 -0.143201
C31   C     C_R   0.497004 0.400540 0.859259 0.398187
C32   C     C_R   0.475589 0.590199 0.141775 0.399899
C33   C     C_R   0.440074 0.463716 0.902831 0.047735
C34   C     C_R   0.531248 0.528034 0.096029 0.045885
C35   C     C_R   0.396876 0.534030 0.865033 -0.089523
C36   C     C_R   0.580867 0.460196 0.131491 -0.087900
C37   C     C_R   0.415135 0.542789 0.782804 -0.281004
C38   C     C_R   0.574412 0.455514 0.214350 -0.268078
C39   C     C_2   0.449801 0.470075 0.987485 0.381675
C40   C     C_2   0.519117 0.522944 0.011783 0.371943
H1    H     H_    0.952413 0.458497 0.384366 0.166914
H2    H     H_    0.058352 0.621967 0.562136 0.169377
H3    H     H_    0.608756 0.401559 0.242776 0.182183
H4    H     H_    0.385874 0.598471 0.753125 0.189823
N1    N     N_R   0.747530 0.500020 0.500000 -0.152040
N2    N     N_R   0.252470 0.499980 0.500000 -0.161384
O1    O     O_R   0.420520 0.630930 0.499990 -0.602078
O2    O     O_R   0.579480 0.369070 0.500010 -0.559642
O3    O     O_R   0.579480 0.630940 0.499990 -0.652651
O4    O     O_R   0.420520 0.369060 0.500010 -0.553057
O5    O     O_R   0.411130 0.500010 0.615800 -0.619378
O6    O     O_R   0.588870 0.499990 0.384200 -0.618271
O7    O     O_R   0.570080 0.500020 0.615800 -0.597770
O8    O     O_R   0.429920 0.499980 0.384200 -0.659184
Zn1   Zn    Zn3+2 0.393860 0.499990 0.500000 0.971000
Zn2   Zn    Zn3+2 0.606140 0.500010 0.500000 0.969506
C41   C     C_R   0.579088 0.346311 0.729595 0.090834
C42   C     C_R   0.673658 0.369019 0.707427 -0.083179
C43   C     C_R   0.737885 0.304573 0.675456 -0.138778
C44   C     C_R   0.708953 0.216309 0.668601 -0.049414
C45   C     C_R   0.615269 0.192917 0.691905 -0.124649
C46   C     C_R   0.550025 0.257893 0.720885 -0.181204
H5    H     H_    0.698167 0.435744 0.717579 0.186254
H6    H     H_    0.810588 0.322524 0.658071 0.116402
H7    H     H_    0.759117 0.165998 0.645402 0.138041
H8    H     H_    0.593185 0.124322 0.687720 0.137496
H9    H     H_    0.478033 0.238668 0.739985 0.149739
C47   C     C_R   0.403754 0.646067 0.274253 0.078732
C48   C     C_R   0.425926 0.736996 0.276975 -0.112765
C49   C     C_R   0.361948 0.797355 0.316160 -0.107187
C50   C     C_R   0.274379 0.767680 0.351017 -0.154189
C51   C     C_R   0.250445 0.677740 0.346496 -0.151747
C52   C     C_R   0.314293 0.617290 0.307339 -0.081115
H10   H     H_    0.491982 0.761225 0.247189 0.187354
H11   H     H_    0.379769 0.867281 0.318559 0.135022
H12   H     H_    0.224618 0.814513 0.380708 0.117332
H13   H     H_    0.181971 0.655068 0.372449 0.130257
H14   H     H_    0.293582 0.548367 0.301847 0.125896
C53   C     C_R   0.918620 0.543486 0.651946 0.166621
C54   C     C_R   0.962627 0.476819 0.693430 -0.155336
C55   C     C_R   0.997566 0.496372 0.765787 -0.159550
C56   C     C_R   0.989081 0.582556 0.797169 -0.111585
C57   C     C_R   0.945423 0.649299 0.756320 -0.131047
C58   C     C_R   0.910016 0.629948 0.684096 -0.101600
H15   H     H_    0.969914 0.409866 0.669786 0.113733
H16   H     H_    0.031624 0.444789 0.797361 0.131546
H17   H     H_    0.016705 0.597706 0.852946 0.125342
H18   H     H_    0.939357 0.716150 0.780466 0.131243
H19   H     H_    0.877439 0.682583 0.652551 0.139206
C59   C     C_R   0.065265 0.340454 0.444530 0.181541
C60   C     C_R   0.005451 0.289140 0.498316 -0.128802
C61   C     C_R   0.960050 0.214249 0.471627 -0.144696
C62   C     C_R   0.974242 0.189745 0.391193 -0.126473
C63   C     C_R   0.034184 0.239898 0.337393 -0.143820
C64   C     C_R   0.079751 0.314880 0.363833 -0.108191
H20   H     H_    0.993366 0.307555 0.560666 0.112766
H21   H     H_    0.913463 0.175497 0.513242 0.135926
H22   H     H_    0.938559 0.132082 0.370510 0.128695
H23   H     H_    0.044760 0.221075 0.275036 0.132773
H24   H     H_    0.124545 0.354134 0.321197 0.133475
O9    O     O_3   0.730775 0.574526 0.626619 -0.783475
H25   H     H_    0.686916 0.612969 0.600521 0.366963
O10   O     O_3   0.260026 0.363145 0.425444 -0.748775
H26   H     H_    0.317831 0.389653 0.398616 0.365044
C65   C     C_R   0.779014 0.439994 0.360306 0.187297
C66   C     C_R   0.780816 0.347659 0.346812 -0.106147
C67   C     C_R   0.789750 0.313816 0.269155 -0.188214
C68   C     C_R   0.799729 0.372006 0.204136 -0.140154
C69   C     C_R   0.796529 0.464128 0.216656 -0.144087
C70   C     C_R   0.785640 0.498119 0.294438 -0.149329
H27   H     H_    0.784710 0.302177 0.395959 0.180471
H28   H     H_    0.793879 0.242554 0.259443 0.140178
H29   H     H_    0.810730 0.345602 0.144145 0.154125
H30   H     H_    0.804359 0.509144 0.166129 0.142853
H31   H     H_    0.789369 0.569468 0.303335 0.132724
C71   C     C_R   0.231132 0.626802 0.596536 0.206366
C72   C     C_R   0.217833 0.602852 0.677662 -0.131340
C73   C     C_R   0.220213 0.667551 0.737023 -0.207756
C74   C     C_R   0.238861 0.756181 0.716052 -0.037330
C75   C     C_R   0.252727 0.780427 0.635612 -0.076057
C76   C     C_R   0.247285 0.716487 0.575993 -0.182012
H32   H     H_    0.200045 0.534883 0.694924 0.146461
H33   H     H_    0.206914 0.648906 0.799257 0.151695
H34   H     H_    0.242024 0.806113 0.762014 0.141413
H35   H     H_    0.267681 0.848880 0.619557 0.175646
H36   H     H_    0.252832 0.737311 0.514273 0.142458
O11   O     O_3   0.578679 0.576329 0.961468 -0.762146
H37   H     H_    0.573768 0.562715 0.904747 0.330082
O12   O     O_3   0.390098 0.416926 0.037833 -0.764689
H38   H     H_    0.397185 0.429009 0.094493 0.321259
C77   C     C_R   0.339081 0.602765 0.911131 0.129922
C78   C     C_R   0.262649 0.577680 0.966234 -0.125987
C79   C     C_R   0.208360 0.642516 0.009638 -0.150976
C80   C     C_R   0.229655 0.732770 0.998205 -0.117440
C81   C     C_R   0.305256 0.758365 0.943298 -0.114505
C82   C     C_R   0.359860 0.693766 0.899878 -0.083059
H39   H     H_    0.244679 0.508053 0.975095 0.162101
H40   H     H_    0.149623 0.622784 0.052024 0.130325
H41   H     H_    0.187525 0.782870 0.031840 0.126487
H42   H     H_    0.321630 0.828294 0.934421 0.139828
H43   H     H_    0.418562 0.714638 0.857872 0.166599
C83   C     C_R   0.633307 0.389853 0.082946 0.152821
C84   C     C_R   0.613083 0.299368 0.098090 -0.101877
C85   C     C_R   0.661624 0.233186 0.051729 -0.116227
C86   C     C_R   0.730778 0.256663 0.990151 -0.114916
C87   C     C_R   0.751734 0.346386 0.974938 -0.156533
C88   C     C_R   0.703488 0.412790 0.021213 -0.133866
H44   H     H_    0.559208 0.280130 0.145226 0.120426
H45   H     H_    0.645406 0.163665 0.063382 0.127711
H46   H     H_    0.768126 0.205337 0.954225 0.126502
H47   H     H_    0.805510 0.364497 0.927387 0.136478
H48   H     H_    0.721557 0.481927 0.009511 0.167530
O13   O     O_3   0.425801 0.651937 0.101409 -0.748885
H49   H     H_    0.373652 0.678166 0.137298 0.341601
O14   O     O_3   0.537540 0.334247 0.901849 -0.743916
H50   H     H_    0.589367 0.304332 0.868351 0.345456
O15   O     O_3   0.446318 0.930072 0.667322 -0.731950
H51   H     H_    0.460409 0.994458 0.668723 0.322689
O16   O     O_3   0.667008 0.046658 0.527355 -0.816961
H52   H     H_    0.655596 0.989414 0.555996 0.340114
O17   O     O_3   0.455056 0.754269 0.652868 -0.724139
H53   H     H_    0.470582 0.690796 0.642962 0.320084
O18   O     O_3   0.668323 0.226759 0.491557 -0.760513
H54   H     H_    0.721954 0.184474 0.485652 0.364645
O19   O     O_3   0.579266 0.784325 0.370873 -0.793730
H55   H     H_    0.582054 0.718608 0.372724 0.340076
O20   O     O_3   0.327652 0.234089 0.533954 -0.698733
H56   H     H_    0.274513 0.196734 0.520831 0.359548
C89   C     C_R   0.571651 0.967788 0.380752 0.238353
C90   C     C_R   0.514194 0.027533 0.343517 -0.197074
C91   C     C_R   0.553171 0.083537 0.282284 -0.132972
C92   C     C_R   0.649685 0.080256 0.257485 -0.119180
C93   C     C_R   0.707359 0.020716 0.293673 -0.171388
C94   C     C_R   0.668640 0.964562 0.354894 -0.013266
H57   H     H_    0.439666 0.031662 0.362158 0.123233
H58   H     H_    0.508584 0.129818 0.254292 0.135469
H59   H     H_    0.679784 0.123914 0.210330 0.120178
H60   H     H_    0.782214 0.018483 0.274653 0.123758
H61   H     H_    0.714484 0.919833 0.383332 0.142017
C95   C     C_R   0.318051 0.045573 0.556957 0.156062
C96   C     C_R   0.275705 0.997260 0.499070 -0.169264
C97   C     C_R   0.184420 0.963846 0.516487 -0.162926
C98   C     C_R   0.135257 0.977430 0.591906 -0.129941
C99   C     C_R   0.177537 0.023968 0.650273 -0.157261
C100  C     C_R   0.268376 0.058265 0.632861 -0.102691
H62   H     H_    0.311812 0.987132 0.440100 0.121677
H63   H     H_    0.151473 0.927806 0.471444 0.127475
H64   H     H_    0.064693 0.951414 0.605252 0.131486
H65   H     H_    0.139531 0.034315 0.708731 0.132193
H66   H     H_    0.299430 0.096273 0.677906 0.135931

loop_
_geom_bond_atom_site_label_1
_geom_bond_atom_site_label_2
_ccdc_geom_bond_type
C92   H59   S    
C24   O6    A    
C65   C70   A    
C16   C59   S    
C62   C63   A    
C27   C29   A    
C67   H28   S    
O18   H54   S    
C80   H41   S    
C98   C99   A    
C94   H61   S    
C54   H15   S    
C55   C56   A    
C41   C42   A    
C100  H66   S    
C22   H2    S    
C96   C97   A    
C68   C69   A    
C43   H6    S    
O19   H55   S    
C46   H9    S    
C34   C40   S    
C63   H23   S    
C3    O15   S    
C35   C37   A    
C92   C93   A    
C17   N1    A    
C87   C88   A    
C86   C87   A    
C53   C58   A    
C54   C55   A    
C15   C25   A    
C4    O16   S    
C66   C67   A    
C24   O8    A    
C84   C85   A    
C99   C100  A    
C15   C17   A    
C89   C90   A    
C36   C83   S    
C97   C98   A    
C17   O9    S    
C2    O4    A    
C51   H13   S    
C60   H20   S    
C73   C74   A    
C45   H8    S    
O15   H51   S    
C15   C53   S    
C57   C58   A    
N1    Zn2   S    
C10   O20   S    
N2    Zn1   S    
C67   C68   A    
C31   C33   A    
C49   C50   A    
C23   C27   S    
C87   H47   S    
O10   H26   S    
C34   C36   A    
C86   H46   S    
C3    C13   A    
C66   H27   S    
C47   C52   A    
C81   C82   A    
C57   H18   S    
C43   C44   A    
C93   C94   A    
C13   C14   S    
C48   C49   A    
C52   H14   S    
C18   N2    A    
C61   H21   S    
C23   O7    A    
C90   H57   S    
C16   C26   A    
C81   H42   S    
C71   C76   A    
C9    O19   S    
O9    H25   S    
C41   C46   A    
C96   H62   S    
C4    C6    A    
C77   C82   A    
O20   H56   S    
C5    C7    A    
C64   H24   S    
C1    O1    A    
C6    C8    A    
C39   O12   S    
C2    O2    A    
C25   C26   S    
C74   H34   S    
C40   O11   S    
C53   C54   A    
C76   H36   S    
C44   C45   A    
C5    O17   S    
C68   H29   S    
C72   H32   S    
C85   H45   S    
C23   O5    A    
O16   H52   S    
C28   C38   A    
C89   C94   A    
C55   H16   S    
C63   C64   A    
C33   C39   S    
C73   H33   S    
C9    C11   A    
C91   C92   A    
C10   C12   A    
C69   H30   S    
C21   H1    S    
C19   C65   S    
C16   C18   A    
C12   C95   S    
C29   C41   S    
C44   H7    S    
C11   C89   S    
C20   C71   S    
C22   C26   A    
C79   C80   A    
C58   H19   S    
C20   C22   A    
O11   H37   S    
C35   C77   S    
C48   H10   S    
C95   C96   A    
O1    Zn1   S    
O12   H38   S    
C91   H58   S    
O7    Zn2   S    
C42   H5    S    
O2    Zn2   S    
C21   C25   A    
O8    Zn1   S    
C19   C21   A    
C1    C7    S    
C83   C88   A    
C47   C48   A    
C2    C8    S    
C24   C28   S    
C12   C14   A    
C51   C52   A    
C3    C5    A    
C77   C78   A    
C59   C64   A    
C31   O14   S    
C74   C75   A    
C19   N1    A    
C80   C81   A    
O3    Zn2   S    
C65   C66   A    
C72   C73   A    
O4    Zn1   S    
C85   C86   A    
C37   H4    S    
C28   C30   A    
C88   H48   S    
C42   C43   A    
C38   H3    S    
C29   C31   A    
O17   H53   S    
C98   H64   S    
C30   C32   A    
C18   O10   S    
C11   C13   A    
C59   C60   A    
C50   H12   S    
O6    Zn2   S    
C93   H60   S    
C27   C37   A    
C62   H22   S    
C36   C38   A    
C61   C62   A    
C33   C35   A    
C82   H43   S    
C71   C72   A    
C78   C79   A    
O5    Zn1   S    
C97   H63   S    
C75   H35   S    
C4    C14   A    
C45   C46   A    
C30   C47   S    
C84   H44   S    
C95   C100  A    
C32   O13   S    
C39   C40   D    
C7    C9    A    
C79   H40   S    
C50   C51   A    
C6    O18   S    
C49   H11   S    
C8    C10   A    
C56   C57   A    
C90   C91   A    
O14   H50   S    
C83   C84   A    
C75   C76   A    
C78   H39   S    
O13   H49   S    
C69   C70   A    
C1    O3    A    
C70   H31   S    
C99   H65   S    
C20   N2    A    
C60   C61   A    
C56   H17   S    
C32   C34   A    
