data_mof_unit_16975.cif
_audit_creation_date              2012-12-10T16:43:26-0500
_audit_creation_method            fapswitch 2.2
_symmetry_space_group_name_H-M    P1
_symmetry_Int_Tables_number       1
_space_group_crystal_system       triclinic
_cell_length_a                    10.744183
_cell_length_b                    8.705275
_cell_length_c                    7.455004
_cell_angle_alpha                 102.911711
_cell_angle_beta                  94.297392
_cell_angle_gamma                 92.45993
_cell_volume                      676.455401058

loop_
_atom_site_label
_atom_site_type_symbol
_atom_type_description
_atom_site_fract_x
_atom_site_fract_y
_atom_site_fract_z
_atom_type_partial_charge
C1    C     C_R   0.496209 0.199842 0.453740 0.915541
C2    C     C_R   0.076638 0.643581 0.619461 0.087151
C3    C     C_R   0.129601 0.514195 0.506954 -0.086000
C4    C     C_R   0.054415 0.394202 0.386584 -0.196622
C5    C     C_R   0.926109 0.396385 0.381706 -0.190823
C6    C     C_R   0.871347 0.518524 0.497352 -0.089207
C7    C     C_2   0.494501 0.032214 0.429223 -0.497252
C8    C     C_2   0.505381 0.967222 0.574885 0.419114
C9    C     C_R   0.262885 0.504350 0.502737 0.770635
C10   C     C_R   0.503727 0.799916 0.546796 0.738608
C11   C     C_R   0.737385 0.506405 0.498840 0.773032
C12   C     C_R   0.150853 0.772974 0.731205 -0.168644
C13   C     C_R   0.095527 0.900151 0.837749 -0.132686
C14   C     C_R   0.965970 0.902233 0.833106 -0.132161
C15   C     C_R   0.890962 0.777180 0.721748 -0.168914
C16   C     C_R   0.945021 0.645782 0.614474 0.090231
Cu1   Cu    Cu3+1 0.513920 0.517380 0.684380 0.995694
Cu2   Cu    Cu3+1 0.486080 0.482620 0.315620 0.975460
H1    H     H_    0.095512 0.296790 0.297979 0.146377
H2    H     H_    0.597695 0.622028 0.051404 0.226749
H3    H     H_    0.251680 0.779017 0.735407 0.161016
H4    H     H_    0.153436 0.998349 0.922580 0.146456
H5    H     H_    0.923363 0.002056 0.914369 0.146747
H6    H     H_    0.790825 0.786462 0.717999 0.150007
H7    H     H_    0.869195 0.299901 0.291158 0.155798
H8    H     H_    0.484281 0.960944 0.288528 0.160305
H9    H     H_    0.402280 0.378010 0.948585 0.247438
N1    N     N_2   0.465100 0.456430 0.038520 -0.190341
N2    N     N_2   0.534900 0.543570 0.961480 -0.206529
O1    O     O_R   0.509050 0.286130 0.619770 -0.508147
O2    O     O_R   0.485540 0.256780 0.308360 -0.573794
O3    O     O_R   0.331410 0.514680 0.655740 -0.599148
O4    O     O_R   0.307900 0.485330 0.344330 -0.578200
O5    O     O_R   0.514460 0.743220 0.691640 -0.557112
O6    O     O_R   0.490950 0.713870 0.380230 -0.621827
O7    O     O_R   0.692100 0.514670 0.655670 -0.579975
O8    O     O_R   0.668590 0.485320 0.344260 -0.581385
F1    F     F_    0.518107 0.053983 0.752549 -0.647591

loop_
_geom_bond_atom_site_label_1
_geom_bond_atom_site_label_2
_ccdc_geom_bond_type
C14   H5    S    
C10   O6    A    
C3    C9    S    
Cu1   O7    S    
C2    C16   A    
Cu2   O6    S    
C2    C12   A    
Cu1   Cu2   S    
Cu2   N1    S    
C7    C8    D    
C10   O5    A    
C13   C14   A    
C9    O4    A    
Cu1   O1    S    
N1    N2    D    
C7    H8    S    
C8    F1    S    
C5    H7    S    
C15   H6    S    
Cu2   O8    S    
C13   H4    S    
C2    C3    A    
H2    N2    S    
C5    C6    A    
Cu2   O4    S    
Cu1   O5    S    
C6    C16   A    
C3    C4    A    
C1    O2    A    
Cu1   N2    S    
C12   C13   A    
C8    C10   S    
C6    C11   S    
C11   O8    A    
Cu1   O3    S    
C14   C15   A    
C1    O1    A    
Cu2   O2    S    
C9    O3    A    
C1    C7    S    
C4    H1    S    
C12   H3    S    
C15   C16   A    
C4    C5    A    
H9    N1    S    
C11   O7    A    
