data_mof_unit_51102.cif
_audit_creation_date              2012-12-10T17:20:38-0500
_audit_creation_method            fapswitch 2.2
_symmetry_space_group_name_H-M    P1
_symmetry_Int_Tables_number       1
_space_group_crystal_system       triclinic
_cell_length_a                    10.13396
_cell_length_b                    10.811331
_cell_length_c                    13.627002
_cell_angle_alpha                 91.191558
_cell_angle_beta                  74.805747
_cell_angle_gamma                 96.937627
_cell_volume                      1430.16391319

loop_
_atom_site_label
_atom_site_type_symbol
_atom_type_description
_atom_site_fract_x
_atom_site_fract_y
_atom_site_fract_z
_atom_type_partial_charge
Br1   Br    Br    0.586540 0.092132 0.351142 -0.499579
Br2   Br    Br    0.357819 0.870351 0.663937 -0.553373
C1    C     C_R   0.558367 0.732991 0.497470 0.881860
C2    C     C_2   0.072915 0.487935 0.492786 -0.135993
C3    C     C_1   0.454439 0.525428 0.880861 -0.077292
C4    C     C_1   0.549337 0.486280 0.117901 -0.054347
C5    C     C_2   0.594435 0.866846 0.498361 0.240188
C6    C     C_2   0.398195 0.136210 0.540004 0.261644
C7    C     C_2   0.491378 0.935293 0.539323 0.141813
C8    C     C_2   0.483479 0.055363 0.491927 0.166486
C9    C     C_3   0.226266 0.592468 0.027539 0.080514
C10   C     C_3   0.239721 0.723376 0.981964 -0.334443
C11   C     C_3   0.115508 0.740737 0.942343 -0.888177
C12   C     C_R   0.439696 0.267466 0.512434 0.813924
C13   C     C_3   0.725853 0.349623 0.972947 0.102457
C14   C     C_3   0.856089 0.407041 0.002069 -0.361757
C15   C     C_3   0.925434 0.307208 0.040314 -0.938039
C16   C     C_3   0.238300 0.171091 0.697034 0.115252
C17   C     C_3   0.342540 0.183110 0.761989 -0.382147
C18   C     C_3   0.280172 0.234564 0.866882 -0.948157
C19   C     C_3   0.814147 0.947297 0.497382 0.127289
C20   C     C_3   0.815501 0.083831 0.530536 -0.346712
C21   C     C_3   0.930192 0.122402 0.582589 -0.931020
C22   C     C_R   0.477997 0.506560 0.687890 0.892539
C23   C     C_R   0.522961 0.496231 0.311818 0.942778
C24   C     C_1   0.538821 0.490804 0.206631 -0.158610
C25   C     C_1   0.464319 0.517799 0.792401 -0.146981
C26   C     C_2   0.552682 0.482968 0.012660 0.393433
C27   C     C_2   0.449031 0.528172 0.986472 0.405354
C28   C     C_2   0.926336 0.510384 0.508687 -0.122638
H1    H     H_    0.110764 0.618937 0.589091 0.193324
H2    H     H_    0.126991 0.836801 0.911382 0.285059
H3    H     H_    0.019186 0.726237 0.004764 0.255813
H4    H     H_    0.756921 0.284558 0.909133 0.164875
H5    H     H_    0.654966 0.291342 0.036176 0.141636
H6    H     H_    0.929509 0.454874 0.934532 0.225037
H7    H     H_    0.830051 0.477249 0.062515 0.229778
H8    H     H_    0.854702 0.260080 0.109238 0.294229
H9    H     H_    0.019759 0.350625 0.060306 0.258247
H10   H     H_    0.954794 0.236939 0.980411 0.261143
H11   H     H_    0.138440 0.126065 0.744901 0.181979
H12   H     H_    0.889810 0.382289 0.409845 0.176061
H13   H     H_    0.216147 0.263628 0.676825 0.152470
H14   H     H_    0.374509 0.091051 0.772712 0.272993
H15   H     H_    0.435967 0.245615 0.723189 0.194597
H16   H     H_    0.238271 0.323245 0.859766 0.259204
H17   H     H_    0.360362 0.251720 0.909239 0.272750
H18   H     H_    0.195759 0.166246 0.910852 0.269773
H19   H     H_    0.918264 0.933780 0.449333 0.182483
H20   H     H_    0.794729 0.884246 0.564942 0.110067
H21   H     H_    0.831090 0.144897 0.462870 0.256304
H22   H     H_    0.715122 0.097547 0.584226 0.216136
H23   H     H_    0.113898 0.416576 0.440296 0.174017
H24   H     H_    0.916500 0.063231 0.651033 0.268688
H25   H     H_    0.927278 0.221100 0.606461 0.262196
H26   H     H_    0.032378 0.113549 0.529426 0.290522
H27   H     H_    0.884833 0.580615 0.562169 0.166762
H28   H     H_    0.136179 0.583278 0.095216 0.173091
H29   H     H_    0.202310 0.518757 0.974371 0.130301
H30   H     H_    0.247983 0.793880 0.041261 0.235008
H31   H     H_    0.334290 0.739706 0.918268 0.241225
H32   H     H_    0.108168 0.673598 0.880604 0.270723
N1    N     N_2   0.847200 0.448220 0.460120 -0.186501
N2    N     N_2   0.152800 0.551780 0.539880 -0.182473
O1    O     O_R   0.430150 0.692610 0.508030 -0.570945
O2    O     O_3   0.661993 0.442914 0.937710 -0.665033
O3    O     O_3   0.275546 0.093368 0.611424 -0.611984
O4    O     O_3   0.720178 0.918202 0.437177 -0.606256
O5    O     O_R   0.569850 0.307390 0.491970 -0.597083
O6    O     O_R   0.653100 0.659360 0.482430 -0.607492
O7    O     O_R   0.346900 0.340640 0.517570 -0.618386
O8    O     O_R   0.372470 0.518990 0.654990 -0.603286
O9    O     O_R   0.627530 0.481010 0.345010 -0.590764
O10   O     O_R   0.595430 0.485740 0.629390 -0.610613
O11   O     O_R   0.404570 0.514260 0.370610 -0.592212
O12   O     O_3   0.344061 0.575501 0.061061 -0.655883
Zn1   Zn    Zn3+2 0.351130 0.522200 0.517090 0.979313
Zn2   Zn    Zn3+2 0.648870 0.477800 0.482910 0.966843

loop_
_geom_bond_atom_site_label_1
_geom_bond_atom_site_label_2
_ccdc_geom_bond_type
Br2   C7    S    
C26   O2    S    
C9    C10   S    
C17   H15   S    
C21   H25   S    
O8    Zn1   S    
C2    H23   S    
O6    Zn2   S    
C9    H28   S    
N2    Zn1   S    
C2    N2    D    
C11   H2    S    
C1    C5    S    
C17   C18   S    
C22   C25   S    
O10   Zn2   S    
C14   H7    S    
O9    Zn2   S    
C5    C7    D    
C19   H19   S    
C16   O3    S    
C3    C27   S    
C21   H26   S    
C27   O12   S    
C4    C24   T    
C19   C20   S    
C14   H6    S    
C11   H3    S    
C10   H31   S    
O11   Zn1   S    
C3    C25   T    
C22   O10   A    
O5    Zn2   S    
C18   H18   S    
C6    O3    S    
C9    H29   S    
H12   N1    S    
C28   N1    D    
C19   H20   S    
C23   C24   S    
C12   O7    A    
C20   H22   S    
C23   O9    A    
C9    O12   S    
C19   O4    S    
C15   H9    S    
C1    O1    A    
C12   O5    A    
C4    C26   S    
C18   H16   S    
C18   H17   S    
O1    Zn1   S    
C11   H32   S    
C13   C14   S    
C10   H30   S    
C28   H27   S    
C17   H14   S    
O7    Zn1   S    
C1    O6    A    
C10   C11   S    
C22   O8    A    
C21   H24   S    
C6    C8    D    
C16   C17   S    
C7    C8    S    
C16   H11   S    
C15   H8    S    
C13   H5    S    
C20   C21   S    
C26   C27   D    
C6    C12   S    
C13   H4    S    
C5    O4    S    
C16   H13   S    
C13   O2    S    
H1    N2    S    
C15   H10   S    
C2    C28   S    
Br1   C8    S    
C14   C15   S    
C20   H21   S    
C23   O11   A    
N1    Zn2   S    
