data_mof_unit_31536.cif
_audit_creation_date              2012-10-26T20:22:02-0400
_audit_creation_method            fapswitch 2.2
_symmetry_space_group_name_H-M    P1
_symmetry_Int_Tables_number       1
_space_group_crystal_system       triclinic
_cell_length_a                    10.830088
_cell_length_b                    9.526039
_cell_length_c                    10.636155
_cell_angle_alpha                 89.747034
_cell_angle_beta                  90.178286
_cell_angle_gamma                 90.035862
_cell_volume                      1097.29293145

loop_
_atom_site_label
_atom_site_type_symbol
_atom_type_description
_atom_site_fract_x
_atom_site_fract_y
_atom_site_fract_z
_atom_type_partial_charge
C1    C     C_R   0.871768 0.500028 0.500097 0.025298
C2    C     C_3   0.399731 0.428381 0.041910 -0.159543
C3    C     C_3   0.398590 0.560717 0.958230 0.282934
C4    C     C_3   0.601409 0.439282 0.041769 0.282936
C5    C     C_3   0.500851 0.498603 0.877334 0.018321
C6    C     C_3   0.499148 0.501396 0.122666 0.018320
C7    C     C_R   0.423548 0.074715 0.421477 0.018139
C8    C     C_R   0.576452 0.925285 0.578523 0.018141
C9    C     C_R   0.576436 0.074072 0.578542 0.013843
C10   C     C_R   0.423564 0.925928 0.421458 0.013845
C11   C     C_R   0.063780 0.372427 0.498726 -0.141617
C12   C     C_R   0.128232 0.499972 0.499903 0.025296
C13   C     C_R   0.936220 0.627573 0.501275 -0.141614
C14   C     C_R   0.936053 0.372453 0.498854 -0.135533
C15   C     C_R   0.063947 0.627547 0.501147 -0.135532
C16   C     C_3   0.213933 0.669794 0.999422 -0.117527
C17   C     C_3   0.785994 0.330045 0.000574 -0.117525
C18   C     C_R   0.262084 0.499976 0.499914 0.555036
C19   C     C_R   0.737915 0.500024 0.500086 0.555037
C20   C     C_R   0.499811 0.500384 0.259318 0.579678
C21   C     C_R   0.500189 0.499616 0.740682 0.579676
C22   C     C_3   0.496015 0.635052 0.039940 -0.143059
C23   C     C_3   0.503984 0.364947 0.960060 -0.143090
C24   C     C_3   0.600268 0.571618 0.958090 -0.159512
Cu1   Cu    Cu3+1 0.500000 0.640660 0.500000 0.956349
Cu2   Cu    Cu3+1 0.500000 0.359340 0.500000 0.956344
H1    H     H_    0.362264 0.131004 0.358565 0.102869
H2    H     H_    0.888246 0.727308 0.502326 0.126703
H3    H     H_    0.887949 0.272724 0.497926 0.130050
H4    H     H_    0.112051 0.727276 0.502074 0.130051
H5    H     H_    0.259399 0.749473 0.060120 0.105421
H6    H     H_    0.179804 0.580295 0.057141 0.110551
H7    H     H_    0.132349 0.720408 0.955194 0.140347
H8    H     H_    0.820013 0.419415 0.942626 0.110500
H9    H     H_    0.740493 0.250182 0.940099 0.105453
H10   H     H_    0.867653 0.279593 0.044804 0.140338
H11   H     H_    0.637735 0.868996 0.641435 0.102866
H12   H     H_    0.637673 0.129847 0.641497 0.097879
H13   H     H_    0.362327 0.870153 0.358503 0.097883
H14   H     H_    0.491284 0.744498 0.075036 0.119227
H15   H     H_    0.508707 0.255502 0.924962 0.119206
H16   H     H_    0.682037 0.628258 0.920798 0.102834
H17   H     H_    0.317967 0.371736 0.079205 0.102810
H18   H     H_    0.111754 0.272692 0.497675 0.126703
N1    N     N_R   0.500000 0.852070 0.500000 -0.223267
N2    N     N_R   0.500000 0.147930 0.500000 -0.223268
O1    O     O_R   0.319640 0.618740 0.499990 -0.504969
O2    O     O_3   0.706603 0.376304 0.096458 -0.546120
O3    O     O_R   0.680360 0.381260 0.500010 -0.504970
O4    O     O_R   0.680360 0.618740 0.500010 -0.515199
O5    O     O_R   0.319640 0.381260 0.499990 -0.515199
O6    O     O_R   0.499970 0.618770 0.316850 -0.517606
O7    O     O_R   0.500030 0.381230 0.683150 -0.517606
O8    O     O_R   0.500030 0.618770 0.683150 -0.481001
O9    O     O_R   0.499970 0.381230 0.316850 -0.481007
O10   O     O_3   0.293409 0.623720 0.903540 -0.546120

loop_
_geom_bond_atom_site_label_1
_geom_bond_atom_site_label_2
_ccdc_geom_bond_type
C7    C10   A    
C11   C12   A    
C17   O2    S    
C13   H2    S    
C17   H10   S    
C16   H7    S    
C16   H6    S    
C24   H16   S    
C3    O10   S    
Cu1   O1    S    
C5    C23   S    
C12   C15   A    
C2    H17   S    
C22   H14   S    
C18   O1    A    
C10   N1    A    
C16   O10   S    
C2    C3    S    
Cu1   O6    S    
C7    H1    S    
C11   H18   S    
C20   O6    A    
Cu2   O5    S    
Cu2   O9    S    
C16   H5    S    
C21   O7    A    
C19   O4    A    
C7    N2    A    
C2    C6    S    
C5    C24   S    
C6    C20   S    
C20   O9    A    
C9    H12   S    
C18   O5    A    
C13   C15   A    
C21   O8    A    
C4    C24   S    
C11   C14   A    
C22   C24   S    
C1    C19   S    
C1    C13   A    
C17   H8    S    
Cu2   N2    S    
C14   H3    S    
C6    C22   S    
Cu2   O7    S    
Cu1   N1    S    
C8    H11   S    
C9    N2    A    
C5    C21   S    
Cu1   O8    S    
C15   H4    S    
C4    C6    S    
C4    O2    S    
Cu2   O3    S    
C12   C18   S    
C2    C23   S    
C4    C23   S    
C19   O3    A    
C8    N1    A    
C10   H13   S    
C3    C22   S    
C1    C14   A    
C17   H9    S    
Cu1   Cu2   S    
Cu1   O4    S    
C8    C9    A    
C3    C5    S    
C23   H15   S    
