data_mof_unit_59934.cif
_audit_creation_date              2012-12-11T14:30:46-0500
_audit_creation_method            fapswitch 2.2
_symmetry_space_group_name_H-M    P1
_symmetry_Int_Tables_number       1
_space_group_crystal_system       triclinic
_cell_length_a                    17.381561
_cell_length_b                    24.362383
_cell_length_c                    14.87426
_cell_angle_alpha                 89.893412
_cell_angle_beta                  125.358234
_cell_angle_gamma                 89.976706
_cell_volume                      5136.80351135

loop_
_atom_site_label
_atom_site_type_symbol
_atom_type_description
_atom_site_fract_x
_atom_site_fract_y
_atom_site_fract_z
_atom_type_partial_charge
C1    C     C_R   0.814321 0.632263 0.906716 -0.135837
C2    C     C_R   0.053346 0.500915 0.731251 0.134381
C3    C     C_R   0.548274 0.001483 0.358686 0.137269
C4    C     C_R   0.553346 0.000915 0.731251 0.134381
C5    C     C_R   0.687140 0.501152 0.647149 0.121231
C6    C     C_R   0.324278 0.500015 0.278208 0.112712
C7    C     C_R   0.187141 0.001152 0.647149 0.121230
C8    C     C_R   0.824278 0.000015 0.278208 0.112711
C9    C     C_3   0.516814 0.463471 0.524381 0.546770
C10   C     C_3   0.491920 0.450385 0.410288 0.540021
C11   C     C_3   0.016815 0.963472 0.524382 0.546771
C12   C     C_R   0.146447 0.653345 0.092421 -0.159849
C13   C     C_3   0.991920 0.950385 0.410288 0.540022
C14   C     C_3   0.449946 0.512756 0.481075 -0.349648
C15   C     C_3   0.570950 0.488073 0.428038 -0.347378
C16   C     C_3   0.949946 0.012757 0.481075 -0.349648
C17   C     C_3   0.070950 0.988072 0.428038 -0.347379
C18   C     C_3   0.424020 0.499378 0.365067 -0.002095
C19   C     C_3   0.595424 0.500957 0.543292 -0.010092
C20   C     C_3   0.924020 0.999378 0.365067 -0.002095
C21   C     C_3   0.095424 0.000957 0.543292 -0.010092
C22   C     C_3   0.501415 0.537756 0.381955 -0.135139
C23   C     C_R   0.314321 0.132263 0.906716 -0.135836
C24   C     C_3   0.528667 0.550712 0.499021 -0.148954
C25   C     C_3   0.001416 0.037756 0.381955 -0.135138
C26   C     C_3   0.028667 0.050712 0.499020 -0.148955
C27   C     C_2   0.104517 0.776829 0.918301 0.129583
C28   C     C_2   0.737099 0.683632 0.077528 0.114085
C29   C     C_2   0.604518 0.276829 0.918301 0.129583
C30   C     C_2   0.237099 0.183632 0.077528 0.114085
C31   C     C_2   0.131022 0.744688 0.005689 -0.264045
C32   C     C_2   0.754472 0.684372 0.000006 -0.269102
C33   C     C_2   0.631022 0.244688 0.005689 -0.264045
C34   C     C_R   0.646447 0.153345 0.092421 -0.159849
C35   C     C_2   0.254472 0.184372 0.000006 -0.269102
C36   C     C_2   0.667779 0.320560 0.929284 -0.169293
C37   C     C_2   0.188442 0.230677 0.084949 -0.165113
C38   C     C_2   0.167779 0.820560 0.929284 -0.169293
C39   C     C_2   0.688442 0.730677 0.084949 -0.165112
C40   C     C_R   0.912964 0.369452 0.095662 -0.144312
C41   C     C_R   0.052111 0.349574 0.906992 -0.169381
C42   C     C_R   0.412964 0.869452 0.095662 -0.144312
C43   C     C_R   0.552111 0.849574 0.906992 -0.169381
C44   C     C_2   0.760890 0.318317 0.008229 -0.218646
C45   C     C_R   0.826563 0.352763 0.004621 0.150398
C46   C     C_2   0.124787 0.259027 0.994305 -0.221250
C47   C     C_2   0.260890 0.818317 0.008229 -0.218646
C48   C     C_2   0.624787 0.759027 0.994305 -0.221250
C49   C     C_2   0.115336 0.460993 0.540418 -0.126140
C50   C     C_2   0.115832 0.457357 0.639128 -0.106985
C51   C     C_2   0.615336 0.960993 0.540418 -0.126139
C52   C     C_2   0.615832 0.957357 0.639128 -0.106986
C53   C     C_2   0.072497 0.503110 0.469654 -0.193828
C54   C     C_2   0.106555 0.502331 0.683619 -0.187909
C55   C     C_2   0.572497 0.003110 0.469654 -0.193828
C56   C     C_R   0.111772 0.317648 0.998044 0.158357
C57   C     C_2   0.606556 0.002331 0.683619 -0.187909
C58   C     C_R   0.038570 0.547035 0.297947 -0.144074
C59   C     C_R   0.021846 0.546838 0.755474 -0.147555
C60   C     C_R   0.538570 0.047035 0.297947 -0.144074
C61   C     C_R   0.521846 0.046838 0.755474 -0.147555
C62   C     C_R   0.739357 0.455427 0.703233 -0.093505
C63   C     C_R   0.267594 0.454612 0.250854 -0.134923
C64   C     C_R   0.239357 0.955427 0.703233 -0.093504
C65   C     C_R   0.767594 0.954612 0.250854 -0.134923
C66   C     C_R   0.041885 0.455698 0.300223 -0.126010
C67   C     C_R   0.326563 0.852764 0.004620 0.150398
C68   C     C_R   0.019225 0.455167 0.753086 -0.117582
C69   C     C_R   0.541885 0.955698 0.300223 -0.126010
C70   C     C_R   0.519225 0.955167 0.753086 -0.117582
C71   C     C_R   0.737788 0.547048 0.702883 -0.148879
C72   C     C_R   0.269406 0.546547 0.250991 -0.142481
C73   C     C_R   0.237789 0.047048 0.702883 -0.148879
C74   C     C_R   0.769406 0.046547 0.250991 -0.142482
C75   C     C_R   0.818184 0.370737 0.910961 -0.117103
C76   C     C_R   0.144821 0.349766 0.089751 -0.102709
C77   C     C_R   0.318184 0.870737 0.910961 -0.117103
C78   C     C_R   0.611772 0.817648 0.998044 0.158357
C79   C     C_R   0.644821 0.849766 0.089751 -0.102709
C80   C     C_R   0.907610 0.631748 0.091600 -0.106781
C81   C     C_R   0.054983 0.652979 0.909814 -0.128704
C82   C     C_R   0.407610 0.131748 0.091600 -0.106780
C83   C     C_R   0.554983 0.152979 0.909814 -0.128704
C84   C     C_R   0.820999 0.648635 0.000047 0.141935
C85   C     C_R   0.112714 0.685755 0.000621 0.147718
C86   C     C_R   0.320999 0.148635 0.000047 0.141934
C87   C     C_R   0.612714 0.185755 0.000621 0.147718
C88   C     C_3   0.445520 0.401282 0.570912 -0.265266
C89   C     C_R   0.048274 0.501483 0.358686 0.137269
C90   C     C_3   0.545048 0.363762 0.410795 -0.267624
C91   C     C_3   0.945520 0.901283 0.570913 -0.265263
C92   C     C_3   0.045048 0.863761 0.410796 -0.267626
C93   C     C_1   0.019628 0.767707 0.809321 0.014229
C94   C     C_1   0.775506 0.642198 0.163022 0.043520
C95   C     C_1   0.519628 0.267707 0.809321 0.014229
C96   C     C_1   0.275506 0.142198 0.163022 0.043520
H1    H     H_    0.757791 0.641183 0.822046 0.096656
H2    H     H_    0.724030 0.715667 0.936212 0.135931
H3    H     H_    0.683549 0.259664 0.088200 0.127307
H4    H     H_    0.224030 0.215667 0.936212 0.135931
H5    H     H_    0.639964 0.350719 0.863373 0.154260
H6    H     H_    0.217325 0.246835 0.166567 0.127430
H7    H     H_    0.139964 0.850719 0.863373 0.154260
H8    H     H_    0.717325 0.746836 0.166567 0.127430
H9    H     H_    0.792361 0.288454 0.074525 0.133066
H10   H     H_    0.091761 0.240878 0.913188 0.133063
H11   H     H_    0.292361 0.788454 0.074525 0.133066
H12   H     H_    0.182888 0.667880 0.176317 0.092102
H13   H     H_    0.591761 0.740878 0.913188 0.133063
H14   H     H_    0.136872 0.424831 0.517733 0.117748
H15   H     H_    0.106074 0.416728 0.660889 0.117059
H16   H     H_    0.636872 0.924831 0.517733 0.117748
H17   H     H_    0.606074 0.916728 0.660889 0.117059
H18   H     H_    0.048135 0.539014 0.489409 0.135470
H19   H     H_    0.122950 0.542611 0.667589 0.130369
H20   H     H_    0.548135 0.039014 0.489409 0.135470
H21   H     H_    0.622950 0.042611 0.667589 0.130369
H22   H     H_    0.942706 0.360734 0.181112 0.096804
H23   H     H_    0.257790 0.141183 0.822046 0.096656
H24   H     H_    0.004001 0.334777 0.823525 0.091422
H25   H     H_    0.442706 0.860734 0.181112 0.096804
H26   H     H_    0.504001 0.834777 0.823525 0.091422
H27   H     H_    0.053645 0.588962 0.326964 0.090734
H28   H     H_    0.036252 0.589122 0.748293 0.102507
H29   H     H_    0.553645 0.088962 0.326964 0.090734
H30   H     H_    0.536252 0.089122 0.748293 0.102507
H31   H     H_    0.724575 0.413530 0.674049 0.094279
H32   H     H_    0.288667 0.412042 0.268081 0.144318
H33   H     H_    0.224575 0.913530 0.674049 0.094278
H34   H     H_    0.682888 0.167880 0.176317 0.092102
H35   H     H_    0.788667 0.912042 0.268082 0.144318
H36   H     H_    0.058288 0.413811 0.329606 0.081388
H37   H     H_    0.030827 0.412606 0.744348 0.092875
H38   H     H_    0.558288 0.913811 0.329606 0.081388
H39   H     H_    0.530827 0.912606 0.744348 0.092875
H40   H     H_    0.722367 0.588958 0.673459 0.093089
H41   H     H_    0.292735 0.588762 0.268177 0.106705
H42   H     H_    0.222367 0.088958 0.673459 0.093089
H43   H     H_    0.792735 0.088762 0.268177 0.106706
H44   H     H_    0.760997 0.362698 0.826252 0.108637
H45   H     H_    0.491822 0.568193 0.320596 0.132410
H46   H     H_    0.181675 0.335682 0.174013 0.081671
H47   H     H_    0.260997 0.862698 0.826252 0.108637
H48   H     H_    0.681674 0.835682 0.174013 0.081671
H49   H     H_    0.938329 0.641015 0.176950 0.099521
H50   H     H_    0.007330 0.665700 0.825231 0.108708
H51   H     H_    0.438329 0.141015 0.176950 0.099521
H52   H     H_    0.507330 0.165700 0.825231 0.108708
H53   H     H_    0.398935 0.523191 0.500622 0.151642
H54   H     H_    0.623346 0.478612 0.410238 0.150881
H55   H     H_    0.898936 0.023191 0.500622 0.151642
H56   H     H_    0.545542 0.592005 0.537361 0.125097
H57   H     H_    0.123345 0.978612 0.410238 0.150881
H58   H     H_    0.410605 0.381027 0.489252 0.158947
H59   H     H_    0.397530 0.432055 0.569350 0.143202
H60   H     H_    0.459537 0.369185 0.631659 0.178020
H61   H     H_    0.575438 0.358716 0.499780 0.159754
H62   H     H_    0.599724 0.378619 0.400061 0.139185
H63   H     H_    0.522264 0.322607 0.372273 0.172392
H64   H     H_    0.910605 0.881028 0.489253 0.158947
H65   H     H_    0.897530 0.932056 0.569351 0.143202
H66   H     H_    0.959537 0.869186 0.631660 0.178019
H67   H     H_    0.991822 0.068192 0.320596 0.132410
H68   H     H_    0.075440 0.858717 0.499781 0.159753
H69   H     H_    0.099722 0.878619 0.400058 0.139187
H70   H     H_    0.022264 0.822606 0.372276 0.172393
H71   H     H_    0.045542 0.092005 0.537360 0.125097
H72   H     H_    0.183549 0.759664 0.088200 0.127307
N1    N     N_R   0.892320 0.603520 0.941090 -0.042196
N2    N     N_R   0.973240 0.529450 0.794410 -0.043046
N3    N     N_R   0.526760 0.029450 0.205590 -0.040110
N4    N     N_R   0.473240 0.029450 0.794410 -0.043046
N5    N     N_R   0.819350 0.473090 0.793940 -0.047988
N6    N     N_R   0.180650 0.473090 0.206060 -0.050909
N7    N     N_R   0.319350 0.973090 0.793940 -0.047988
N8    N     N_R   0.680650 0.973090 0.206060 -0.050909
N9    N     N_R   0.027860 0.473090 0.206590 -0.041212
N10   N     N_R   0.972140 0.473090 0.793410 -0.046861
N11   N     N_R   0.527860 0.973090 0.206590 -0.041212
N12   N     N_R   0.107680 0.603520 0.058910 -0.038251
N13   N     N_R   0.472140 0.973090 0.793410 -0.046861
N14   N     N_R   0.818250 0.529450 0.792940 -0.040513
N15   N     N_R   0.181750 0.529450 0.207060 -0.043069
N16   N     N_R   0.318250 0.029450 0.792940 -0.040513
N17   N     N_R   0.681750 0.029450 0.207060 -0.043069
N18   N     N_R   0.896320 0.399020 0.944720 -0.045616
N19   N     N_R   0.103680 0.399020 0.055280 -0.043904
N20   N     N_R   0.396320 0.899020 0.944720 -0.045616
N21   N     N_R   0.603680 0.899020 0.055280 -0.043904
N22   N     N_R   0.949790 0.603520 0.054810 -0.046808
N23   N     N_R   0.392320 0.103520 0.941090 -0.042196
N24   N     N_R   0.050210 0.603520 0.945190 -0.044998
N25   N     N_R   0.449790 0.103520 0.054810 -0.046808
N26   N     N_R   0.550210 0.103520 0.945190 -0.044998
N27   N     N_1   0.951569 0.761000 0.721760 -0.114229
N28   N     N_1   0.806114 0.609062 0.231410 -0.094921
N29   N     N_1   0.451569 0.261000 0.721760 -0.114229
N30   N     N_1   0.306114 0.109062 0.231410 -0.094921
N31   N     N_R   0.607680 0.103520 0.058910 -0.038251
N32   N     N_R   0.953790 0.399020 0.058440 -0.042044
N33   N     N_R   0.046210 0.399020 0.941560 -0.038864
N34   N     N_R   0.453790 0.899020 0.058440 -0.042044
N35   N     N_R   0.546210 0.899020 0.941560 -0.038864
N36   N     N_R   0.026760 0.529450 0.205590 -0.040110
Ni1   Ni    Ni4+2 0.934100 0.565890 0.869590 0.215915
Ni2   Ni    Ni4+2 0.065900 0.565890 0.130410 0.210794
Ni3   Ni    Ni4+2 0.434100 0.065890 0.869590 0.215915
Ni4   Ni    Ni4+2 0.565900 0.065890 0.130410 0.210794
Ni5   Ni    Ni4+2 0.068420 0.436630 0.132700 0.205643
Ni6   Ni    Ni4+2 0.931580 0.436630 0.867300 0.206892
Ni7   Ni    Ni4+2 0.568420 0.936630 0.132700 0.205643
Ni8   Ni    Ni4+2 0.431580 0.936630 0.867300 0.206892
O1    O     O_3   0.532039 0.425296 0.604735 -0.631383
O2    O     O_3   0.465956 0.398820 0.357613 -0.630986
O3    O     O_3   0.032039 0.925296 0.604735 -0.631383
O4    O     O_3   0.965955 0.898820 0.357614 -0.630987

loop_
_geom_bond_atom_site_label_1
_geom_bond_atom_site_label_2
_ccdc_geom_bond_type
C40   H22   S    
C21   C26   S    
C69   H38   S    
C31   C85   S    
N11   Ni7   S    
N6    Ni5   S    
N20   Ni8   S    
N24   Ni1   S    
C14   C18   S    
C83   C87   A    
N5    Ni6   S    
C67   C77   A    
N34   Ni7   S    
C80   C84   A    
C17   H57   S    
C4    C70   A    
C82   H51   S    
C39   H8    S    
C7    C73   A    
C44   H9    S    
N21   N35   A    
C1    C84   A    
C6    C72   A    
N26   Ni3   S    
C29   C36   S    
C58   H27   S    
C50   C54   D    
N16   Ni3   S    
C14   C24   S    
C12   C85   A    
N2    N10   A    
N13   Ni8   S    
C94   N28   T    
C88   H60   S    
C13   O4    S    
C60   H29   S    
C3    C69   A    
C10   C18   S    
C2    C68   A    
C10   C15   S    
N1    Ni1   S    
C37   H6    S    
C35   C86   S    
C2    C54   S    
C55   H20   S    
C27   C38   S    
C48   C78   S    
C29   C33   D    
N21   Ni7   S    
N10   Ni6   S    
C28   C94   S    
N9    Ni5   S    
C90   H63   S    
C50   H15   S    
C82   N25   A    
C30   C96   S    
C24   H56   S    
C3    C55   S    
C34   N31   A    
N22   Ni2   S    
C15   C22   S    
C80   H49   S    
N19   Ni5   S    
C23   C86   A    
C4    C57   S    
C91   O3    S    
C91   H66   S    
C61   H30   S    
N3    Ni4   S    
C22   H45   S    
C59   N2    A    
C9    C10   S    
C63   H32   S    
C95   N29   T    
C73   H42   S    
C74   N17   A    
C3    C60   A    
C92   H68   S    
C83   N26   A    
C48   H13   S    
C42   N34   A    
C58   N36   A    
C8    C65   A    
N25   Ni4   S    
C18   C22   S    
N17   Ni4   S    
N18   N32   A    
C93   N27   T    
C81   N24   A    
C80   N22   A    
N1    N22   A    
N12   Ni2   S    
C92   H69   S    
C23   N23   A    
C65   H35   S    
C9    C19   S    
C75   H44   S    
C66   C89   A    
C66   H36   S    
C16   C26   S    
C40   C45   A    
C6    C18   S    
C66   N9    A    
C26   H71   S    
C88   O1    S    
C27   C31   D    
C51   C52   S    
C88   H59   S    
C28   C32   D    
C72   N15   A    
N2    Ni1   S    
N8    N17   A    
N12   N24   A    
C1    H1    S    
C71   H40   S    
C12   H12   S    
C73   N16   A    
C78   C79   A    
C10   O2    S    
C40   N32   A    
C28   C39   S    
C9    O1    S    
C25   C26   S    
C52   H17   S    
C62   N5    A    
C4    C61   A    
C11   C21   S    
C17   C21   S    
C53   H18   S    
C30   C37   S    
C36   H5    S    
N20   N34   A    
C88   H58   S    
C6    C63   A    
C90   H62   S    
C15   C19   S    
C9    C14   S    
C77   H47   S    
C41   C56   A    
C38   H7    S    
C43   C78   A    
C11   C16   S    
C70   N13   A    
C79   H48   S    
C51   H16   S    
C16   C20   S    
C54   H19   S    
C8    C74   A    
N23   N25   A    
C96   N30   T    
N9    N36   A    
C47   C67   S    
C61   N4    A    
N23   Ni3   S    
N7    Ni8   S    
C31   H72   S    
C64   N7    A    
C43   H26   S    
C38   C47   D    
C76   N19   A    
C30   C35   D    
C72   H41   S    
C8    C20   S    
N36   Ni2   S    
N5    N14   A    
C81   H50   S    
C47   H11   S    
C56   C76   A    
N18   Ni6   S    
C65   N8    A    
C53   C89   S    
C42   C67   A    
C22   C24   S    
N35   Ni8   S    
C27   C93   S    
C75   N18   A    
C41   N33   A    
C35   H4    S    
N33   Ni6   S    
C90   O2    S    
C44   C45   S    
C63   N6    A    
C57   H21   S    
C7    C21   S    
C59   H28   S    
C77   N20   A    
C68   H37   S    
C13   C20   S    
C12   N12   A    
C2    C59   A    
C60   N3    A    
C79   N21   A    
N4    Ni3   S    
C32   C84   S    
C39   C48   D    
C46   C56   S    
N6    N15   A    
C5    C19   S    
C74   H43   S    
N19   N33   A    
N32   Ni5   S    
N8    Ni7   S    
C13   C17   S    
C45   C75   A    
N14   Ni1   S    
C17   C25   S    
N3    N11   A    
C90   H61   S    
C71   N14   A    
C19   C24   S    
C33   C87   S    
C5    C71   A    
C82   C86   A    
C69   N11   A    
C43   N35   A    
C11   C13   S    
C91   H64   S    
C70   H39   S    
C25   H67   S    
C49   C53   D    
C46   H10   S    
C14   H53   S    
C68   N10   A    
N31   Ni4   S    
C32   H2    S    
C5    C62   A    
C92   O4    S    
C16   H55   S    
C51   C55   D    
C34   C87   A    
C41   H24   S    
C58   C89   A    
C7    C64   A    
C36   C44   D    
C52   C57   D    
C29   C95   S    
C83   H52   S    
N26   N31   A    
C92   H70   S    
C62   H31   S    
C64   H33   S    
C34   H34   S    
C49   C50   S    
C20   C25   S    
C1    N1    A    
N15   Ni2   S    
C91   H65   S    
C23   H23   S    
C33   H3    S    
C37   C46   D    
N4    N13   A    
C15   H54   S    
C81   C85   A    
C42   H25   S    
C11   O3    S    
C49   H14   S    
N7    N16   A    
C76   H46   S    
