data_mof_unit_48980.cif
_audit_creation_date              2012-12-11T14:52:56-0500
_audit_creation_method            fapswitch 2.2
_symmetry_space_group_name_H-M    P1
_symmetry_Int_Tables_number       1
_space_group_crystal_system       triclinic
_cell_length_a                    8.227348
_cell_length_b                    15.117084
_cell_length_c                    26.938741
_cell_angle_alpha                 97.310506
_cell_angle_beta                  92.549651
_cell_angle_gamma                 80.629854
_cell_volume                      3277.92168908

loop_
_atom_site_label
_atom_site_type_symbol
_atom_type_description
_atom_site_fract_x
_atom_site_fract_y
_atom_site_fract_z
_atom_type_partial_charge
Ba1   Ba    Ba6+2 0.860900 0.457020 0.523210 1.643155
Ba2   Ba    Ba6+2 0.328940 0.542910 0.476780 1.653525
C1    C     C_3   0.847002 0.187240 0.705058 -0.314249
C2    C     C_R   0.858913 0.567752 0.177085 0.578291
C3    C     C_2   0.727239 0.510079 0.270435 -0.085369
C4    C     C_3   0.258080 0.251894 0.650748 0.273482
C5    C     C_3   0.686018 0.507227 0.324825 -0.020077
C6    C     C_1   0.981440 0.480109 0.342676 0.032662
C7    C     C_2   0.020224 0.480063 0.295243 -0.113652
C8    C     C_2   0.886631 0.496524 0.255794 0.201063
C9    C     C_R   0.010224 0.497501 0.102076 -0.077792
C10   C     C_R   0.078794 0.425577 0.128853 -0.034020
C11   C     C_R   0.189183 0.354590 0.104628 -0.063915
C12   C     C_3   0.783848 0.234979 0.659754 0.476470
C13   C     C_R   0.899033 0.568818 0.126483 -0.031908
C14   C     C_2   0.834511 0.516874 0.358887 -0.265294
C15   C     C_2   0.353216 0.483154 0.641255 -0.271605
C16   C     C_3   0.311816 0.214578 0.699689 -0.353004
C17   C     C_R   0.207182 0.425982 0.975686 0.001469
C18   C     C_R   0.024156 0.571617 0.973325 0.026852
C19   C     C_R   0.136763 0.498946 0.949140 0.047357
C20   C     C_R   0.318297 0.355641 0.949988 -0.128064
C21   C     C_R   0.359786 0.355728 0.900130 0.166370
C22   C     C_R   0.290570 0.427833 0.873176 -0.024125
C23   C     C_3   0.478186 0.686963 0.629724 0.303281
C24   C     C_R   0.179293 0.499436 0.897910 -0.113142
C25   C     C_R   0.110425 0.571945 0.871444 -0.028303
C26   C     C_R   0.153197 0.572890 0.821127 0.586289
C27   C     C_R   0.328889 0.430352 0.822218 0.601691
C28   C     C_3   0.238412 0.266125 0.412752 0.299495
C29   C     C_2   0.460467 0.490723 0.729579 -0.072947
C30   C     C_3   0.501211 0.494079 0.675143 -0.045851
C31   C     C_1   0.206656 0.519926 0.657459 0.037948
C32   C     C_2   0.167480 0.519884 0.704845 -0.101343
C33   C     C_2   0.301105 0.503607 0.744275 0.200070
C34   C     C_3   0.444637 0.724675 0.684064 -0.370394
C35   C     C_R   0.165021 0.425400 0.026797 0.026944
C36   C     C_R   0.052502 0.498003 0.050885 0.050353
C37   C     C_R   0.981692 0.571085 0.024378 0.018690
C38   C     C_R   0.231437 0.354362 0.055064 -0.100716
C39   C     C_R   0.830252 0.640212 0.099874 -0.061391
C40   C     C_3   0.306147 0.168808 0.392842 -0.404913
C41   C     C_R   0.957859 0.642793 0.945293 -0.100300
C42   C     C_R   0.000143 0.642840 0.895829 -0.058336
C43   C     C_R   0.870106 0.641448 0.050229 -0.101241
C44   C     C_R   0.753586 0.766748 0.479612 -0.279004
C45   C     C_3   0.994767 0.739761 0.340918 0.291987
C46   C     C_R   0.840402 0.826385 0.461078 0.012165
C47   C     C_R   0.777233 0.919193 0.465912 -0.127667
C48   C     C_R   0.629732 0.953835 0.492518 0.016663
C49   C     C_R   0.552129 0.891075 0.513758 -0.107382
C50   C     C_R   0.612575 0.798963 0.506694 0.046396
C51   C     C_R   0.403163 0.085308 0.521571 -0.132516
C52   C     C_3   0.971003 0.732430 0.582788 0.301604
C53   C     C_R   0.342020 0.177609 0.529538 0.013586
C54   C     C_R   0.578680 0.211404 0.491310 0.055549
C55   C     C_R   0.645969 0.119321 0.485350 -0.119222
C56   C     C_3   0.019096 0.756976 0.287620 -0.346250
C57   C     C_R   0.559843 0.053619 0.500170 0.018626
C58   C     C_R   0.432000 0.240251 0.515896 -0.288110
C59   C     C_3   0.943340 0.834475 0.596537 -0.374206
C60   C     C_3   0.801239 0.242042 0.371220 0.346549
C61   C     C_3   0.780581 0.255354 0.315852 -0.337681
C62   C     C_3   0.851761 0.141015 0.376030 -0.387072
C63   C     C_3   0.500050 0.768645 0.363049 0.343780
C64   C     C_3   0.493889 0.858412 0.342641 -0.369384
C65   C     C_R   0.035371 0.425616 0.179277 0.590803
H1    H     H_    0.889283 0.260734 0.645690 0.114838
H2    H     H_    0.897812 0.280377 0.387081 0.077093
H3    H     H_    0.949639 0.131610 0.694187 0.103769
H4    H     H_    0.688894 0.214940 0.297096 0.121860
H5    H     H_    0.900270 0.234806 0.296780 0.106893
H6    H     H_    0.736724 0.327334 0.311942 0.090775
H7    H     H_    0.746474 0.158792 0.720527 0.119445
H8    H     H_    0.362838 0.666594 0.612455 0.027984
H9    H     H_    0.577366 0.627447 0.628292 0.028238
H10   H     H_    0.353407 0.787768 0.685778 0.137942
H11   H     H_    0.393508 0.675464 0.703569 0.074090
H12   H     H_    0.410385 0.167140 0.367761 0.137818
H13   H     H_    0.560626 0.739609 0.703586 0.124403
H14   H     H_    0.892708 0.236070 0.734592 0.104146
H15   H     H_    0.379069 0.144538 0.692070 0.115923
H16   H     H_    0.052730 0.669263 0.344764 0.073439
H17   H     H_    0.860620 0.747810 0.347452 -0.015639
H18   H     H_    0.152686 0.750605 0.280449 0.141253
H19   H     H_    0.965763 0.706690 0.260960 0.127626
H20   H     H_    0.957140 0.825871 0.281609 0.118218
H21   H     H_    0.607786 0.759490 0.389053 -0.034300
H22   H     H_    0.385148 0.771273 0.383629 0.108718
H23   H     H_    0.349448 0.129054 0.423864 0.062634
H24   H     H_    0.483962 0.914106 0.374061 0.072915
H25   H     H_    0.385155 0.870201 0.317000 0.134826
H26   H     H_    0.183427 0.319951 0.659329 0.053603
H27   H     H_    0.607714 0.858273 0.321941 0.122625
H28   H     H_    0.148256 0.467350 0.284678 0.135300
H29   H     H_    0.244354 0.298180 0.124080 0.121186
H30   H     H_    0.560680 0.482569 0.757052 0.103244
H31   H     H_    0.377057 0.298178 0.967430 0.065540
H32   H     H_    0.317258 0.296614 0.040235 0.067907
H33   H     H_    0.627183 0.518159 0.242908 0.107591
H34   H     H_    0.208895 0.136389 0.371393 0.122606
H35   H     H_    0.744195 0.696176 0.117460 0.121797
H36   H     H_    0.872194 0.700462 0.960339 0.067026
H37   H     H_    0.371115 0.258074 0.631100 0.005573
H38   H     H_    0.944998 0.699492 0.876560 0.120385
H39   H     H_    0.039364 0.532222 0.715323 0.132468
H40   H     H_    0.810187 0.699306 0.033322 0.068329
H41   H     H_    0.820603 0.553667 0.396215 0.068562
H42   H     H_    0.367121 0.445936 0.604022 0.071743
H43   H     H_    0.324516 0.040625 0.531883 0.078736
H44   H     H_    0.846880 0.962149 0.449574 0.068337
H45   H     H_    0.852945 0.709943 0.570904 0.004499
H46   H     H_    0.764649 0.100608 0.468993 0.074179
H47   H     H_    0.448333 0.911662 0.537829 0.071329
H48   H     H_    0.383098 0.311581 0.521779 0.066854
H49   H     H_    0.395011 0.257097 0.721050 0.172369
H50   H     H_    0.801881 0.695295 0.475950 0.060785
H51   H     H_    0.202964 0.214541 0.722553 0.111880
H52   H     H_    0.340832 0.300594 0.428410 0.042068
H53   H     H_    0.148216 0.266666 0.442263 0.028298
H54   H     H_    0.741352 0.107096 0.374898 0.103874
H55   H     H_    0.933425 0.106723 0.345259 0.091996
H56   H     H_    0.058331 0.714842 0.551596 0.074215
H57   H     H_    0.923090 0.132284 0.411402 0.093645
H58   H     H_    0.624481 0.147691 0.632600 0.162223
H59   H     H_    0.690507 0.203871 0.589566 0.180724
H60   H     H_    0.425893 0.221842 0.878870 0.171823
H61   H     H_    0.584242 0.277450 0.898477 0.172269
H62   H     H_    0.848997 0.854316 0.625829 0.133398
H63   H     H_    0.900655 0.868887 0.563354 0.069232
H64   H     H_    0.060457 0.857012 0.610887 0.126177
N1    N     N_R   0.927311 0.496670 0.203270 -0.423198
N2    N     N_R   0.260645 0.502311 0.796734 -0.429665
N3    N     N_3   0.728197 0.169946 0.620508 -0.487120
N4    N     N_3   0.474110 0.281291 0.877353 -0.435221
O1    O     O_2   0.905540 0.548000 0.618290 -0.467734
O2    O     O_2   0.180946 0.821520 0.466321 -0.485086
O3    O     O_3   0.068767 0.801634 0.374164 -0.604609
O4    O     O_3   0.137550 0.547930 0.558110 -0.492747
O5    O     O_3   0.574690 0.391440 0.474610 -0.456781
O6    O     O_2   0.341330 0.720570 0.525000 -0.462011
O7    O     O_3   0.529300 0.753968 0.605591 -0.641751
O8    O     O_2   0.342491 0.570885 0.327513 -0.497651
O9    O     O_3   0.515558 0.698235 0.323346 -0.593445
O10   O     O_2   0.092345 0.361498 0.201531 -0.599595
O11   O     O_2   0.422040 0.367920 0.800329 -0.576516
O12   O     O_3   0.651103 0.277888 0.394563 -0.626861
O13   O     O_2   0.763950 0.630787 0.197893 -0.597412
O14   O     O_2   0.096059 0.637492 0.799262 -0.598771
O15   O     O_3   0.688580 0.383890 0.587540 -0.478918
O16   O     O_2   0.844968 0.426087 0.674364 -0.519803
O17   O     O_3   0.033505 0.692481 0.625077 -0.627036
O18   O     O_3   0.651784 0.303927 0.674572 -0.626908
O19   O     O_2   0.848360 0.279400 0.474970 -0.490180
O20   O     O_3   0.104690 0.337720 0.562900 -0.487881
O21   O     O_2   0.000426 0.178438 0.536242 -0.477739
O22   O     O_3   0.162831 0.193660 0.622228 -0.608118
O23   O     O_2   0.284150 0.451970 0.381680 -0.445914
O24   O     O_3   0.052160 0.451990 0.441880 -0.491401
O25   O     O_3   0.501140 0.616030 0.412450 -0.481349
O26   O     O_3   0.161555 0.308162 0.372891 -0.635257
O27   O     O_3   0.615020 0.608480 0.525380 -0.476583
O28   O     O_3   0.085020 0.662210 0.437090 -0.489706
P1    P     P_3+3 0.070480 0.574800 0.610950 0.995872
P2    P     P_3+3 0.668430 0.292880 0.460530 0.988618
P3    P     P_3+3 0.148324 0.220448 0.560825 0.954454
P4    P     P_3+3 0.119230 0.425130 0.389040 1.006892
P5    P     P_3+3 0.043889 0.779341 0.435239 0.937226
P6    P     P_3+3 0.675360 0.405636 0.652814 0.951112
P7    P     P_3+3 0.526573 0.721668 0.540945 0.951930
P8    P     P_3+3 0.510742 0.595840 0.347063 0.984838

loop_
_geom_bond_atom_site_label_1
_geom_bond_atom_site_label_2
_ccdc_geom_bond_type
H58   N3    S    
C51   H43   S    
C27   N2    Am   
C52   H56   S    
C40   H34   S    
C20   H31   S    
C5    P8    S    
C65   N1    Am   
C19   C24   A    
C56   H20   S    
C33   N2    S    
C38   H32   S    
C51   C57   A    
C2    N1    Am   
C42   H38   S    
C54   C55   A    
C63   H22   S    
O9    P8    S    
C24   C25   A    
C60   C61   S    
C48   C57   S    
O4    P1    S    
C17   C19   A    
H60   N4    S    
C32   C33   S    
C35   C38   A    
C34   H10   S    
C36   C37   A    
C55   C57   A    
O15   P6    S    
C28   H52   S    
O20   P3    S    
C62   H54   S    
C2    O13   D    
C53   P3    S    
C44   C50   A    
C39   H35   S    
O3    P5    S    
Ba1   Ba2   S    
Ba1   O20   S    
C1    H7    S    
C22   C27   A    
C11   C38   A    
C60   C62   S    
O12   P2    S    
C9    C13   A    
C25   C42   A    
C23   O7    S    
Ba1   P1    S    
Ba2   O24   S    
C46   P5    S    
C54   P2    S    
C65   O10   D    
C21   C22   A    
O19   P2    D    
C17   C20   A    
C4    H37   S    
Ba1   O1    S    
C17   C35   A    
C7    C8    S    
C16   H51   S    
Ba1   O4    S    
C59   H62   S    
C64   H27   S    
C47   H44   S    
C26   O14   D    
C6    C14   D    
C64   H25   S    
C53   C58   A    
Ba2   O27   S    
C15   C31   D    
C56   H19   S    
O23   P4    D    
C48   C49   A    
C8    N1    S    
C51   C53   A    
C4    C16   S    
C10   C65   A    
C44   C46   A    
C61   H5    S    
C49   H47   S    
C11   H29   S    
C49   C50   A    
C32   H39   S    
Ba1   O24   S    
C31   P1    S    
C13   C39   A    
C34   H13   S    
H61   N4    S    
C50   P7    S    
C27   O11   D    
C3    C5    S    
C63   O9    S    
C59   H64   S    
C6    C7    D    
C55   H46   S    
C61   H6    S    
C62   H57   S    
C26   N2    Am   
C44   H50   S    
C40   H23   S    
O22   P3    S    
C9    C36   A    
C41   C42   A    
C1    H14   S    
C35   C36   A    
C6    P4    S    
C29   C30   S    
O27   P7    S    
C3    H33   S    
O21   P3    D    
Ba2   O23   S    
C4    H26   S    
C1    H3    S    
C31   C32   D    
C52   H45   S    
Ba1   O15   S    
O17   P1    S    
C45   H17   S    
C10   C11   A    
Ba1   O5    S    
O26   P4    S    
C1    C12   S    
C59   H63   S    
C60   H2    S    
C46   C47   A    
C61   H4    S    
Ba1   O27   S    
C63   C64   S    
C45   H16   S    
C60   O12   S    
C12   O18   S    
C15   C30   S    
C29   C33   D    
Ba2   O4    S    
C16   H49   S    
C56   H18   S    
C4    O22   S    
C63   H21   S    
O1    P1    D    
O5    P2    S    
C18   C37   A    
C7    H28   S    
C5    C14   S    
C39   C43   A    
Ba1   P2    S    
C22   C24   A    
C15   H42   S    
Ba2   O28   S    
C52   O17   S    
C9    C10   A    
C64   H24   S    
C52   C59   S    
C21   N4    S    
C12   N3    S    
O16   P6    D    
C37   C43   A    
C23   H9    S    
Ba2   O5    S    
C2    C13   A    
O28   P5    S    
O8    P8    D    
C3    C8    D    
C34   H11   S    
C45   C56   S    
C28   H53   S    
C62   H55   S    
C45   O3    S    
O6    P7    D    
C16   H15   S    
O25   P8    S    
O24   P4    S    
C29   H30   S    
Ba1   O19   S    
C41   H36   S    
C18   C41   A    
C14   H41   S    
C23   C34   S    
C54   C58   A    
C40   H12   S    
C18   C19   A    
H59   N3    S    
C30   P6    S    
Ba2   O25   S    
C47   C48   A    
O18   P6    S    
C25   C26   A    
Ba2   O6    S    
C12   H1    S    
C20   C21   A    
C28   C40   S    
C58   H48   S    
C28   O26   S    
C23   H8    S    
Ba2   P4    S    
O2    P5    D    
O7    P7    S    
C43   H40   S    
