data_mof_unit_18470.cif
_audit_creation_date              2012-12-10T20:51:41-0500
_audit_creation_method            fapswitch 2.2
_symmetry_space_group_name_H-M    P1
_symmetry_Int_Tables_number       1
_space_group_crystal_system       triclinic
_cell_length_a                    8.086605
_cell_length_b                    8.930641
_cell_length_c                    16.840785
_cell_angle_alpha                 89.49454
_cell_angle_beta                  93.388239
_cell_angle_gamma                 89.998899
_cell_volume                      1214.0439522

loop_
_atom_site_label
_atom_site_type_symbol
_atom_type_description
_atom_site_fract_x
_atom_site_fract_y
_atom_site_fract_z
_atom_type_partial_charge
C1    C     C_R   0.499975 0.217913 0.500010 0.919873
C2    C     C_R   0.500033 0.782076 0.500040 0.962607
C3    C     C_R   0.519739 0.497861 0.653887 0.954506
C4    C     C_R   0.480385 0.506139 0.346134 0.947957
C5    C     C_R   0.524789 0.487537 0.740191 -0.259413
C6    C     C_R   0.477577 0.524406 0.260073 -0.257967
C7    C     C_R   0.390578 0.414886 0.773342 -0.319064
C8    C     C_R   0.616324 0.469132 0.223339 -0.312887
C9    C     C_R   0.375378 0.411972 0.854822 0.453504
C10   C     C_R   0.640853 0.501914 0.144529 0.462143
C11   C     C_R   0.494894 0.484135 0.903877 0.152069
C12   C     C_R   0.521371 0.587162 0.100798 0.120180
C13   C     C_R   0.635109 0.548866 0.871733 -0.230141
C14   C     C_R   0.380921 0.640540 0.135750 -0.223791
C15   C     C_R   0.651380 0.552662 0.790014 0.426358
C16   C     C_R   0.357145 0.611244 0.215767 0.439423
C17   C     C_1   0.499985 0.065163 0.500017 -0.134578
C18   C     C_1   0.500019 0.934806 0.500028 -0.112547
H1    H     H_    0.708238 0.402347 0.257024 0.233678
H2    H     H_    0.295195 0.362347 0.735224 0.237027
H3    H     H_    0.730674 0.598071 0.910891 0.262842
H4    H     H_    0.289713 0.703457 0.099560 0.244906
N1    N     N_1   0.073640 0.500030 0.499990 0.020416
N2    N     N_1   0.926360 0.499970 0.500010 0.019216
N3    N     N_2   0.475630 0.485609 0.986135 -0.028581
N4    N     N_2   0.530671 0.601123 0.018696 -0.113159
O1    O     O_R   0.636850 0.285340 0.500000 -0.620101
O2    O     O_R   0.363150 0.714660 0.500000 -0.595385
O3    O     O_R   0.363100 0.285350 0.500000 -0.619766
O4    O     O_R   0.636900 0.714650 0.500000 -0.604157
O5    O     O_R   0.652140 0.498630 0.616140 -0.552499
O6    O     O_R   0.347860 0.501370 0.383860 -0.550245
O7    O     O_R   0.378390 0.498650 0.616130 -0.628506
O8    O     O_R   0.621610 0.501350 0.383870 -0.629768
Zn1   Zn    Zn3+2 0.682780 0.499990 0.500010 1.087934
Zn2   Zn    Zn3+2 0.317220 0.500010 0.499990 1.092237
S1    S     S_3+6 0.819581 0.433667 0.100736 0.085100
O9    O     O_2   0.901852 0.560587 0.059155 -0.238667
O10   O     O_2   0.939720 0.366721 0.162692 -0.246876
O11   O     O_3   0.762733 0.301425 0.034117 -0.514511
H5    H     H_    0.864596 0.277931 0.006844 0.403461
S2    S     S_3+6 0.200557 0.326748 0.894467 0.077966
O12   O     O_2   0.088732 0.447453 0.922217 -0.240268
O13   O     O_2   0.107591 0.233869 0.832629 -0.266779
O14   O     O_3   0.262656 0.217128 0.972318 -0.501327
H6    H     H_    0.159060 0.179734 0.994012 0.392567
S3    S     S_3+6 0.826068 0.645731 0.753910 0.076000
O15   O     O_2   0.936096 0.532726 0.717544 -0.266266
O16   O     O_2   0.770157 0.760073 0.691992 -0.296788
O17   O     O_3   0.934379 0.732602 0.828432 -0.497086
H7    H     H_    0.037863 0.766245 0.805128 0.397771
S4    S     S_3+6 0.181876 0.691590 0.257588 0.071991
O18   O     O_2   0.073427 0.569442 0.287717 -0.258061
O19   O     O_2   0.238175 0.790911 0.325504 -0.308474
O20   O     O_3   0.071445 0.794267 0.189022 -0.506958
H8    H     H_    0.967435 0.819324 0.214214 0.392884

loop_
_geom_bond_atom_site_label_1
_geom_bond_atom_site_label_2
_ccdc_geom_bond_type
C2    O2    A    
N1    N2    T    
C5    C7    A    
S1    O9    D    
C14   C16   A    
S1    O11   S    
C11   C13   A    
C1    C17   S    
S3    O15   D    
S4    O20   S    
C15   S3    S    
C2    O4    A    
O1    Zn1   S    
C7    C9    A    
C14   H4    S    
O20   H8    S    
C1    O3    A    
C17   C18   T    
C13   H3    S    
S3    O16   D    
O14   H6    S    
C3    O5    A    
C9    C11   A    
O3    Zn2   S    
C9    S2    S    
C4    O6    A    
S2    O13   D    
O4    Zn1   S    
C10   S1    S    
C10   C12   A    
C4    C6    S    
O11   H5    S    
C12   C14   A    
S4    O19   D    
O8    Zn1   S    
S3    O17   S    
C4    O8    A    
C13   C15   A    
O5    Zn1   S    
C5    C15   A    
N2    Zn1   S    
C2    C18   S    
S2    O12   D    
C11   N3    S    
C6    C16   A    
C8    H1    S    
O6    Zn2   S    
O7    Zn2   S    
S4    O18   D    
O2    Zn2   S    
S1    O10   D    
N1    Zn2   S    
C1    O1    A    
C3    O7    A    
C6    C8    A    
O17   H7    S    
N3    N4    D    
C7    H2    S    
C8    C10   A    
C16   S4    S    
C12   N4    S    
C3    C5    S    
S2    O14   S    
