data_mof_unit_66021.cif
_audit_creation_date              2013-03-05T16:38:38-0500
_audit_creation_method            fapswitch 2.2
_symmetry_space_group_name_H-M    P1
_symmetry_Int_Tables_number       1
_space_group_crystal_system       triclinic
_cell_length_a                    15.955181
_cell_length_b                    16.00709
_cell_length_c                    14.79538
_cell_angle_alpha                 90.043371
_cell_angle_beta                  90.009495
_cell_angle_gamma                 89.9562
_cell_volume                      3778.67890202

loop_
_atom_site_label
_atom_site_type_symbol
_atom_site_description
_atom_site_fract_x
_atom_site_fract_y
_atom_site_fract_z
_atom_type_partial_charge
O1    O     O_R   0.500040 0.380310 0.575320 -0.573307
O2    O     O_R   0.499960 0.619690 0.424680 -0.573306
O3    O     O_R   0.500000 0.380310 0.424640 -0.551481
O4    O     O_R   0.500000 0.619690 0.575360 -0.551480
C1    C     C_R   0.499933 0.340927 0.499937 0.823631
C2    C     C_R   0.500067 0.659073 0.500063 0.823630
O5    O     O_R   0.379100 0.499990 0.575330 -0.561611
O6    O     O_R   0.620900 0.500010 0.424670 -0.561610
O7    O     O_R   0.379060 0.499990 0.424640 -0.558548
O8    O     O_R   0.620940 0.500010 0.575360 -0.558548
C3    C     C_R   0.339724 0.500004 0.499988 0.814752
C4    C     C_R   0.660276 0.499996 0.500012 0.814751
Cu1   Cu    Cu3+1 0.500020 0.500000 0.589220 1.063273
Cu2   Cu    Cu3+1 0.499980 0.500000 0.410780 1.063272
C5    C     C_3   0.972181 0.424635 0.523654 0.164037
C6    C     C_3   0.027819 0.575364 0.476346 0.164037
C7    C     C_3   0.028041 0.443390 0.441215 0.160745
C8    C     C_3   0.971959 0.556610 0.558785 0.160745
C9    C     C_1   0.250727 0.500060 0.499987 -0.058368
C10   C     C_1   0.749273 0.499940 0.500013 -0.058368
C11   C     C_3   0.028035 0.481336 0.582410 0.163553
C12   C     C_3   0.971965 0.518664 0.417590 0.163553
C13   C     C_3   0.084675 0.500092 0.499971 -0.224254
C14   C     C_3   0.915325 0.499908 0.500029 -0.224254
C15   C     C_1   0.175723 0.500100 0.499974 0.246500
C16   C     C_1   0.824277 0.499900 0.500026 0.246501
H1    H     H_    0.545758 0.081769 0.633568 0.208165
H2    H     H_    0.454242 0.918231 0.366432 0.208165
C17   C     C_R   0.529601 0.958266 0.578285 0.356801
C18   C     C_R   0.470398 0.041734 0.421715 0.356801
C19   C     C_R   0.503546 0.912663 0.501509 -0.042428
C20   C     C_R   0.496454 0.087337 0.498491 -0.042428
C21   C     C_R   0.474795 0.954325 0.424372 -0.242191
C22   C     C_R   0.525205 0.045675 0.575628 -0.242191
C23   C     C_1   0.502248 0.823075 0.500892 0.095874
C24   C     C_1   0.497752 0.176925 0.499107 0.095874
C25   C     C_1   0.498943 0.251910 0.499725 -0.078303
C26   C     C_1   0.501057 0.748089 0.500275 -0.078303
C27   C     C_R   0.572334 0.523848 0.951878 -0.054900
C28   C     C_R   0.427666 0.476152 0.048122 -0.054900
C29   C     C_R   0.499973 0.500031 0.902817 -0.059772
C30   C     C_R   0.500027 0.499969 0.097183 -0.059772
C31   C     C_R   0.427634 0.476195 0.951842 -0.056268
C32   C     C_R   0.572366 0.523805 0.048158 -0.056267
C33   C     C_1   0.499963 0.500028 0.802444 0.198879
C34   C     C_1   0.500037 0.499972 0.197556 0.198879
N1    N     N_1   0.500030 0.499980 0.276710 -0.137252
N2    N     N_1   0.499970 0.500020 0.723290 -0.137252
N3    N     N_R   0.055324 0.380722 0.376069 0.202707
O9    O     O_R   0.999954 0.337622 0.331534 -0.229685
O10   O     O_R   0.134667 0.367605 0.361878 -0.281009
N4    N     N_R   0.944676 0.619278 0.623931 0.202707
O11   O     O_R   0.000046 0.662378 0.668466 -0.229685
O12   O     O_R   0.865332 0.632395 0.638122 -0.281009
N5    N     N_R   0.945160 0.341178 0.549856 0.201938
O13   O     O_R   0.000707 0.284071 0.567801 -0.229461
O14   O     O_R   0.865870 0.323254 0.555501 -0.298975
N6    N     N_R   0.054839 0.658822 0.450144 0.201937
O15   O     O_R   0.999293 0.715929 0.432199 -0.229461
O16   O     O_R   0.134130 0.676746 0.444499 -0.298975
N7    N     N_R   0.944693 0.539304 0.326302 0.201331
O17   O     O_R   0.000071 0.553498 0.263716 -0.232045
O18   O     O_R   0.865351 0.543572 0.306780 -0.291173
N8    N     N_R   0.055307 0.460695 0.673698 0.201331
O19   O     O_R   0.999929 0.446502 0.736284 -0.232045
O20   O     O_R   0.134649 0.456427 0.693220 -0.291173
N9    N     N_R   0.560325 0.917711 0.658788 0.148572
O21   O     O_R   0.556485 0.955802 0.736435 -0.288082
O22   O     O_R   0.599080 0.846275 0.654286 -0.300114
N10   N     N_R   0.439674 0.082289 0.341211 0.148572
O23   O     O_R   0.443515 0.044198 0.263565 -0.288081
O24   O     O_R   0.400919 0.153725 0.345715 -0.300114
C35   C     C_1   0.647226 0.548386 0.096937 0.287518
N11   N     N_1   0.706962 0.567999 0.135924 -0.141096
C36   C     C_1   0.352774 0.451614 0.903063 0.287518
N12   N     N_1   0.293038 0.432001 0.864076 -0.141096
C37   C     C_1   0.647138 0.548537 0.903130 0.296515
N13   N     N_1   0.706824 0.568243 0.864160 -0.144472
C38   C     C_1   0.352861 0.451463 0.096870 0.296515
N14   N     N_1   0.293176 0.431757 0.135840 -0.144472

loop_
_geom_bond_atom_site_label_1
_geom_bond_atom_site_label_2
_geom_bond_distance
_ccdc_geom_bond_type
N5    O13   1.300226 A    
C1    C25   1.424994 S    
C8    C11   1.540579 S    
C35   N11   1.157447 T    
C36   N12   1.157447 T    
C8    N4    1.456979 S    
C27   C29   1.416047 A    
C37   N13   1.157456 T    
O5    C3    1.279476 A    
C3    C9    1.419968 S    
C7    C13   1.547839 S    
O1    C1    1.280736 A    
C27   C37   1.449936 S    
C24   C25   1.200494 T    
C14   C16   1.452684 S    
N6    O16   1.300144 A    
C30   C34   1.485052 S    
O4    Cu1   1.926986 S    
N7    O18   1.300159 A    
C11   N8    1.457045 S    
C17   N9    1.442529 S    
C28   C31   1.424491 A    
N3    O10   1.300150 A    
C6    C12   1.540596 S    
C2    C26   1.424993 S    
N10   O23   1.301616 A    
C8    C14   1.547839 S    
C28   C30   1.416047 A    
Cu1   Cu2   2.640086 S    
C29   C31   1.416050 A    
O2    C2    1.280736 A    
C30   C32   1.416050 A    
C9    C15   1.196708 T    
C18   N10   1.442529 S    
N4    O12   1.300150 A    
H1    C22   1.084278 S    
C31   C36   1.449930 S    
N9    O21   1.301616 A    
C23   C26   1.200494 T    
O4    C2    1.280466 A    
C7    N3    1.456979 S    
N6    O15   1.300227 A    
C17   C22   1.401458 A    
N9    O22   1.301208 A    
C5    N5    1.456897 S    
O7    Cu2   1.940202 S    
O5    Cu1   1.940183 S    
O6    C4    1.279477 A    
C4    C10   1.419968 S    
C19   C21   1.399355 A    
C28   C38   1.449936 S    
C6    N6    1.456897 S    
O7    C3    1.279411 A    
N8    O20   1.300159 A    
Cu2   N1    1.983617 S    
O3    Cu2   1.926987 S    
O8    C4    1.279412 A    
C5    C14   1.547820 S    
H2    C21   1.084279 S    
C6    C13   1.547820 S    
C11   C13   1.547844 S    
C12   C14   1.547845 S    
O1    Cu1   1.926740 S    
C20   C24   1.434223 S    
N4    O11   1.300248 A    
C33   N2    1.171112 T    
C32   C35   1.449930 S    
C5    C7    1.540613 S    
C34   N1    1.171112 T    
O6    Cu2   1.940181 S    
C18   C21   1.401458 A    
O3    C1    1.280465 A    
O8    Cu1   1.940200 S    
Cu1   N2    1.983617 S    
C27   C32   1.424491 A    
C7    C12   1.540581 S    
N8    O19   1.300246 A    
N5    O14   1.300144 A    
C17   C19   1.412465 A    
C12   N7    1.457045 S    
C18   C20   1.412464 A    
C10   C16   1.196708 T    
C19   C23   1.434223 S    
C13   C15   1.452684 S    
N7    O17   1.300246 A    
O2    Cu2   1.926738 S    
C38   N14   1.157456 T    
C5    C11   1.540597 S    
C6    C8    1.540613 S    
N3    O9    1.300248 A    
C29   C33   1.485052 S    
N10   O24   1.301209 A    
C20   C22   1.399353 A    
