data_mof_unit_56852.cif
_audit_creation_date              2013-03-05T16:09:55-0500
_audit_creation_method            fapswitch 2.2
_symmetry_space_group_name_H-M    P1
_symmetry_Int_Tables_number       1
_space_group_crystal_system       triclinic
_cell_length_a                    10.720592
_cell_length_b                    9.825197
_cell_length_c                    10.642879
_cell_angle_alpha                 89.99997
_cell_angle_beta                  89.702671
_cell_angle_gamma                 90.0
_cell_volume                      1121.01987388

loop_
_atom_site_label
_atom_site_type_symbol
_atom_site_description
_atom_site_fract_x
_atom_site_fract_y
_atom_site_fract_z
_atom_type_partial_charge
O1    O     O_R   0.316770 0.614620 0.499990 -0.596698
O2    O     O_R   0.683230 0.614620 0.500010 -0.596696
O3    O     O_R   0.316800 0.385290 0.500000 -0.635593
O4    O     O_R   0.683200 0.385290 0.500000 -0.635594
C1    C     C_R   0.259834 0.499962 0.499606 0.917054
C2    C     C_R   0.740166 0.499962 0.500394 0.917052
O5    O     O_R   0.500010 0.614690 0.316770 -0.606315
O6    O     O_R   0.499990 0.614690 0.683230 -0.606318
O7    O     O_R   0.500040 0.385360 0.316770 -0.625406
O8    O     O_R   0.499960 0.385360 0.683230 -0.625406
C3    C     C_R   0.513139 0.500283 0.259900 0.927103
C4    C     C_R   0.486861 0.500283 0.740100 0.927104
Zn1   Zn    Zn3+2 0.500000 0.653120 0.500000 1.057266
Zn2   Zn    Zn3+2 0.500000 0.346880 0.500000 1.014649
H1    H     H_    0.512465 0.280495 0.112322 0.234218
H2    H     H_    0.487539 0.280495 0.887678 0.234216
C5    C     C_R   0.586487 0.746859 0.099350 0.349793
C6    C     C_R   0.413513 0.746858 0.900650 0.349789
C7    C     C_R   0.547407 0.871132 0.045612 0.094423
C8    C     C_R   0.452594 0.871131 0.954387 0.094422
C9    C     C_R   0.469978 0.624417 0.942176 -0.144940
C10   C     C_R   0.530023 0.624417 0.057823 -0.144939
C11   C     C_R   0.528070 0.500602 0.125475 -0.026931
C12   C     C_R   0.471932 0.500602 0.874525 -0.026927
C13   C     C_R   0.510527 0.376958 0.063319 -0.108114
C14   C     C_R   0.489476 0.376958 0.936681 -0.108114
C15   C     C_R   0.063848 0.375867 0.499837 -0.151858
C16   C     C_R   0.936152 0.375867 0.500167 -0.151861
H3    H     H_    0.112290 0.279067 0.499736 0.170912
H4    H     H_    0.887710 0.279067 0.500271 0.170910
C17   C     C_R   0.872603 0.500017 0.500358 -0.007463
C18   C     C_R   0.127397 0.500017 0.499643 -0.007463
C19   C     C_R   0.936155 0.624191 0.500246 -0.132900
C20   C     C_R   0.063845 0.624191 0.499752 -0.132900
H5    H     H_    0.887741 0.720988 0.500481 0.181810
H6    H     H_    0.112259 0.720988 0.499514 0.181810
C21   C     C_R   0.581189 0.071991 0.573804 0.011624
C22   C     C_R   0.418811 0.071991 0.426196 0.011628
H7    H     H_    0.645832 0.126642 0.633015 0.135363
H8    H     H_    0.354168 0.126642 0.366985 0.135362
C23   C     C_R   0.580949 0.927986 0.574078 0.041818
C24   C     C_R   0.419051 0.927986 0.425922 0.041821
H9    H     H_    0.645393 0.873294 0.633474 0.116468
H10   H     H_    0.354607 0.873294 0.366526 0.116468
N1    N     N_R   0.500000 0.857200 0.500000 -0.067609
N2    N     N_R   0.500000 0.142810 0.500000 -0.091155
S1    S     S_3+6 0.727954 0.742504 0.186166 0.066992
O9    O     O_2   0.708363 0.807344 0.312430 -0.283166
O10   O     O_2   0.773914 0.599156 0.203021 -0.327432
O11   O     O_3   0.836980 0.831643 0.107244 -0.489042
H11   H     H_    0.911383 0.830283 0.162046 0.388616
S2    S     S_3+6 0.272046 0.742503 0.813836 0.066995
O12   O     O_2   0.291634 0.807342 0.687571 -0.283133
O13   O     O_2   0.226087 0.599154 0.796983 -0.327463
O14   O     O_3   0.163021 0.831643 0.892758 -0.489036
H12   H     H_    0.088591 0.830203 0.837997 0.388622
N3    N     N_R   0.605015 0.997380 0.080410 0.273995
O15   O     O_R   0.609526 0.034665 0.197513 -0.357331
O16   O     O_R   0.647559 0.078868 0.993891 -0.373593
N4    N     N_R   0.394986 0.997380 0.919589 0.274003
O17   O     O_R   0.390472 0.034664 0.802485 -0.357318
O18   O     O_R   0.352444 0.078869 0.006108 -0.373587

loop_
_geom_bond_atom_site_label_1
_geom_bond_atom_site_label_2
_geom_bond_distance
_ccdc_geom_bond_type
C22   H8    1.081774 S    
O7    Zn2   1.986405 S    
C17   C19   1.397374 A    
O6    Zn1   1.986312 S    
C5    C10   1.418374 A    
C8    N4    1.435124 S    
C6    C9    1.418375 A    
O7    C3    1.288465 A    
C4    C12   1.438774 S    
O5    C3    1.284050 A    
C7    C8    1.409277 A    
S2    O14   1.681824 S    
O6    C4    1.284051 A    
C1    C18   1.419803 S    
O3    C1    1.281567 A    
O14   H12   0.990657 S    
C16   H4    1.083627 S    
O11   H11   0.990668 S    
C21   N2    1.365955 A    
C6    S2    1.780500 S    
S1    O10   1.503170 D    
O4    Zn2   1.999941 S    
C9    C10   1.391941 A    
C7    N3    1.435124 S    
Zn1   N1    2.005126 S    
C23   H9    1.081765 S    
C12   C14   1.396455 A    
N3    O15   1.300180 A    
O2    C2    1.281285 A    
O3    Zn2   1.999942 S    
C24   H10   1.081765 S    
O1    C1    1.281285 A    
O8    C4    1.288465 A    
O4    C2    1.281567 A    
C19   H5    1.083457 S    
C19   C20   1.368893 A    
C22   C24   1.414883 A    
S1    O11   1.681825 S    
C20   H6    1.083456 S    
C13   C14   1.367712 A    
C11   C13   1.396454 A    
C21   C23   1.414883 A    
C21   H7    1.081775 S    
C22   N2    1.365956 A    
N3    O16   1.300994 A    
C15   H3    1.083627 S    
C5    S1    1.780499 S    
O5    Zn1   1.986314 S    
O1    Zn1   2.000425 S    
S2    O12   1.500953 D    
C6    C8    1.412788 A    
N4    O18   1.300994 A    
O8    Zn2   1.986404 S    
C9    C12   1.413706 A    
C3    C11   1.438774 S    
C15   C16   1.368958 A    
O2    Zn1   2.000424 S    
C23   N1    1.365826 A    
C10   C11   1.413706 A    
C2    C17   1.419803 S    
H1    C13   1.082038 S    
C5    C7    1.412788 A    
C15   C18   1.397159 A    
C24   N1    1.365827 A    
C16   C17   1.397159 A    
S1    O9    1.500954 D    
S2    O13   1.503171 D    
N4    O17   1.300179 A    
Zn2   N2    2.005029 S    
H2    C14   1.082038 S    
C18   C20   1.397373 A    
