data_mof_unit_5860.cif
_audit_creation_date              2012-10-26T19:17:55-0400
_audit_creation_method            fapswitch 2.2
_symmetry_space_group_name_H-M    P1
_symmetry_Int_Tables_number       1
_space_group_crystal_system       triclinic
_cell_length_a                    10.841535
_cell_length_b                    12.340889
_cell_length_c                    13.299657
_cell_angle_alpha                 116.813174
_cell_angle_beta                  78.686249
_cell_angle_gamma                 100.122881
_cell_volume                      1549.47561816

loop_
_atom_site_label
_atom_site_type_symbol
_atom_type_description
_atom_site_fract_x
_atom_site_fract_y
_atom_site_fract_z
_atom_type_partial_charge
C1    C     C_R   0.513108 0.854529 0.286995 0.576961
C2    C     C_R   0.188485 0.297650 0.347373 -0.106947
C3    C     C_R   0.194283 0.225560 0.230402 -0.096604
C4    C     C_R   0.736158 0.001014 0.504413 0.536950
C5    C     C_R   0.196513 0.099391 0.185961 -0.115491
C6    C     C_R   0.180765 0.043712 0.259284 -0.075232
C7    C     C_R   0.162321 0.114568 0.377354 0.058672
C8    C     C_R   0.432294 0.266681 0.030034 -0.107715
C9    C     C_R   0.489248 0.227166 0.832927 0.001656
C10   C     C_R   0.612404 0.814512 0.092317 -0.154408
C11   C     C_R   0.661069 0.734254 0.984564 -0.102010
C12   C     C_R   0.630372 0.786541 0.754444 0.226324
C13   C     C_R   0.627487 0.609596 0.946110 -0.068000
C14   C     C_R   0.541171 0.562600 0.014756 -0.002527
C15   C     C_R   0.488288 0.644484 0.124209 0.059971
C16   C     C_R   0.488961 0.144886 0.712417 0.538482
C17   C     C_R   0.508983 0.435704 0.979364 0.024737
C18   C     C_R   0.449387 0.392106 0.060426 0.039751
C19   C     C_R   0.394902 0.472989 0.165965 -0.123307
C20   C     C_R   0.397836 0.595944 0.190114 0.247294
C21   C     C_R   0.527388 0.351399 0.865121 -0.110508
C22   C     C_R   0.448650 0.184257 0.916211 -0.131017
C23   C     C_R   0.041042 0.965410 0.581268 0.258363
C24   C     C_R   0.530542 0.771065 0.164981 0.014693
C25   C     C_R   0.679339 0.328019 0.308290 0.032566
C26   C     C_R   0.326866 0.760390 0.642127 0.075529
C27   C     C_R   0.280624 0.659265 0.662900 -0.136512
C28   C     C_R   0.262699 0.003428 0.502975 0.594307
C29   C     C_R   0.340511 0.552726 0.603458 -0.061824
C30   C     C_R   0.451372 0.547240 0.525349 0.025928
C31   C     C_R   0.489130 0.650290 0.501404 0.160789
C32   C     C_R   0.523116 0.442768 0.467187 0.001826
C33   C     C_R   0.615895 0.434988 0.372934 -0.023845
C34   C     C_R   0.127944 0.010349 0.510905 0.051567
C35   C     C_R   0.648583 0.537085 0.349990 -0.137675
C36   C     C_R   0.590159 0.643060 0.415409 -0.107759
C37   C     C_R   0.509686 0.347593 0.501355 0.370621
C38   C     C_R   0.655597 0.234994 0.343860 0.017852
C39   C     C_R   0.646771 0.913686 0.792914 -0.099772
C40   C     C_R   0.740078 0.967178 0.736217 -0.126062
C41   C     C_R   0.818395 0.894800 0.639636 -0.005122
C42   C     C_R   0.807020 0.766375 0.603470 0.030014
C43   C     C_R   0.713266 0.714647 0.663002 -0.065457
C44   C     C_2   0.767405 0.307105 0.201947 0.546408
C45   C     C_R   0.083624 0.058640 0.448388 -0.076984
C46   C     C_2   0.887075 0.682820 0.502781 0.570504
C47   C     C_R   0.955364 0.054662 0.450464 -0.153419
C48   C     C_R   0.868645 0.002643 0.511731 -0.017684
C49   C     C_R   0.910064 0.956050 0.577705 0.013602
C50   C     C_R   0.172507 0.242298 0.420878 -0.084068
Cu1   Cu    Cu3+1 0.529370 0.098270 0.475420 0.960731
Cu2   Cu    Cu3+1 0.470630 0.901730 0.524580 0.989425
H1    H     H_    0.194962 0.267085 0.174051 0.117733
H2    H     H_    0.729273 0.768676 0.931947 0.139601
H3    H     H_    0.586427 0.971153 0.866027 0.099382
H4    H     H_    0.700865 0.151556 0.295084 0.154542
H5    H     H_    0.725454 0.539503 0.285343 0.186772
H6    H     H_    0.279759 0.842824 0.687616 0.166112
H7    H     H_    0.293959 0.475137 0.617021 0.148946
H8    H     H_    0.196840 0.662582 0.723477 0.110631
H9    H     H_    0.628193 0.717718 0.395612 0.187409
H10   H     H_    0.749311 0.065311 0.765865 0.123970
H11   H     H_    0.700491 0.616824 0.635600 0.181563
H12   H     H_    0.203007 0.044158 0.095038 0.106476
H13   H     H_    0.923100 0.090264 0.399893 0.163724
H14   H     H_    0.154168 0.297693 0.511601 0.101255
H15   H     H_    0.188377 0.395575 0.381458 0.111940
H16   H     H_    0.481803 0.792467 0.864699 0.320313
H17   H     H_    0.251814 0.617609 0.307448 0.333442
H18   H     H_    0.926412 0.235790 0.103111 0.339148
H19   H     H_    0.379160 0.293007 0.591036 0.346311
H20   H     H_    0.953529 0.517319 0.419210 0.346382
H21   H     H_    0.019095 0.924078 0.710643 0.315564
H22   H     H_    0.169651 0.945022 0.224424 0.129167
H23   H     H_    0.422949 0.088072 0.893420 0.116726
H24   H     H_    0.338788 0.439123 0.224397 0.085837
H25   H     H_    0.399800 0.232254 0.093044 0.114984
H26   H     H_    0.561162 0.382306 0.799601 0.165685
H27   H     H_    0.646374 0.910334 0.121469 0.133317
H28   H     H_    0.674623 0.551469 0.864334 0.125930
N1    N     N_R   0.573890 0.246290 0.438210 -0.246526
N2    N     N_R   0.426890 0.754320 0.561170 -0.239327
O1    O     O_R   0.536940 0.972510 0.318130 -0.526929
O2    O     O_3   0.307671 0.666524 0.271119 -0.657845
O3    O     O_2   0.744266 0.337999 0.132756 -0.530517
O4    O     O_R   0.874318 0.246323 0.178534 -0.718569
O5    O     O_3   0.443889 0.363337 0.605143 -0.696176
O6    O     O_2   0.940435 0.713205 0.428157 -0.508730
O7    O     O_R   0.898602 0.566665 0.491761 -0.717508
O8    O     O_3   0.087331 0.932282 0.652392 -0.706678
O9    O     O_R   0.487330 0.806530 0.359650 -0.476608
O10   O     O_R   0.705160 0.082990 0.479250 -0.508192
O11   O     O_R   0.655550 0.917010 0.520760 -0.521903
O12   O     O_R   0.512670 0.193470 0.640350 -0.479467
O13   O     O_R   0.463060 0.027490 0.681870 -0.518589
O14   O     O_R   0.344450 0.082990 0.479240 -0.542924
O15   O     O_R   0.294840 0.917010 0.520750 -0.418764
O16   O     O_3   0.533331 0.729672 0.803085 -0.693182

loop_
_geom_bond_atom_site_label_1
_geom_bond_atom_site_label_2
_ccdc_geom_bond_type
C28   O15   A    
C27   C29   A    
C3    H1    S    
C41   C42   A    
C19   C20   A    
C43   H11   S    
C46   O7    S    
C26   C27   A    
C31   N2    A    
C7    C45   S    
C19   H24   S    
C9    C16   S    
H21   O8    S    
C12   C43   A    
C27   H8    S    
C5    C6    A    
C25   C38   A    
C9    C22   A    
C23   C49   A    
Cu2   O15   S    
C40   H10   S    
Cu2   O13   S    
C18   C19   A    
C42   C46   S    
C2    C50   A    
C39   H3    S    
C29   H7    S    
C21   H26   S    
C8    C22   A    
Cu1   N1    S    
C12   O16   S    
Cu1   O14   S    
C13   H28   S    
C28   C34   S    
C26   N2    A    
C13   C14   A    
C14   C17   A    
C37   N1    A    
C22   H23   S    
C44   O4    S    
C25   C44   S    
C41   C49   S    
C6    H22   S    
C46   O6    D    
C45   C47   A    
C15   C20   A    
Cu1   Cu2   S    
C2    H15   S    
C39   C40   A    
C10   C24   A    
C8    C18   A    
C5    H12   S    
C35   C36   A    
C29   C30   A    
Cu1   O10   S    
C26   H6    S    
C47   C48   A    
C23   C34   A    
C17   C18   A    
C23   O8    S    
Cu2   O11   S    
C34   C45   A    
C15   C24   A    
C32   C37   A    
Cu2   N2    S    
C50   H14   S    
C11   H2    S    
H19   O5    S    
C40   C41   A    
C20   O2    S    
C38   N1    A    
C8    H25   S    
C42   C43   A    
C36   H9    S    
H18   O4    S    
Cu1   O1    S    
C4    C48   S    
C48   C49   A    
C16   O13   A    
C14   C15   A    
C37   O5    S    
C7    C50   A    
C3    C5    A    
C10   H27   S    
C6    C7    A    
C1    O1    A    
C16   O12   A    
C28   O14   A    
C35   H5    S    
C32   C33   A    
C12   C39   A    
C2    C3    A    
H17   O2    S    
C30   C32   A    
H20   O7    S    
C11   C13   A    
C9    C21   A    
C30   C31   A    
C33   C35   A    
H16   O16   S    
C10   C11   A    
Cu1   O12   S    
C4    O11   A    
C38   H4    S    
C1    C24   S    
C1    O9    A    
C31   C36   A    
Cu2   O9    S    
C47   H13   S    
C44   O3    D    
C25   C33   A    
C4    O10   A    
C17   C21   A    
