data_mof_unit_45245.cif
_audit_creation_date              2012-12-11T16:17:44-0500
_audit_creation_method            fapswitch 2.2
_symmetry_space_group_name_H-M    P1
_symmetry_Int_Tables_number       1
_space_group_crystal_system       triclinic
_cell_length_a                    6.932388
_cell_length_b                    28.636085
_cell_length_c                    32.134065
_cell_angle_alpha                 101.075944
_cell_angle_beta                  89.915012
_cell_angle_gamma                 90.451464
_cell_volume                      6260.12458659

loop_
_atom_site_label
_atom_site_type_symbol
_atom_type_description
_atom_site_fract_x
_atom_site_fract_y
_atom_site_fract_z
_atom_type_partial_charge
O1    O     O_R   0.494350 0.453160 0.452490 -0.539009
O2    O     O_R   0.820990 0.455850 0.538220 -0.541287
O3    O     O_R   0.994300 0.546840 0.547510 -0.540586
C1    C     C_R   0.651900 0.445797 0.551826 0.689944
O4    O     O_R   0.823860 0.447580 0.452250 -0.541835
O5    O     O_R   0.997190 0.538510 0.460920 -0.539967
C2    C     C_R   0.654445 0.434785 0.436337 0.717024
O6    O     O_R   0.491450 0.461490 0.539080 -0.541900
O7    O     O_3   0.661790 0.529840 0.502950 -0.361536
V1    V     V_3+5 0.935470 0.494460 0.499450 1.395774
O8    O     O_R   0.327090 0.544150 0.461780 -0.540170
C3    C     C_R   0.158838 0.554120 0.448203 0.721472
O9    O     O_R   0.324210 0.552420 0.547750 -0.518225
C4    C     C_R   0.155915 0.564939 0.563968 0.708231
V2    V     V_3+5 0.435840 0.505540 0.500550 1.419068
O10   O     O_3   0.159650 0.470160 0.497050 -0.369794
C5    C     C_R   0.969921 0.625180 0.615413 -0.213684
C6    C     C_R   0.955358 0.660532 0.652001 -0.139728
C7    C     C_R   0.117849 0.674989 0.677450 -0.049146
C8    C     C_R   0.294839 0.652642 0.665549 -0.200986
C9    C     C_R   0.309749 0.616000 0.629688 0.424700
C10   C     C_R   0.146506 0.602580 0.603312 -0.161424
N1    N     N_R   0.264078 0.729932 0.738565 -0.277891
N2    N     N_R   0.252127 0.764251 0.772971 -0.283531
C11   C     C_R   0.079197 0.783516 0.786568 0.511272
N3    N     N_R   0.918619 0.766829 0.764104 -0.278060
N4    N     N_R   0.930626 0.732543 0.729621 -0.282879
C12   C     C_R   0.103711 0.713288 0.716046 0.537490
C13   C     C_R   0.887125 0.839862 0.841071 -0.131003
H1    H     H_    0.754360 0.825821 0.825699 0.137788
C14   C     C_R   0.876369 0.876072 0.877246 -0.160273
C15   C     C_R   0.044966 0.895568 0.898303 -0.051075
C16   C     C_R   0.224375 0.877724 0.882202 -0.160430
C17   C     C_R   0.235046 0.841451 0.846203 -0.133204
C18   C     C_R   0.066709 0.822016 0.825048 0.020606
C19   C     C_R   0.158415 0.657256 0.283161 0.597790
N5    N     N_R   0.127166 0.676059 0.325110 -0.543164
C20   C     C_R   0.079022 0.722925 0.338069 0.600348
C21   C     C_R   0.054830 0.752921 0.308215 -0.126505
C22   C     C_R   0.090176 0.734154 0.264889 -0.123293
C23   C     C_R   0.137921 0.685597 0.251873 -0.104181
C24   C     C_R   0.995920 0.801053 0.320192 0.414945
C25   C     C_R   0.990660 0.830370 0.290006 -0.221527
C26   C     C_R   0.030309 0.812390 0.247166 -0.073092
C27   C     C_R   0.077571 0.764049 0.234465 -0.018528
C28   C     C_R   0.114499 0.745770 0.191384 -0.069942
C29   C     C_R   0.156762 0.697321 0.178630 -0.244371
C30   C     C_R   0.160496 0.666749 0.207997 0.444964
C31   C     C_R   0.021908 0.841675 0.216554 0.590237
N6    N     N_R   0.061309 0.823540 0.174718 -0.543325
C32   C     C_R   0.106982 0.776405 0.161862 0.596675
O11   O     O_2   0.212745 0.611434 0.272018 -0.508379
O12   O     O_2   0.056190 0.740396 0.379799 -0.516501
H2    H     H_    0.953054 0.867423 0.300438 0.179216
O13   O     O_2   0.972773 0.887806 0.228533 -0.532414
O14   O     O_2   0.146882 0.759207 0.120689 -0.527850
C33   C     C_R   0.921958 0.845698 0.110311 -0.092582
H3    H     H_    0.822763 0.815851 0.107372 0.146938
C34   C     C_R   0.914391 0.875700 0.080717 -0.295245
H4    H     H_    0.809675 0.868289 0.055273 0.149838
C35   C     C_R   0.041443 0.914676 0.083657 -0.135308
C36   C     C_R   0.176143 0.923780 0.117262 0.364813
C37   C     C_R   0.179151 0.893924 0.147502 -0.193435
C38   C     C_R   0.054883 0.854369 0.143862 0.314984
C39   C     C_R   0.290636 0.650948 0.385976 0.474658
C40   C     C_R   0.292972 0.621102 0.416570 -0.323123
H5    H     H_    0.401965 0.625681 0.441051 0.138807
C41   C     C_R   0.151501 0.585709 0.416614 -0.091124
C42   C     C_R   0.004650 0.580378 0.386067 -0.212607
C43   C     C_R   0.999757 0.609675 0.355957 -0.217208
H6    H     H_    0.884777 0.605044 0.332713 0.137111
C44   C     C_R   0.139555 0.645426 0.356015 0.308502
C45   C     C_R   0.508704 0.226369 0.839055 0.635345
N7    N     N_R   0.563770 0.179658 0.828424 -0.523281
C46   C     C_R   0.629780 0.161541 0.788296 0.620124
C47   C     C_R   0.639466 0.190263 0.757299 -0.085613
C48   C     C_R   0.586113 0.238336 0.768045 -0.017773
C49   C     C_R   0.521917 0.256662 0.809419 -0.099410
C50   C     C_R   0.699500 0.171720 0.715806 -0.230161
C51   C     C_R   0.700157 0.199736 0.684576 0.437451
C52   C     C_R   0.655593 0.248929 0.695503 -0.109960
C53   C     C_R   0.596860 0.268051 0.737460 -0.116498
C54   C     C_R   0.549170 0.316784 0.749000 -0.106508
C55   C     C_R   0.496910 0.335452 0.791686 0.443535
C56   C     C_R   0.474985 0.304949 0.820591 -0.251017
C57   C     C_R   0.667653 0.279628 0.665923 0.588905
N8    N     N_R   0.615647 0.326435 0.677172 -0.561715
C58   C     C_R   0.555602 0.345183 0.717519 0.578298
O15   O     O_2   0.441224 0.243670 0.878221 -0.533246
O16   O     O_2   0.685885 0.115781 0.778268 -0.540542
O17   O     O_2   0.730330 0.262989 0.626133 -0.506742
O18   O     O_2   0.502298 0.391199 0.726978 -0.515700
C59   C     C_R   0.802745 0.367696 0.629303 -0.091360
H7    H     H_    0.934796 0.354068 0.640213 0.121993
C60   C     C_R   0.811593 0.396431 0.598685 -0.208340
H8    H     H_    0.951526 0.404346 0.586615 0.130742
C61   C     C_R   0.642081 0.414721 0.583980 -0.059185
C62   C     C_R   0.463707 0.403714 0.600968 -0.212220
H9    H     H_    0.330452 0.417407 0.590705 0.127327
C63   C     C_R   0.455202 0.374899 0.631557 -0.096025
C64   C     C_R   0.624571 0.356576 0.645890 0.374281
C65   C     C_R   0.433248 0.108160 0.852228 0.423246
C66   C     C_R   0.433895 0.076808 0.881044 -0.309579
C67   C     C_R   0.546691 0.086479 0.917818 -0.146679
C68   C     C_R   0.658303 0.128160 0.926126 -0.316128
C69   C     C_R   0.662876 0.159505 0.897291 0.392433
C70   C     C_R   0.553028 0.149025 0.859555 0.189540
C71   C     C_R   0.462635 0.387113 0.376430 -0.222611
H10   H     H_    0.334353 0.406185 0.388943 0.131863
C72   C     C_R   0.447008 0.353518 0.338509 0.446938
C73   C     C_R   0.609605 0.326387 0.322096 -0.090591
C74   C     C_R   0.787235 0.336161 0.343354 -0.179397
C75   C     C_R   0.803078 0.371243 0.380222 -0.169765
C76   C     C_R   0.640594 0.397025 0.397379 -0.119254
N9    N     N_R   0.758126 0.272603 0.260937 -0.285079
N10   N     N_R   0.747812 0.238323 0.226438 -0.285223
C77   C     C_R   0.576000 0.217703 0.212825 0.522700
N11   N     N_R   0.414858 0.232954 0.235389 -0.285201
N12   N     N_R   0.425186 0.267322 0.269853 -0.231634
C78   C     C_R   0.596915 0.288071 0.283367 0.521368
C79   C     C_R   0.392080 0.154748 0.162076 -0.143028
C80   C     C_R   0.384178 0.118370 0.126093 -0.243527
H11   H     H_    0.249413 0.099224 0.118657 0.187290
C81   C     C_R   0.547994 0.106180 0.100460 -0.139292
C82   C     C_R   0.720633 0.132687 0.110942 0.417635
C83   C     C_R   0.728816 0.167781 0.148436 -0.235680
H12   H     H_    0.863903 0.186042 0.157500 0.137263
C84   C     C_R   0.565132 0.179561 0.174023 -0.022380
O19   O     O_R   0.699050 0.038480 0.960880 -0.538965
O20   O     O_R   0.366680 0.052470 0.047720 -0.544149
O21   O     O_R   0.193410 0.961530 0.039110 -0.521058
C85   C     C_R   0.536305 0.066183 0.062988 0.726890
O22   O     O_R   0.369510 0.044100 0.961740 -0.544923
O23   O     O_R   0.196260 0.953110 0.952520 -0.541905
C86   C     C_R   0.538445 0.054294 0.948537 0.743127
O24   O     O_R   0.696210 0.046900 0.047470 -0.507847
O25   O     O_3   0.528780 0.970170 0.997070 -0.376883
V3    V     V_3+5 0.255080 0.005530 0.000540 1.422166
O26   O     O_R   0.866350 0.947520 0.952280 -0.543712
C87   C     C_R   0.035001 0.934494 0.936494 0.680382
O27   O     O_R   0.863520 0.955880 0.038260 -0.552646
C88   C     C_R   0.031921 0.946121 0.051966 0.758427
V4    V     V_3+5 0.754720 0.994440 0.999470 1.413450
O28   O     O_3   0.030880 0.029830 0.002930 -0.360129
H13   H     H_    0.842209 0.615878 0.596205 0.191534
H14   H     H_    0.184695 0.682559 0.145560 0.172891
O29   O     O_3   0.194785 0.618682 0.193799 -0.546280
C89   C     C_3   0.031210 0.596453 0.171694 0.094023
H15   H     H_    0.080041 0.562631 0.151590 0.143636
H16   H     H_    0.967546 0.617757 0.149607 0.102057
C90   C     C_3   0.876874 0.584567 0.202495 -0.305644
H17   H     H_    0.939192 0.560716 0.222388 0.228004
H18   H     H_    0.827917 0.617700 0.223657 0.190747
C91   C     C_3   0.701995 0.560036 0.178758 -0.785137
H19   H     H_    0.634487 0.583666 0.159339 0.246477
H20   H     H_    0.593677 0.551850 0.201885 0.259733
H21   H     H_    0.745377 0.526238 0.157812 0.218227
O30   O     O_3   0.277170 0.966535 0.124467 -0.571408
C92   C     C_3   0.478836 0.959464 0.125231 0.077346
H22   H     H_    0.539012 0.963726 0.094099 0.150493
H23   H     H_    0.522776 0.923739 0.130684 0.106289
C93   C     C_3   0.565973 0.997598 0.160131 -0.322050
H24   H     H_    0.521379 0.033346 0.155332 0.209287
H25   H     H_    0.510293 0.992472 0.191405 0.212315
C94   C     C_3   0.785503 0.995562 0.160392 -0.742699
H26   H     H_    0.833429 0.960347 0.165881 0.251777
H27   H     H_    0.842878 0.023536 0.186277 0.239874
H28   H     H_    0.844203 0.001979 0.129807 0.228451
H29   H     H_    0.275724 0.902064 0.174425 0.145597
O31   O     O_3   0.422062 0.688059 0.385780 -0.564611
C95   C     C_3   0.610349 0.678118 0.398493 0.065417
H30   H     H_    0.713624 0.690979 0.376722 0.154213
H31   H     H_    0.639948 0.639401 0.395215 0.111947
C96   C     C_3   0.650424 0.705454 0.443578 -0.285137
H32   H     H_    0.663642 0.744044 0.443130 0.199432
H33   H     H_    0.528537 0.700823 0.464904 0.194110
C97   C     C_3   0.835230 0.688586 0.461567 -0.780361
H34   H     H_    0.822183 0.650389 0.463568 0.223956
H35   H     H_    0.861142 0.709537 0.493923 0.228719
H36   H     H_    0.960387 0.693561 0.441296 0.267626
H37   H     H_    0.894194 0.553255 0.385261 0.135979
H38   H     H_    0.816528 0.676906 0.660036 0.161271
H39   H     H_    0.741864 0.134808 0.706940 0.169231
O32   O     O_3   0.751421 0.178448 0.643734 -0.551823
C98   C     C_3   0.582918 0.163647 0.619678 0.154151
H40   H     H_    0.615834 0.165189 0.586118 0.170231
H41   H     H_    0.457225 0.187623 0.628853 0.113211
C99   C     C_3   0.528296 0.112267 0.622144 -0.377467
H42   H     H_    0.655186 0.088909 0.613511 0.213810
H43   H     H_    0.483828 0.110294 0.654968 0.200203
C100  C     C_3   0.361562 0.094136 0.592284 -0.787151
H44   H     H_    0.232282 0.116660 0.600777 0.247441
H45   H     H_    0.324676 0.057028 0.594965 0.235786
H46   H     H_    0.402731 0.094551 0.558936 0.233562
O33   O     O_3   0.462344 0.383410 0.805851 -0.553032
C101  C     C_3   0.639672 0.407661 0.816849 0.152721
H47   H     H_    0.620284 0.445128 0.813160 0.163268
H48   H     H_    0.760937 0.393326 0.795343 0.113239
C102  C     C_3   0.693686 0.407560 0.863111 -0.379884
H49   H     H_    0.571865 0.421813 0.884166 0.212735
H50   H     H_    0.722811 0.370654 0.867224 0.193570
C103  C     C_3   0.873847 0.437704 0.876271 -0.797089
H51   H     H_    0.998132 0.423503 0.855986 0.248745
H52   H     H_    0.909711 0.436750 0.909762 0.233494
H53   H     H_    0.848732 0.475236 0.873465 0.233984
H54   H     H_    0.426938 0.319858 0.852440 0.173094
H55   H     H_    0.316551 0.366642 0.644034 0.120539
O34   O     O_3   0.325817 0.097821 0.815233 -0.539604
C104  C     C_3   0.125848 0.095483 0.824024 0.112901
H56   H     H_    0.052593 0.123848 0.810919 0.150555
H57   H     H_    0.088327 0.101699 0.858446 0.039847
C105  C     C_3   0.043311 0.047063 0.802755 -0.286976
H58   H     H_    0.116119 0.018409 0.815559 0.170478
H59   H     H_    0.887146 0.045745 0.810388 0.184191
C106  C     C_3   0.068011 0.038011 0.754627 -0.610259
H60   H     H_    0.998955 0.066662 0.741150 0.233771
H61   H     H_    0.999066 0.003518 0.740413 0.194550
H62   H     H_    0.223460 0.036342 0.746097 0.245668
H63   H     H_    0.423066 0.663152 0.684346 0.152387
H64   H     H_    0.346763 0.044672 0.874590 0.136163
H65   H     H_    0.734983 0.137377 0.955929 0.137935
O35   O     O_3   0.746831 0.204001 0.908943 -0.532245
C107  C     C_3   0.949150 0.200506 0.909778 0.098342
H66   H     H_    0.006054 0.186906 0.877366 0.106376
H67   H     H_    0.996960 0.176601 0.931188 0.080804
C108  C     C_3   0.032856 0.250072 0.926557 -0.260768
H68   H     H_    0.961538 0.265685 0.956999 0.185537
H69   H     H_    0.188631 0.247123 0.933259 0.202724
C109  C     C_3   0.004456 0.283284 0.895084 -0.639152
H70   H     H_    0.070672 0.268068 0.863992 0.222545
H71   H     H_    0.073679 0.318248 0.907585 0.201058
H72   H     H_    0.848353 0.289009 0.890367 0.242509
O36   O     O_3   0.269037 0.346394 0.318835 -0.572611
C110  C     C_3   0.254973 0.374640 0.287289 0.095047
H73   H     H_    0.157526 0.355551 0.262132 0.173199
H74   H     H_    0.395421 0.379304 0.271434 0.097678
C111  C     C_3   0.166728 0.423249 0.305590 -0.358814
H75   H     H_    0.029955 0.418118 0.322247 0.210714
H76   H     H_    0.267814 0.444358 0.328751 0.186681
C112  C     C_3   0.125194 0.451393 0.270852 -0.788164
H77   H     H_    0.260400 0.457423 0.253983 0.237085
H78   H     H_    0.063485 0.486487 0.285218 0.243061
H79   H     H_    0.019639 0.431897 0.247756 0.226676
H80   H     H_    0.914474 0.316185 0.331690 0.205502
H81   H     H_    0.942524 0.377831 0.395459 0.148940
H82   H     H_    0.262762 0.162867 0.180935 0.156653
O37   O     O_3   0.882130 0.122556 0.085219 -0.567116
C113  C     C_3   0.951901 0.164191 0.072373 0.040363
H83   H     H_    0.041693 0.185339 0.098020 0.132538
H84   H     H_    0.831697 0.186600 0.064237 0.113766
C114  C     C_3   0.078526 0.150072 0.033085 -0.239809
H85   H     H_    0.197624 0.127343 0.040290 0.211741
H86   H     H_    0.991286 0.129420 0.006768 0.189158
C115  C     C_3   0.165632 0.193630 0.019071 -0.887898
H87   H     H_    0.049541 0.217341 0.011835 0.232612
H88   H     H_    0.254261 0.182130 0.990141 0.236501
H89   H     H_    0.259723 0.213655 0.044433 0.241363
O38   O     O_3   0.488953 0.596108 0.619542 -0.580483
C116  C     C_3   0.502224 0.551990 0.633043 0.105423
H90   H     H_    0.604593 0.529737 0.611363 0.141255
H91   H     H_    0.362965 0.531796 0.630786 0.084004
C117  C     C_3   0.583395 0.558730 0.678118 -0.374543
H92   H     H_    0.478474 0.578619 0.700889 0.198724
H93   H     H_    0.720010 0.579614 0.680094 0.215463
C118  C     C_3   0.622981 0.510821 0.690519 -0.752342
H94   H     H_    0.488175 0.489296 0.688840 0.249609
H95   H     H_    0.679037 0.516685 0.723477 0.238484
H96   H     H_    0.732352 0.490801 0.669007 0.225820
H97   H     H_    0.735688 0.888930 0.888569 0.117195
H98   H     H_    0.357463 0.891747 0.897446 0.120480
H99   H     H_    0.375953 0.828782 0.834883 0.132579
O39   O     O_3   0.953219 0.821200 0.361816 -0.553329
C119  C     C_3   0.759070 0.810974 0.370824 0.159267
H100  H     H_    0.750011 0.810911 0.405325 0.160719
H101  H     H_    0.709427 0.774998 0.354247 0.107965
C120  C     C_3   0.623814 0.849314 0.360662 -0.419481
H102  H     H_    0.679161 0.885103 0.375711 0.220751
H103  H     H_    0.617602 0.847185 0.325809 0.199976
C121  C     C_3   0.420441 0.842742 0.376817 -0.691951
H104  H     H_    0.365350 0.806597 0.363032 0.257307
H105  H     H_    0.323273 0.869544 0.367385 0.245074
H106  H     H_    0.420156 0.847455 0.411943 0.231140

loop_
_geom_bond_atom_site_label_1
_geom_bond_atom_site_label_2
_ccdc_geom_bond_type
C26   C31   A    
C40   C41   A    
C95   H30   S    
C94   H26   S    
C67   C86   S    
C16   H98   S    
C65   C66   A    
N6    C38   S    
C45   N7    A    
C68   C69   A    
C5    H13   S    
C7    C8    A    
C47   C50   A    
C111  H76   S    
N8    C58   A    
C116  C117  S    
C104  C105  S    
C117  C118  S    
C61   C62   A    
C33   H3    S    
C107  C108  S    
C114  H85   S    
C98   C99   S    
C48   C49   A    
O32   C98   S    
C39   C40   A    
C110  H74   S    
C95   H31   S    
N3    N4    A    
C59   H7    S    
C82   C83   A    
C103  H52   S    
C54   C55   A    
C107  H67   S    
C2    C76   S    
C19   N5    A    
C63   C64   A    
N5    C20   A    
C89   H16   S    
C17   C18   A    
C109  H72   S    
C57   O17   S    
C106  H61   S    
O23   C87   A    
C20   C21   A    
C51   C52   A    
C75   H81   S    
C9    O38   S    
C114  H86   S    
C59   C60   A    
C69   C70   A    
C6    H38   S    
C55   O33   S    
V2    O10   S    
C62   H9    S    
C30   O29   S    
C119  C120  S    
C71   H10   S    
C81   C85   S    
C99   H43   S    
C6    C7    A    
C28   C29   A    
C121  H106  S    
C71   C76   A    
V4    O28   S    
C108  C109  S    
C96   H32   S    
C67   C68   A    
C115  H88   S    
O29   C89   S    
C119  H101  S    
N7    C70   S    
O19   C86   A    
O8    V2    S    
O31   C95   S    
C73   C74   A    
C50   H39   S    
C41   C42   A    
C97   H35   S    
C103  H53   S    
C15   C87   S    
C14   H97   S    
C102  C103  S    
N1    N2    A    
C92   H23   S    
N2    C11   A    
O21   V3    S    
C43   H6    S    
O1    V2    S    
C118  H94   S    
C91   H20   S    
C52   C57   A    
C46   O16   S    
C113  C114  S    
C1    O6    A    
C66   H64   S    
C90   H18   S    
C54   C58   A    
O25   V4    S    
C29   H14   S    
O22   V3    S    
C94   H27   S    
N8    C64   S    
C9    C10   A    
N11   N12   A    
V3    O28   S    
C19   C23   A    
C42   C43   A    
O27   C88   A    
O26   V4    S    
C91   H21   S    
C101  C102  S    
C113  H83   S    
C74   C75   A    
C118  H96   S    
C63   H55   S    
C113  H84   S    
C56   H54   S    
C119  H100  S    
C21   C24   A    
C93   H25   S    
O36   C110  S    
C22   C27   A    
C95   C96   S    
C34   C35   A    
N7    C46   A    
C100  H44   S    
C29   C30   A    
C58   O18   S    
O33   C101  S    
C89   C90   S    
C16   C17   A    
C55   C56   A    
C79   C84   A    
C104  H56   S    
C103  H51   S    
C106  H62   S    
C59   C64   A    
C21   C22   A    
O4    C2    A    
C57   N8    A    
O39   C119  S    
C114  C115  S    
C117  H93   S    
O6    V2    S    
C115  H89   S    
N6    C32   A    
C11   N3    A    
C31   O13   S    
C45   C49   A    
C28   C32   A    
C53   C54   A    
C112  H79   S    
C52   C53   A    
C107  H66   S    
C50   C51   A    
C99   H42   S    
C110  C111  S    
O2    C1    A    
C46   C47   A    
C100  H45   S    
O5    V1    S    
C13   H1    S    
C1    C61   S    
C111  H75   S    
C93   C94   S    
C3    C41   S    
C25   H2    S    
C92   H22   S    
C120  C121  S    
C74   H80   S    
C90   H17   S    
C97   H36   S    
C36   C37   A    
C112  H78   S    
C5    C6    A    
C79   C80   A    
C92   C93   S    
C65   C70   A    
C72   C73   A    
N1    C12   A    
C47   C48   A    
N12   C78   A    
C7    C12   S    
C118  H95   S    
C96   C97   S    
O34   C104  S    
C91   H19   S    
C117  H92   S    
O21   C88   A    
C11   C18   S    
C49   C56   A    
C101  H48   S    
C22   C23   A    
C120  H103  S    
C31   N6    A    
C94   H28   S    
C62   C63   A    
C99   C100  S    
O9    V2    S    
O30   C92   S    
C8    H63   S    
C17   H99   S    
C82   O37   S    
C98   H41   S    
C24   C25   A    
C80   C81   A    
C116  H90   S    
O2    V1    S    
C66   C67   A    
C26   C27   A    
O26   C87   A    
C33   C38   A    
C102  H50   S    
C75   C76   A    
O7    V1    S    
C85   O24   A    
C60   C61   A    
C79   H82   S    
C83   C84   A    
O1    C2    A    
C105  C106  S    
C14   C15   A    
C32   O14   S    
C105  H59   S    
C101  H47   S    
C116  H91   S    
C19   O11   S    
O23   V3    S    
O8    C3    A    
N9    C78   A    
C90   C91   S    
C93   H24   S    
O19   V4    S    
O3    C4    A    
O24   V4    S    
C39   C44   A    
O25   V3    S    
C13   C18   A    
C108  H69   S    
C5    C10   A    
C109  H70   S    
C39   O31   S    
O20   C85   A    
C15   C16   A    
C4    C10   S    
C115  H87   S    
O27   V4    S    
O38   C116  S    
O7    V2    S    
C121  H104  S    
C45   O15   S    
O4    V1    S    
C13   C14   A    
O3    V1    S    
V1    O10   S    
C77   N11   A    
C121  H105  S    
O5    C3    A    
C120  H102  S    
C72   O36   S    
C98   H40   S    
C69   O35   S    
C20   O12   S    
C48   C53   A    
C25   C26   A    
C83   H12   S    
C68   H65   S    
N10   C77   A    
C112  H77   S    
C104  H57   S    
C23   C30   A    
C71   C72   A    
C36   O30   S    
C40   H5    S    
C102  H49   S    
C89   H15   S    
C51   O32   S    
C106  H60   S    
C24   O39   S    
C35   C36   A    
C77   C84   S    
C96   H33   S    
C100  H46   S    
C33   C34   A    
C97   H34   S    
C37   C38   A    
C111  C112  S    
C27   C28   A    
C35   C88   S    
C34   H4    S    
C8    C9    A    
C109  H71   S    
C108  H68   S    
C110  H73   S    
N5    C44   S    
C42   H37   S    
N4    C12   A    
O22   C86   A    
C73   C78   S    
C43   C44   A    
C80   H11   S    
O9    C4    A    
C65   O34   S    
O35   C107  S    
C60   H8    S    
N9    N10   A    
O37   C113  S    
C105  H58   S    
C81   C82   A    
C37   H29   S    
O20   V3    S    
