data_mof_unit_42519.cif
_audit_creation_date              2012-12-11T21:02:02-0500
_audit_creation_method            fapswitch 2.2
_symmetry_space_group_name_H-M    P1
_symmetry_Int_Tables_number       1
_space_group_crystal_system       triclinic
_cell_length_a                    8.266019
_cell_length_b                    18.787827
_cell_length_c                    22.792637
_cell_angle_alpha                 99.484752
_cell_angle_beta                  89.755573
_cell_angle_gamma                 91.776815
_cell_volume                      3489.63915561

loop_
_atom_site_label
_atom_site_type_symbol
_atom_type_description
_atom_site_fract_x
_atom_site_fract_y
_atom_site_fract_z
_atom_type_partial_charge
Ba1   Ba    Ba6+2 0.157800 0.534120 0.474430 1.657853
Ba2   Ba    Ba6+2 0.652390 0.465870 0.525520 1.690509
C1    C     C_3   0.360363 0.702626 0.260177 -0.302816
C2    C     C_3   0.392006 0.684296 0.321522 0.322172
C3    C     C_3   0.485431 0.688845 0.615090 0.321784
C4    C     C_3   0.489414 0.770677 0.631516 -0.387321
C5    C     C_3   0.015784 0.308169 0.690569 0.265683
C6    C     C_3   0.001344 0.249118 0.636735 -0.387179
C7    C     C_3   0.548130 0.266114 0.663147 0.775225
C8    C     C_3   0.591386 0.202419 0.695309 0.277122
C9    C     C_R   0.006095 0.949721 0.517764 0.006296
C10   C     C_R   0.097015 0.902344 0.545220 0.035941
C11   C     C_R   0.255231 0.922963 0.564187 -0.083535
C12   C     C_3   0.916528 0.726271 0.353068 0.350630
C13   C     C_R   0.321280 0.990369 0.557076 -0.100895
C14   C     C_R   0.227097 0.040724 0.534820 0.034355
C15   C     C_R   0.069571 0.019918 0.514038 0.013179
C16   C     C_R   0.287735 0.111274 0.533484 -0.086496
C17   C     C_R   0.192042 0.162686 0.512243 -0.045728
C18   C     C_R   0.035604 0.140642 0.488898 -0.001437
C19   C     C_R   0.976030 0.068919 0.489348 -0.003436
C20   C     C_R   0.244553 0.236139 0.515538 0.022634
C21   C     C_R   0.142519 0.285216 0.496143 -0.273461
C22   C     C_R   0.989522 0.264341 0.472705 0.036460
C23   C     C_3   0.933468 0.800974 0.335847 -0.360752
C24   C     C_R   0.936834 0.190575 0.466378 -0.046379
C25   C     C_R   0.852138 0.927045 0.494303 -0.008202
C26   C     C_R   0.792397 0.855467 0.495525 -0.008736
C27   C     C_R   0.885306 0.807364 0.522968 -0.047888
C28   C     C_R   0.031512 0.834092 0.551346 -0.038578
C29   C     C_R   0.788348 0.165068 0.438900 -0.040207
C30   C     C_R   0.728705 0.094501 0.440002 0.028611
C31   C     C_R   0.821527 0.046393 0.466048 0.007936
C32   C     C_R   0.760367 0.975372 0.467973 0.012602
C33   C     C_R   0.575848 0.071582 0.416120 -0.083001
C34   C     C_3   0.815575 0.375495 0.343471 0.259336
C35   C     C_R   0.515703 0.001541 0.417923 -0.086281
C36   C     C_R   0.607208 0.952893 0.443551 0.028875
C37   C     C_R   0.640245 0.832291 0.469152 -0.041984
C38   C     C_R   0.548042 0.882182 0.444574 -0.103237
C39   C     C_R   0.586821 0.759530 0.467288 -0.000830
C40   C     C_R   0.685039 0.711498 0.490405 -0.301365
C41   C     C_R   0.830783 0.733921 0.519524 0.048794
C42   C     C_R   0.646383 0.523578 0.334872 -0.302663
C43   C     C_R   0.372956 0.572369 0.948876 -0.031671
C44   C     C_R   0.321474 0.570094 0.889630 0.634356
C45   C     C_3   0.801089 0.354128 0.276188 -0.350919
C46   C     C_R   0.237561 0.445356 0.883189 0.570878
C47   C     C_R   0.290214 0.445541 0.942054 -0.013639
C48   C     C_R   0.358266 0.509502 0.974998 -0.051849
C49   C     C_R   0.439969 0.635927 0.982464 -0.055175
C50   C     C_R   0.491838 0.637042 0.040843 -0.069484
C51   C     C_R   0.479009 0.574546 0.067400 -0.017467
C52   C     C_R   0.412320 0.510540 0.034273 -0.051903
C53   C     C_R   0.278515 0.382958 0.968468 -0.072908
C54   C     C_R   0.334161 0.383720 0.026346 -0.063779
C55   C     C_R   0.401191 0.447344 0.059929 -0.035451
C56   C     C_3   0.925261 0.640640 0.667513 0.228839
C57   C     C_R   0.457781 0.448972 0.118493 0.608952
C58   C     C_R   0.530468 0.574890 0.126448 0.572501
C59   C     C_2   0.064361 0.485410 0.773872 -0.035726
C60   C     C_3   0.024494 0.489315 0.709329 -0.029088
C61   C     C_1   0.305244 0.518747 0.695348 0.052773
C62   C     C_2   0.342828 0.522441 0.752145 -0.077359
C63   C     C_2   0.215597 0.504641 0.794976 0.192588
C64   C     C_R   0.712375 0.545789 0.235725 -0.089661
C65   C     C_R   0.752905 0.550718 0.295825 -0.021892
C66   C     C_R   0.503963 0.486592 0.313964 0.006984
C67   C     C_3   0.835388 0.676805 0.722772 0.043379
C68   C     C_R   0.458503 0.484665 0.254187 -0.085046
C69   C     C_R   0.562097 0.514701 0.214264 0.201060
C70   C     C_2   0.174810 0.484061 0.671852 -0.294953
C71   C     C_3   0.267498 0.311774 0.313588 0.505449
C72   C     C_3   0.221122 0.236526 0.326286 -0.292031
H1    H     H_    0.315686 0.636110 0.326546 0.102271
H2    H     H_    0.717585 0.306340 0.265359 0.184169
H3    H     H_    0.753812 0.398973 0.256027 0.091236
H4    H     H_    0.920976 0.340190 0.256129 0.123068
H5    H     H_    0.043250 0.622648 0.681465 0.021608
H6    H     H_    0.856010 0.593568 0.644175 0.074716
H7    H     H_    0.910617 0.722773 0.746116 0.111778
H8    H     H_    0.720617 0.698327 0.709441 0.101980
H9    H     H_    0.153873 0.341543 0.313169 0.040921
H10   H     H_    0.242617 0.729289 0.259224 0.149435
H11   H     H_    0.329706 0.202261 0.323072 0.124886
H12   H     H_    0.128171 0.210668 0.293888 0.110806
H13   H     H_    0.170027 0.239962 0.371772 0.062323
H14   H     H_    0.521723 0.671600 0.324778 -0.042945
H15   H     H_    0.355152 0.652269 0.227075 0.113111
H16   H     H_    0.609575 0.670910 0.603411 -0.031175
H17   H     H_    0.404605 0.673548 0.575982 0.069005
H18   H     H_    0.571489 0.788369 0.669895 0.119514
H19   H     H_    0.533690 0.795534 0.593369 0.050786
H20   H     H_    0.365814 0.789600 0.643524 0.123977
H21   H     H_    0.458103 0.739519 0.248107 0.129664
H22   H     H_    0.874142 0.841087 0.369646 0.075456
H23   H     H_    0.117049 0.346266 0.684679 -0.029207
H24   H     H_    0.045789 0.282474 0.729390 0.082825
H25   H     H_    0.964257 0.272327 0.597371 0.104383
H26   H     H_    0.117149 0.222087 0.628326 0.132429
H27   H     H_    0.911812 0.207315 0.644766 0.090056
H28   H     H_    0.654885 0.274370 0.635222 0.019785
H29   H     H_    0.668741 0.222917 0.734825 0.045576
H30   H     H_    0.667260 0.164548 0.664407 -0.089510
H31   H     H_    0.977651 0.727877 0.396650 0.076963
H32   H     H_    0.329861 0.886118 0.582884 0.065324
H33   H     H_    0.446704 0.002679 0.568562 0.063170
H34   H     H_    0.182122 0.341282 0.500232 0.080808
H35   H     H_    0.408562 0.125809 0.550411 0.099200
H36   H     H_    0.100623 0.801360 0.576119 0.111837
H37   H     H_    0.715685 0.199650 0.417070 0.106448
H38   H     H_    0.502011 0.108071 0.396393 0.067122
H39   H     H_    0.397152 0.985453 0.399319 0.076107
H40   H     H_    0.430004 0.866663 0.425629 0.114866
H41   H     H_    0.785414 0.712978 0.357282 -0.057336
H42   H     H_    0.643520 0.655901 0.487955 0.069795
H43   H     H_    0.323644 0.334233 0.044855 0.141622
H44   H     H_    0.227422 0.332882 0.944258 0.126683
H45   H     H_    0.542401 0.687168 0.065126 0.126221
H46   H     H_    0.797909 0.565916 0.205818 0.118383
H47   H     H_    0.452726 0.685148 0.963675 0.134517
H48   H     H_    0.466341 0.534334 0.767141 0.152854
H49   H     H_    0.968751 0.473222 0.803817 0.133498
H50   H     H_    0.343252 0.459833 0.238798 0.139522
H51   H     H_    0.679642 0.527222 0.381155 0.078319
H52   H     H_    0.063463 0.816910 0.333113 0.139145
H53   H     H_    0.178357 0.449668 0.628683 0.066844
H54   H     H_    0.875029 0.801001 0.292052 0.129131
H55   H     H_    0.695161 0.389407 0.362082 0.044752
H56   H     H_    0.901344 0.422522 0.353737 0.060019
N1    N     N_R   0.256326 0.506862 0.857243 -0.428091
N2    N     N_R   0.516075 0.512852 0.152206 -0.429617
O1    O     O_2   0.110690 0.676100 0.539200 -0.454681
O2    O     O_3   0.376862 0.344633 0.357913 -0.618318
O3    O     O_3   0.989820 0.676124 0.309170 -0.597924
O4    O     O_2   0.699610 0.323860 0.460780 -0.451241
O5    O     O_3   0.947090 0.413280 0.465240 -0.485242
O6    O     O_3   0.442000 0.370930 0.567190 -0.447831
O7    O     O_3   0.871544 0.316523 0.366441 -0.643627
O8    O     O_3   0.359410 0.538600 0.570730 -0.478583
O9    O     O_3   0.850780 0.407910 0.598320 -0.480395
O10   O     O_2   0.698650 0.451540 0.699980 -0.393475
O11   O     O_3   0.866562 0.340830 0.702264 -0.589712
O12   O     O_3   0.863220 0.586720 0.534720 -0.494545
O13   O     O_3   0.450900 0.461390 0.429220 -0.454054
O14   O     O_2   0.599830 0.538970 0.641850 -0.460269
O15   O     O_3   0.428406 0.658829 0.663944 -0.619533
O16   O     O_2   0.583672 0.242910 0.531137 -0.530804
O17   O     O_3   0.407257 0.248849 0.628323 -0.658729
O18   O     O_2   0.333752 0.624579 0.866894 -0.552954
O19   O     O_2   0.176989 0.390163 0.854769 -0.624026
O20   O     O_2   0.457834 0.393017 0.139076 -0.537299
O21   O     O_2   0.587268 0.630756 0.154990 -0.613972
O22   O     O_3   0.368310 0.629070 0.432760 -0.489347
O23   O     O_2   0.249936 0.756600 0.473360 -0.492736
O24   O     O_3   0.955857 0.694076 0.632683 -0.656600
O25   O     O_3   0.351325 0.743238 0.364653 -0.609168
O26   O     O_2   0.210480 0.460990 0.358130 -0.484155
O27   O     O_3   0.959520 0.592090 0.401630 -0.485941
O28   O     O_2   0.088142 0.543577 0.295444 -0.501081
P1    P     P_3+3 0.935930 0.665430 0.555670 0.971500
P2    P     P_3+3 0.382700 0.439650 0.365620 1.014260
P3    P     P_3+3 0.948268 0.589370 0.324808 0.945716
P4    P     P_3+3 0.874370 0.334570 0.444280 0.996319
P5    P     P_3+3 0.864045 0.423490 0.676486 1.027341
P6    P     P_3+3 0.390264 0.722329 0.435160 0.928700
P7    P     P_3+3 0.420351 0.564736 0.644595 0.999251
P8    P     P_3+3 0.425073 0.275753 0.558089 0.949157
Br1   Br    Br    0.783891 0.613242 0.779111 -0.613526
Br2   Br    Br    0.369210 0.300218 0.235804 -0.600418
O29   O     O_3   0.529034 0.332159 0.702530 -0.637545
C73   C     C_3   0.415498 0.326391 0.748095 0.226376
H57   H     H_    0.320619 0.283398 0.736033 0.081898
H58   H     H_    0.352330 0.377855 0.757946 0.065955
H59   H     H_    0.480405 0.318107 0.789099 0.069681
O30   O     O_3   0.449242 0.169338 0.714419 -0.648402
C74   C     C_3   0.459520 0.092445 0.703226 0.204447
H60   H     H_    0.557415 0.074398 0.731253 0.034102
H61   H     H_    0.480185 0.074248 0.654750 0.025001
H62   H     H_    0.343732 0.066626 0.714785 0.064043

loop_
_geom_bond_atom_site_label_1
_geom_bond_atom_site_label_2
_ccdc_geom_bond_type
C53   C54   A    
C3    O15   S    
C5    H24   S    
O12   P1    S    
Ba2   O12   S    
C39   C40   A    
Ba1   O13   S    
C17   C18   A    
C16   H35   S    
O14   P7    D    
C58   N2    Am   
C5    O11   S    
C5    C6    S    
C37   C39   A    
Ba1   O22   S    
C51   C52   A    
C50   C51   A    
Ba2   O13   S    
C7    O17   S    
C48   C52   A    
C28   H36   S    
O7    P4    S    
C33   C35   A    
C6    H25   S    
C22   C24   A    
C45   H2    S    
Ba1   Ba2   S    
C3    C4    S    
C62   H48   S    
C55   C57   A    
C35   H39   S    
C12   O3    S    
C43   C49   A    
O23   P6    D    
C13   C14   A    
C54   C55   A    
C34   C45   S    
O6    P8    S    
C16   C17   A    
C54   H43   S    
C13   H33   S    
C71   O2    S    
C58   O21   D    
O11   P5    S    
C2    H1    S    
C67   H8    S    
C69   N2    S    
C12   H31   S    
C38   H40   S    
C2    O25   S    
C14   C15   A    
C4    H20   S    
C21   C22   A    
C46   N1    Am   
O30   C74   S    
C68   C69   A    
C72   H13   S    
C6    H27   S    
C3    H16   S    
C73   H59   S    
C56   H6    S    
C20   P8    S    
C4    H19   S    
O8    P7    S    
C61   P7    S    
C64   C65   A    
Ba1   P1    S    
C24   C29   A    
C12   C23   S    
C64   H46   S    
C27   C41   A    
C22   P4    S    
O17   P8    S    
Ba1   O1    S    
C7    C8    S    
C63   N1    S    
C51   C58   A    
C73   H58   S    
C25   C32   A    
C8    O30   S    
C42   H51   S    
C1    H15   S    
C57   N2    Am   
C70   H53   S    
C49   C50   A    
Ba2   O6    S    
O28   P3    D    
Ba1   O27   S    
C17   C20   A    
C67   H7    S    
Ba2   P4    S    
C44   N1    Am   
C7    H28   S    
C26   C37   A    
C74   H61   S    
C47   C53   A    
Ba2   O4    S    
O2    P2    S    
C35   C36   A    
C23   H52   S    
C30   C33   A    
C27   C28   A    
O15   P7    S    
C34   H56   S    
C64   C69   A    
C9    C25   A    
C74   H62   S    
C39   P6    S    
C49   H47   S    
C31   C32   A    
C60   C70   S    
C67   Br1   S    
C10   C11   A    
O29   C73   S    
C8    H29   S    
C3    H17   S    
Ba1   O8    S    
C56   O24   S    
C56   H5    S    
C41   P1    S    
C40   H42   S    
C46   C47   A    
C44   O18   D    
O24   P1    S    
C47   C48   A    
C11   C13   A    
C68   H50   S    
O16   P8    D    
O27   P3    S    
C42   C66   A    
Ba2   O14   S    
C40   C41   A    
C45   H3    S    
C1    C2    S    
C26   C27   A    
C71   C72   S    
C37   C38   A    
Ba1   O5    S    
C73   H57   S    
O4    P4    D    
Ba2   O9    S    
C9    C15   A    
C5    H23   S    
C10   C28   A    
C32   C36   A    
Ba2   O5    S    
O3    P3    S    
C23   H54   S    
C29   C30   A    
C53   H44   S    
C11   H32   S    
O1    P1    D    
O25   P6    S    
Ba1   P2    S    
O5    P4    S    
C59   C63   D    
C9    C10   A    
C56   C67   S    
C2    H14   S    
C66   P2    S    
C72   H12   S    
O9    P5    S    
C57   O20   D    
C59   H49   S    
Ba2   O8    S    
C62   C63   S    
C8    H30   S    
C6    H26   S    
Ba1   O12   S    
C34   H55   S    
C30   C31   A    
O10   P5    D    
C36   C38   A    
Ba1   O26   S    
C18   C24   A    
C43   C48   A    
C4    H18   S    
C21   H34   S    
C61   C70   D    
C72   H11   S    
C59   C60   S    
C34   O7    S    
C15   C19   A    
C7    O29   S    
O26   P2    D    
C61   C62   D    
C50   H45   S    
C65   P3    S    
C60   P5    S    
C19   C31   A    
C18   C19   A    
C23   H22   S    
C14   C16   A    
C74   H60   S    
O13   P2    S    
C46   O19   D    
C1    H10   S    
C66   C68   A    
C29   H37   S    
C20   C21   A    
O22   P6    S    
C42   C65   A    
C1    H21   S    
C45   H4    S    
C71   Br2   S    
C71   H9    S    
C33   H38   S    
C12   H41   S    
C43   C44   A    
C25   C26   A    
C52   C55   A    
