data_mof_unit_15988.cif
_audit_creation_date              2012-12-11T14:51:42-0500
_audit_creation_method            fapswitch 2.2
_symmetry_space_group_name_H-M    P1
_symmetry_Int_Tables_number       1
_space_group_crystal_system       triclinic
_cell_length_a                    6.938783
_cell_length_b                    16.693284
_cell_length_c                    16.914297
_cell_angle_alpha                 101.455732
_cell_angle_beta                  91.417343
_cell_angle_gamma                 89.487912
_cell_volume                      1919.56720397

loop_
_atom_site_label
_atom_site_type_symbol
_atom_type_description
_atom_site_fract_x
_atom_site_fract_y
_atom_site_fract_z
_atom_type_partial_charge
O1    O     O_R   0.506340 0.439070 0.579550 -0.536860
O2    O     O_R   0.170010 0.404890 0.412100 -0.541337
O3    O     O_R   0.005010 0.560930 0.420450 -0.537517
C1    C     C_R   0.338935 0.381540 0.383156 0.674911
O4    O     O_R   0.176280 0.429360 0.578400 -0.538825
O5    O     O_R   0.011320 0.585570 0.587940 -0.537517
C2    C     C_R   0.347796 0.414326 0.605260 0.698331
O6    O     O_R   0.500030 0.414430 0.412060 -0.537065
O7    O     O_3   0.340950 0.551220 0.502940 -0.369372
V1    V     V_3+5 0.064020 0.490500 0.499460 1.403999
O8    O     O_R   0.681910 0.595110 0.587900 -0.543277
C3    C     C_R   0.851846 0.618383 0.616699 0.680033
O9    O     O_R   0.675640 0.570640 0.421600 -0.543560
C4    C     C_R   0.840984 0.586770 0.394903 0.698106
V2    V     V_3+5 0.564670 0.509500 0.500540 1.400893
O10   O     O_3   0.837610 0.448780 0.497060 -0.365194
C5    C     C_R   0.931226 0.859306 0.165964 -0.070044
C6    C     C_R   0.834424 0.640576 0.334054 -0.069918
C7    C     C_R   0.642593 0.701215 0.237255 -0.204705
C8    C     C_R   0.661716 0.646272 0.289550 -0.167778
C9    C     C_R   0.989832 0.690796 0.323779 -0.244506
C10   C     C_R   0.970491 0.747143 0.271695 0.161102
C11   C     C_R   0.795151 0.752701 0.228280 0.160879
C12   C     C_R   0.775815 0.809067 0.176206 -0.244535
C13   C     C_R   0.103933 0.853583 0.210460 -0.168208
C14   C     C_R   0.123057 0.798620 0.262727 -0.205221
H1    H     H_    0.642463 0.812084 0.142126 0.122267
H2    H     H_    0.226423 0.891518 0.204413 0.126595
H3    H     H_    0.507554 0.703804 0.204267 0.121810
H4    H     H_    0.258099 0.796018 0.295708 0.121435
H5    H     H_    0.539243 0.608335 0.295615 0.126762
H6    H     H_    0.123196 0.687785 0.357853 0.122135
C15   C     C_3   0.804219 0.817473 0.730950 -0.141320
C16   C     C_3   0.974689 0.768544 0.687135 -0.141235
H7    H     H_    0.049888 0.783418 0.634727 0.100828
H8    H     H_    0.739478 0.873719 0.715733 0.100107
C17   C     C_3   0.866237 0.688593 0.687470 -0.006745
C18   C     C_3   0.695580 0.736687 0.730463 -0.117003
C19   C     C_3   0.791388 0.731318 0.812979 -0.141221
C20   C     C_3   0.961855 0.682386 0.769161 -0.142140
C21   C     C_3   0.070497 0.763173 0.769651 -0.116881
C22   C     C_3   0.899840 0.811272 0.812641 -0.006847
H9    H     H_    0.541061 0.725395 0.713801 0.105688
H10   H     H_    0.716189 0.716439 0.865386 0.101138
H11   H     H_    0.026587 0.626134 0.784374 0.100465
H12   H     H_    0.225017 0.774459 0.786312 0.106019
C23   C     C_3   0.487325 0.236382 0.313314 -0.133060
C24   C     C_3   0.326413 0.180060 0.268535 -0.141366
H13   H     H_    0.280732 0.121563 0.283934 0.098197
H14   H     H_    0.572703 0.224938 0.366366 0.101766
C25   C     C_3   0.410204 0.189485 0.187261 -0.006675
C26   C     C_3   0.570943 0.245065 0.231266 -0.118739
C27   C     C_3   0.439487 0.320590 0.230772 -0.138172
C28   C     C_3   0.278575 0.264235 0.185995 -0.129017
C29   C     C_3   0.194989 0.255571 0.268041 -0.120451
C30   C     C_3   0.355724 0.311142 0.312069 -0.010061
H15   H     H_    0.725320 0.240573 0.215381 0.103198
H16   H     H_    0.485126 0.379040 0.215255 0.098406
H17   H     H_    0.192435 0.275669 0.133159 0.100944
H18   H     H_    0.040559 0.260074 0.283842 0.103133
C31   C     C_R   0.398398 0.143588 0.837972 -0.092405
C32   C     C_R   0.368957 0.366907 0.670171 -0.056366
C33   C     C_R   0.530058 0.349665 0.795161 -0.183972
C34   C     C_R   0.494243 0.395446 0.735671 -0.174761
C35   C     C_R   0.279687 0.290951 0.664634 -0.224602
C36   C     C_R   0.319807 0.242843 0.723011 0.125905
C37   C     C_R   0.445492 0.272022 0.790031 0.135606
C38   C     C_R   0.482749 0.222913 0.849411 0.079384
C39   C     C_R   0.276166 0.116797 0.770715 -0.203509
C40   C     C_R   0.236718 0.165595 0.714422 -0.190616
H19   H     H_    0.208778 0.057252 0.761962 0.124650
H20   H     H_    0.627011 0.376058 0.844067 0.128896
H21   H     H_    0.140838 0.142517 0.663601 0.121797
H22   H     H_    0.565423 0.453853 0.740823 0.114014
H23   H     H_    0.185036 0.267998 0.613309 0.109680
O11   O     O_R   0.266070 0.085680 0.087850 -0.537712
O12   O     O_R   0.590090 0.070660 0.921580 -0.545849
O13   O     O_R   0.754780 0.914400 0.912080 -0.536329
C41   C     C_R   0.418461 0.089358 0.897722 0.704699
O14   O     O_R   0.596110 0.095130 0.087880 -0.542736
O15   O     O_R   0.760850 0.939050 0.079570 -0.537111
C42   C     C_R   0.427095 0.118818 0.116486 0.676275
O16   O     O_R   0.260010 0.061030 0.920360 -0.535281
O17   O     O_3   0.425070 0.948840 0.997010 -0.367701
V3    V     V_3+5 0.702100 0.009490 0.000550 1.395418
O18   O     O_R   0.090200 0.929250 0.078500 -0.543569
C43   C     C_R   0.924785 0.913143 0.105139 0.698904
O19   O     O_R   0.084180 0.904770 0.912200 -0.542426
C44   C     C_R   0.914243 0.881517 0.883383 0.682022
V4    V     V_3+5 0.201420 0.990350 0.999580 1.401189
O20   O     O_3   0.928580 0.051150 0.002990 -0.367860
C45   C     C_3   0.598003 0.257362 0.926557 -0.373516
C46   C     C_3   0.476013 0.316712 0.985730 -0.781898
H24   H     H_    0.428589 0.369699 0.959508 0.231782
H25   H     H_    0.346841 0.284899 0.001528 0.219273
H26   H     H_    0.561807 0.339686 0.041832 0.216379
H27   H     H_    0.650598 0.209754 0.958593 0.197610
H28   H     H_    0.731824 0.287214 0.912813 0.171965

loop_
_geom_bond_atom_site_label_1
_geom_bond_atom_site_label_2
_ccdc_geom_bond_type
C24   C29   S    
C29   C30   S    
C46   H24   S    
C16   C17   S    
C21   C22   S    
C4    C6    S    
O2    C1    A    
C7    C8    A    
C12   H1    S    
C1    O6    A    
V3    O20   S    
C45   H28   S    
C27   C28   S    
C13   H2    S    
C17   C18   S    
C15   C22   S    
C9    C10   A    
C17   C20   S    
O5    C3    A    
C18   C19   S    
V2    O10   S    
C6    C9    A    
C15   H8    S    
C16   H7    S    
C3    C17   S    
C39   H19   S    
C32   C34   A    
O8    V2    S    
C24   C25   S    
C21   H12   S    
O1    V2    S    
C23   H14   S    
O7    V1    S    
C36   C37   A    
O12   V3    S    
C46   H25   S    
C5    C43   S    
O9    C4    A    
C1    C30   S    
C16   C21   S    
O17   V4    S    
C45   H27   S    
C19   C22   S    
C28   H17   S    
O12   C41   A    
O13   C44   A    
C20   H11   S    
C9    H6    S    
C33   C37   A    
C5    C12   A    
C37   C38   A    
O17   V3    S    
O14   C42   A    
O18   V4    S    
O11   C42   A    
C19   C20   S    
O4    C2    A    
O18   C43   A    
C13   C14   A    
C25   C26   S    
C7    C11   A    
C2    C32   S    
O14   V3    S    
C23   C24   S    
C11   C12   A    
C40   H21   S    
C15   C16   S    
O19   C44   A    
C25   C42   S    
O15   C43   A    
O3    C4    A    
O13   V3    S    
C24   H13   S    
O19   V4    S    
C14   H4    S    
C46   H26   S    
O9    V2    S    
C19   H10   S    
O2    V1    S    
C26   C27   S    
C27   C30   S    
C31   C39   A    
O16   V4    S    
C28   C29   S    
C20   C21   S    
C32   C35   A    
O1    C2    A    
O5    V1    S    
C27   H16   S    
C23   C26   S    
O6    V2    S    
C15   C18   S    
C35   H23   S    
C25   C28   S    
C5    C13   A    
C22   C44   S    
O7    V2    S    
O4    V1    S    
O3    V1    S    
V1    O10   S    
C41   O16   A    
C31   C38   A    
V4    O20   S    
C36   C40   A    
C31   C41   S    
C45   C46   S    
C38   C45   S    
C6    C8    A    
C39   C40   A    
C26   H15   S    
C33   C34   A    
C18   H9    S    
C33   H20   S    
C35   C36   A    
C10   C14   A    
C34   H22   S    
C10   C11   A    
C29   H18   S    
O15   V3    S    
O8    C3    A    
O11   V4    S    
C23   C30   S    
C8    H5    S    
C7    H3    S    
