data_mof_unit_65892.cif
_audit_creation_date              2012-12-10T17:28:07-0500
_audit_creation_method            fapswitch 2.2
_symmetry_space_group_name_H-M    P1
_symmetry_Int_Tables_number       1
_space_group_crystal_system       triclinic
_cell_length_a                    29.411519
_cell_length_b                    29.411578
_cell_length_c                    47.294023
_cell_angle_alpha                 89.999385
_cell_angle_beta                  90.000146
_cell_angle_gamma                 89.992948
_cell_volume                      40911.1828068

loop_
_atom_site_label
_atom_site_type_symbol
_atom_type_description
_atom_site_fract_x
_atom_site_fract_y
_atom_site_fract_z
_atom_type_partial_charge
C1    C     C_R   0.085521 0.499997 0.000000 0.837043
C2    C     C_R   0.499998 0.085521 0.999998 0.832558
C3    C     C_R   0.914479 0.500002 0.000000 0.837042
C4    C     C_R   0.500002 0.914479 0.999998 0.832540
C5    C     C_R   0.585521 0.999997 0.500002 0.833081
C6    C     C_R   0.999997 0.585521 0.500000 0.837078
C7    C     C_R   0.414479 0.000002 0.500002 0.833093
C8    C     C_R   0.000002 0.414479 0.500000 0.837081
C9    C     C_R   1.000000 0.499999 0.086060 -0.311791
C10   C     C_R   0.499998 0.000012 0.086144 -0.316738
C11   C     C_R   0.000001 0.500000 0.913940 -0.311808
C12   C     C_R   0.500000 0.000001 0.913940 -0.312061
C13   C     C_R   0.500002 1.000000 0.586059 -0.312025
C14   C     C_R   0.000001 0.499999 0.586059 -0.311781
C15   C     C_R   0.499991 0.000003 0.413868 -0.316214
C16   C     C_R   1.000000 0.499999 0.413940 -0.311791
C17   C     C_R   0.999999 0.499998 0.145501 0.071442
C18   C     C_R   0.499986 0.000032 0.145621 0.069913
C19   C     C_R   0.000003 0.500000 0.854498 0.071418
C20   C     C_R   0.500002 0.000003 0.854499 0.071437
C21   C     C_R   0.500004 0.000001 0.645501 0.071446
C22   C     C_R   0.000003 0.499997 0.645501 0.071459
C23   C     C_R   0.499976 0.000014 0.354397 0.069802
C24   C     C_R   0.999999 0.499999 0.354499 0.071443
C25   C     C_1   0.136631 0.499993 1.000000 -0.126211
C26   C     C_1   0.499994 0.136632 0.999997 -0.129007
C27   C     C_1   0.863368 0.500007 0.000000 -0.126212
C28   C     C_1   0.500006 0.863368 0.999996 -0.129021
C29   C     C_1   0.636632 0.999994 0.500003 -0.128725
C30   C     C_1   0.999993 0.636632 0.500000 -0.126199
C31   C     C_1   0.363368 0.000006 0.500003 -0.128716
C32   C     C_1   0.000007 0.363368 0.500000 -0.126196
C33   C     C_1   0.178997 0.499992 1.000000 0.049674
C34   C     C_1   0.499993 0.178997 0.999996 0.048209
C35   C     C_1   0.821003 0.500007 0.000000 0.049673
C36   C     C_1   0.500007 0.821002 0.999996 0.048202
C37   C     C_1   0.678997 0.999993 0.500003 0.048340
C38   C     C_1   0.999992 0.678997 0.500000 0.049678
C39   C     C_1   0.321002 0.000007 0.500004 0.048345
C40   C     C_1   0.000007 0.321003 0.500000 0.049680
C41   C     C_1   0.229226 0.499993 1.000000 0.046524
C42   C     C_1   0.499994 0.229227 0.999997 0.045609
C43   C     C_1   0.770774 0.500007 0.000000 0.046523
C44   C     C_1   0.500006 0.770773 0.999996 0.045604
C45   C     C_1   0.729227 0.999994 0.500003 0.045681
C46   C     C_1   0.999993 0.729226 0.500000 0.046525
C47   C     C_1   0.270773 0.000006 0.500003 0.045685
C48   C     C_1   0.000007 0.270774 0.500000 0.046527
C49   C     C_1   0.271593 0.499995 1.000000 0.040916
C50   C     C_1   0.499995 0.271593 0.999998 0.040363
C51   C     C_1   0.728407 0.500005 0.000000 0.040915
C52   C     C_1   0.500005 0.728407 0.999997 0.040360
C53   C     C_1   0.771593 0.999995 0.500002 0.040401
C54   C     C_1   0.999995 0.771593 0.500000 0.040917
C55   C     C_1   0.228407 0.000005 0.500002 0.040404
C56   C     C_1   0.000005 0.228407 0.500000 0.040918
C57   C     C_1   0.321822 0.499997 1.000000 0.033914
C58   C     C_1   0.499997 0.321823 0.999999 0.033628
C59   C     C_1   0.678178 0.500003 0.000000 0.033913
C60   C     C_1   0.500003 0.678177 0.999998 0.033626
C61   C     C_1   0.821823 0.999997 0.500001 0.033645
C62   C     C_1   0.999997 0.821822 0.500000 0.033917
C63   C     C_1   0.178177 0.000003 0.500001 0.033647
C64   C     C_1   0.000003 0.178178 0.499999 0.033918
C65   C     C_1   0.364189 0.499998 1.000000 -0.159529
C66   C     C_1   0.499999 0.364189 1.000000 -0.159661
C67   C     C_1   0.635811 0.500002 0.000000 -0.159529
C68   C     C_1   0.500001 0.635811 0.999999 -0.159662
C69   C     C_1   0.864189 0.999998 0.500000 -0.159651
C70   C     C_1   0.999998 0.864189 0.500000 -0.159525
C71   C     C_1   0.135811 0.000002 0.500000 -0.159650
C72   C     C_1   0.000002 0.135811 0.500000 -0.159523
C73   C     C_R   0.000000 0.500000 0.055014 0.966952
C74   C     C_R   0.500000 0.000001 0.055044 0.956315
C75   C     C_R   1.000000 0.500000 0.944986 0.966927
C76   C     C_R   0.500000 0.000000 0.944986 0.967290
C77   C     C_R   0.500000 1.000000 0.555014 0.967285
C78   C     C_R   1.000000 0.500000 0.555014 0.967012
C79   C     C_R   0.499999 0.000000 0.444961 0.957617
C80   C     C_R   1.000000 0.500000 0.444986 0.966954
C81   C     C_R   0.500000 0.415303 0.000000 0.794884
C82   C     C_R   0.584696 0.500000 0.000000 0.794880
C83   C     C_R   0.500000 0.584696 1.000000 0.794884
C84   C     C_R   0.415303 0.500000 1.000000 0.794879
C85   C     C_R   1.000000 0.915303 0.500000 0.794877
C86   C     C_R   0.084696 0.000000 0.500000 0.794885
C87   C     C_R   0.000000 0.084696 0.500000 0.794879
C88   C     C_R   0.915304 1.000000 0.500000 0.794884
C89   C     C_R   0.028309 0.471047 0.310076 0.662132
C90   C     C_R   0.531561 0.025290 0.309934 0.666539
C91   C     C_R   0.971689 0.528949 0.310076 0.662129
C92   C     C_R   0.468361 0.974772 0.309934 0.666336
C93   C     C_R   0.028335 0.528921 0.689923 0.662075
C94   C     C_R   0.528951 0.971688 0.689924 0.662111
C95   C     C_R   0.971675 0.471071 0.689924 0.662078
C96   C     C_R   0.471060 0.028320 0.689923 0.662101
C97   C     C_R   0.528310 0.971050 0.810076 0.662122
C98   C     C_R   0.028973 0.528282 0.810075 0.662158
C99   C     C_R   0.471699 0.028960 0.810075 0.662128
C100  C     C_R   0.971036 0.471713 0.810076 0.662149
C101  C     C_R   0.524613 0.032131 0.190082 0.666107
C102  C     C_R   0.028949 0.471687 0.189924 0.662131
C103  C     C_R   0.475323 0.967963 0.190082 0.666223
C104  C     C_R   0.971049 0.528308 0.189924 0.662131
C105  C     C_R   0.971237 0.530439 0.280096 -0.086982
C106  C     C_R   0.469737 0.971125 0.280059 -0.079997
C107  C     C_R   0.028760 0.469557 0.280097 -0.086982
C108  C     C_R   0.530146 0.028985 0.280063 -0.079874
C109  C     C_R   0.971206 0.469596 0.719904 -0.087034
C110  C     C_R   0.469577 0.028780 0.719903 -0.087035
C111  C     C_R   0.028810 0.530390 0.719903 -0.087040
C112  C     C_R   0.530439 0.971235 0.719904 -0.087028
C113  C     C_R   0.471256 0.030458 0.780096 -0.087023
C114  C     C_R   0.969531 0.471279 0.780096 -0.087011
C115  C     C_R   0.528760 0.969558 0.780097 -0.087028
C116  C     C_R   0.030484 0.528710 0.780096 -0.087007
C117  C     C_R   0.471651 0.969258 0.219957 -0.080029
C118  C     C_R   0.969558 0.528760 0.219903 -0.086983
C119  C     C_R   0.528248 0.030864 0.219960 -0.080092
C120  C     C_R   0.030438 0.471235 0.219904 -0.086983
C121  C     C_R   0.999998 0.499998 0.265036 0.003937
C122  C     C_R   0.499943 0.000056 0.265012 -0.004558
C123  C     C_R   0.000008 0.499993 0.734963 0.003900
C124  C     C_R   0.500008 0.000008 0.734963 0.003906
C125  C     C_R   0.500008 0.000008 0.765036 0.003905
C126  C     C_R   0.000007 0.499994 0.765036 0.003891
C127  C     C_R   0.499948 0.000061 0.235006 -0.004339
C128  C     C_R   0.999998 0.499997 0.234963 0.003938
C129  C     C_R   0.942169 0.560320 0.264858 -0.097040
C130  C     C_R   0.441317 0.940516 0.264934 -0.103189
C131  C     C_R   0.057828 0.439675 0.264859 -0.097038
C132  C     C_R   0.558521 0.059647 0.264946 -0.103287
C133  C     C_R   0.942084 0.439775 0.735142 -0.097092
C134  C     C_R   0.439714 0.057867 0.735141 -0.097115
C135  C     C_R   0.057938 0.560206 0.735141 -0.097085
C136  C     C_R   0.560309 0.942155 0.735142 -0.097114
C137  C     C_R   0.442206 0.060356 0.764858 -0.097130
C138  C     C_R   0.939597 0.442271 0.764859 -0.097128
C139  C     C_R   0.557818 0.939666 0.764859 -0.097123
C140  C     C_R   0.060423 0.557711 0.764859 -0.097128
C141  C     C_R   0.441641 0.940201 0.235082 -0.103207
C142  C     C_R   0.939678 0.557829 0.235141 -0.097044
C143  C     C_R   0.558214 0.059960 0.235093 -0.103275
C144  C     C_R   0.060318 0.442165 0.235142 -0.097040
C145  C     C_R   0.031406 0.527663 0.130559 -0.120166
C146  C     C_R   0.468429 0.027499 0.130678 -0.120416
C147  C     C_R   0.968594 0.472334 0.130558 -0.120167
C148  C     C_R   0.531550 0.972555 0.130691 -0.120406
C149  C     C_R   0.031398 0.472316 0.869442 -0.120118
C150  C     C_R   0.472333 0.968600 0.869441 -0.120111
C151  C     C_R   0.968608 0.527685 0.869440 -0.120109
C152  C     C_R   0.527669 0.031406 0.869442 -0.120122
C153  C     C_R   0.531413 0.027661 0.630558 -0.120113
C154  C     C_R   0.972349 0.531420 0.630559 -0.120089
C155  C     C_R   0.468594 0.972340 0.630559 -0.120104
C156  C     C_R   0.027655 0.468575 0.630558 -0.120095
C157  C     C_R   0.527959 0.968895 0.369329 -0.120259
C158  C     C_R   0.972334 0.468594 0.369442 -0.120171
C159  C     C_R   0.471999 0.031125 0.369339 -0.120304
C160  C     C_R   0.027664 0.531404 0.369441 -0.120169
C161  C     C_R   0.030468 0.527784 0.100821 0.483938
C162  C     C_R   0.468512 0.026666 0.100944 0.485936
C163  C     C_R   0.969531 0.472214 0.100821 0.483938
C164  C     C_R   0.531479 0.973369 0.100956 0.485940
C165  C     C_R   0.030460 0.472196 0.899179 0.483937
C166  C     C_R   0.472212 0.969537 0.899178 0.484060
C167  C     C_R   0.969544 0.527805 0.899178 0.483934
C168  C     C_R   0.527789 0.030467 0.899180 0.484062
C169  C     C_R   0.530474 0.027781 0.600820 0.484036
C170  C     C_R   0.972226 0.530483 0.600821 0.483907
C171  C     C_R   0.469531 0.972218 0.600822 0.484035
C172  C     C_R   0.027776 0.469514 0.600820 0.483910
C173  C     C_R   0.527122 0.968941 0.399065 0.485625
C174  C     C_R   0.972214 0.469531 0.399180 0.483936
C175  C     C_R   0.472851 0.031068 0.399074 0.485631
C176  C     C_R   0.027785 0.530467 0.399179 0.483934
Cu1   Cu    Cu3+1 0.000000 0.542440 0.000000 1.104660
Cu2   Cu    Cu3+1 0.457560 0.000000 0.000000 1.106982
Cu3   Cu    Cu3+1 0.000000 0.457560 0.000000 1.104663
Cu4   Cu    Cu3+1 0.542440 0.000000 0.000000 1.106970
Cu5   Cu    Cu3+1 0.500000 0.042440 0.500000 1.106633
Cu6   Cu    Cu3+1 0.957560 0.500000 0.500000 1.104622
Cu7   Cu    Cu3+1 0.500000 0.957560 0.500000 1.106624
Cu8   Cu    Cu3+1 0.042440 0.500000 0.500000 1.104623
Cu9   Cu    Cu3+1 0.500000 0.500000 0.028170 1.024129
Cu10  Cu    Cu3+1 0.500000 0.500000 0.971830 1.024888
Cu11  Cu    Cu3+1 0.000000 0.000000 0.528170 1.024894
Cu12  Cu    Cu3+1 0.000000 0.000000 0.471830 1.024142
N1    N     N_R   0.999999 0.499998 0.324029 -0.410786
N2    N     N_R   0.499968 0.000023 0.323941 -0.412888
N3    N     N_R   0.000004 0.499996 0.675970 -0.410748
N4    N     N_R   0.500005 0.000003 0.675971 -0.410768
N5    N     N_R   0.500003 0.000004 0.824029 -0.410778
N6    N     N_R   0.000004 0.499999 0.824029 -0.410784
N7    N     N_R   0.499977 0.000041 0.176077 -0.412795
N8    N     N_R   0.999999 0.499998 0.175971 -0.410787
O1    O     O_R   0.061940 0.535840 0.000010 -0.559329
O2    O     O_R   0.464160 0.061940 0.000010 -0.559375
O3    O     O_R   0.938060 0.464160 0.000010 -0.559328
O4    O     O_R   0.535840 0.938060 0.000010 -0.559392
O5    O     O_R   0.061940 0.464160 0.999990 -0.559340
O6    O     O_R   0.464160 0.938060 0.999990 -0.558886
O7    O     O_R   0.938060 0.535840 0.999990 -0.559342
O8    O     O_R   0.535840 0.061940 0.999990 -0.558889
O9    O     O_R   0.561940 0.035840 0.500010 -0.558980
O10   O     O_R   0.964160 0.561940 0.500010 -0.559348
O11   O     O_R   0.438060 0.964160 0.500010 -0.558985
O12   O     O_R   0.035840 0.438060 0.500010 -0.559347
O13   O     O_R   0.561940 0.964160 0.499990 -0.559341
O14   O     O_R   0.964160 0.438060 0.499990 -0.559330
O15   O     O_R   0.438060 0.035840 0.499990 -0.559328
O16   O     O_R   0.035840 0.561940 0.499990 -0.559331
O17   O     O_R   0.499970 0.438000 0.023810 -0.551007
O18   O     O_R   0.562000 0.499970 0.023810 -0.550901
O19   O     O_R   0.500030 0.562000 0.023810 -0.551008
O20   O     O_R   0.438000 0.500030 0.023810 -0.550899
O21   O     O_R   0.499970 0.562000 0.976190 -0.550703
O22   O     O_R   0.562000 0.500030 0.976190 -0.550751
O23   O     O_R   0.500030 0.438000 0.976190 -0.550701
O24   O     O_R   0.438000 0.499970 0.976190 -0.550750
O25   O     O_R   0.999970 0.938000 0.523810 -0.550750
O26   O     O_R   0.062000 0.999970 0.523810 -0.550705
O27   O     O_R   0.000030 0.062000 0.523810 -0.550750
O28   O     O_R   0.938000 0.000030 0.523810 -0.550704
O29   O     O_R   0.999970 0.062000 0.476190 -0.550900
O30   O     O_R   0.062000 0.000030 0.476190 -0.551001
O31   O     O_R   0.000030 0.938000 0.476190 -0.550899
O32   O     O_R   0.938000 0.999970 0.476190 -0.551001
O33   O     O_R   0.999950 0.535840 0.041070 -0.549003
O34   O     O_R   0.464160 0.999950 0.041070 -0.543530
O35   O     O_R   0.000050 0.464160 0.041070 -0.549004
O36   O     O_R   0.535840 0.000050 0.041070 -0.543539
O37   O     O_R   0.999950 0.464160 0.958930 -0.548990
O38   O     O_R   0.464160 0.000050 0.958930 -0.548702
O39   O     O_R   0.000050 0.535840 0.958930 -0.548992
O40   O     O_R   0.535840 0.999950 0.958930 -0.548701
O41   O     O_R   0.499950 0.035840 0.541070 -0.548748
O42   O     O_R   0.964160 0.499950 0.541070 -0.549036
O43   O     O_R   0.500050 0.964160 0.541070 -0.548748
O44   O     O_R   0.035840 0.500050 0.541070 -0.549035
O45   O     O_R   0.499950 0.964160 0.458930 -0.544211
O46   O     O_R   0.964160 0.500050 0.458930 -0.549006
O47   O     O_R   0.500050 0.035840 0.458930 -0.544209
O48   O     O_R   0.035840 0.499950 0.458930 -0.549007
O49   O     O_2   0.056444 0.444720 0.325528 -0.494366
O50   O     O_2   0.564054 0.046447 0.325150 -0.501245
O51   O     O_2   0.943554 0.555276 0.325527 -0.494367
O52   O     O_2   0.435904 0.953573 0.325157 -0.501222
O53   O     O_2   0.056465 0.555244 0.674470 -0.494426
O54   O     O_2   0.555274 0.943549 0.674473 -0.494348
O55   O     O_2   0.943539 0.444753 0.674471 -0.494417
O56   O     O_2   0.444732 0.056453 0.674471 -0.494358
O57   O     O_2   0.556443 0.944720 0.825528 -0.494330
O58   O     O_2   0.055296 0.556418 0.825524 -0.494326
O59   O     O_2   0.443559 0.055284 0.825526 -0.494317
O60   O     O_2   0.944709 0.443583 0.825526 -0.494337
O61   O     O_2   0.545216 0.064960 0.174851 -0.501316
O62   O     O_2   0.055276 0.443551 0.174473 -0.494364
O63   O     O_2   0.454745 0.935114 0.174856 -0.501313
O64   O     O_2   0.944722 0.556445 0.174472 -0.494363
C177  C     C_2   0.913826 0.594971 0.279393 0.969444
O65   O     O_2   0.931827 0.628461 0.289855 -0.510769
O66   O     O_R   0.866654 0.589553 0.280506 -0.714503
H1    H     H_    0.851040 0.615502 0.290744 0.357066
C178  C     C_2   0.412275 0.906889 0.279896 0.975460
O67   O     O_2   0.370860 0.909468 0.278236 -0.543332
O68   O     O_R   0.432612 0.872127 0.295596 -0.680740
H2    H     H_    0.409459 0.851290 0.304773 0.358694
C179  C     C_2   0.086169 0.405024 0.279395 0.969437
O69   O     O_2   0.068168 0.371534 0.289858 -0.510771
O70   O     O_R   0.133341 0.410440 0.280508 -0.714499
H3    H     H_    0.148955 0.384491 0.290747 0.357065
C180  C     C_2   0.587447 0.093364 0.279919 0.975393
O71   O     O_2   0.628870 0.091000 0.278207 -0.543321
O72   O     O_R   0.566986 0.127966 0.295694 -0.680845
H4    H     H_    0.590063 0.148887 0.304871 0.358688
C181  C     C_2   0.913656 0.405200 0.720608 0.969600
O73   O     O_2   0.931569 0.371634 0.710175 -0.510669
O74   O     O_R   0.866504 0.410778 0.719461 -0.714542
H5    H     H_    0.850824 0.384868 0.709228 0.357119
C182  C     C_2   0.405087 0.086238 0.720605 0.969541
O75   O     O_2   0.371571 0.068268 0.710154 -0.510711
O76   O     O_R   0.410557 0.133403 0.719478 -0.714515
H6    H     H_    0.384621 0.149040 0.709241 0.357136
C183  C     C_2   0.086379 0.594768 0.720606 0.969624
O77   O     O_2   0.068482 0.628350 0.710182 -0.510647
O78   O     O_R   0.133527 0.589162 0.719449 -0.714544
H7    H     H_    0.149218 0.615065 0.709216 0.357118
C184  C     C_2   0.594946 0.913796 0.720608 0.969490
O79   O     O_2   0.628449 0.931779 0.710149 -0.510738
O80   O     O_R   0.589501 0.866627 0.719490 -0.714500
H8    H     H_    0.615442 0.851000 0.709253 0.357136
C185  C     C_2   0.413894 0.095034 0.779392 0.969433
O81   O     O_2   0.431928 0.128494 0.789870 -0.510798
O82   O     O_R   0.366715 0.089676 0.780489 -0.714484
H9    H     H_    0.351124 0.115637 0.790728 0.357141
C186  C     C_2   0.904874 0.414022 0.779395 0.969346
O83   O     O_2   0.871458 0.432121 0.789889 -0.510888
O84   O     O_R   0.910139 0.366830 0.780473 -0.714478
H10   H     H_    0.884154 0.351288 0.790714 0.357124
C187  C     C_2   0.586144 0.905003 0.779395 0.969458
O85   O     O_2   0.568128 0.871524 0.789862 -0.510771
O86   O     O_R   0.633319 0.910395 0.780505 -0.714483
H11   H     H_    0.648922 0.884440 0.790744 0.357141
C188  C     C_2   0.095155 0.585949 0.779393 0.969303
O87   O     O_2   0.128559 0.567839 0.789895 -0.510912
O88   O     O_R   0.089913 0.633145 0.780463 -0.714466
H12   H     H_    0.115902 0.648678 0.790705 0.357124
C189  C     C_2   0.408652 0.910437 0.220123 0.975569
O89   O     O_2   0.412161 0.869088 0.221758 -0.543383
O90   O     O_R   0.373418 0.930014 0.204455 -0.680694
H13   H     H_    0.353092 0.906413 0.195278 0.358678
C190  C     C_2   0.905027 0.586172 0.220605 0.969447
O91   O     O_2   0.871537 0.568172 0.210142 -0.510765
O92   O     O_R   0.910445 0.633343 0.219492 -0.714502
H14   H     H_    0.884497 0.648958 0.209253 0.357071
C191  C     C_2   0.591155 0.089788 0.220143 0.975868
O93   O     O_2   0.587532 0.131131 0.221749 -0.543419
O94   O     O_R   0.626474 0.070281 0.204516 -0.680638
H15   H     H_    0.646757 0.093921 0.195341 0.358688
C192  C     C_2   0.094967 0.413820 0.220607 0.969444
O95   O     O_2   0.128460 0.431818 0.210145 -0.510763
O96   O     O_R   0.089545 0.366649 0.219493 -0.714498
H16   H     H_    0.115493 0.351033 0.209255 0.357070
C193  C     C_2   0.065540 0.556343 0.145629 0.982347
O97   O     O_2   0.101622 0.565751 0.134174 -0.488758
O98   O     O_R   0.056713 0.572953 0.172774 -0.758244
H17   H     H_    0.082687 0.591783 0.180611 0.352192
C194  C     C_2   0.435437 0.057477 0.145752 0.980942
O99   O     O_2   0.421722 0.092282 0.134449 -0.490998
O100  O     O_R   0.419636 0.046120 0.172718 -0.753183
H18   H     H_    0.397518 0.069346 0.180576 0.352135
C195  C     C_2   0.934459 0.443653 0.145628 0.982348
O101  O     O_2   0.898377 0.434245 0.134173 -0.488758
O102  O     O_R   0.943286 0.427043 0.172774 -0.758242
H19   H     H_    0.917311 0.408212 0.180610 0.352193
C196  C     C_2   0.564537 0.942589 0.145778 0.980966
O103  O     O_2   0.578275 0.907787 0.134483 -0.490985
O104  O     O_R   0.580308 0.953952 0.172750 -0.753216
H20   H     H_    0.602426 0.930735 0.180618 0.352122
C197  C     C_2   0.065521 0.443612 0.854372 0.982277
O105  O     O_2   0.101599 0.434182 0.865827 -0.488887
O106  O     O_R   0.056685 0.427004 0.827228 -0.758315
H21   H     H_    0.082653 0.408157 0.819392 0.352021
C198  C     C_2   0.443649 0.934470 0.854370 0.982292
O107  O     O_2   0.434235 0.898389 0.865825 -0.488825
O108  O     O_R   0.427042 0.943299 0.827224 -0.758319
H22   H     H_    0.408209 0.917327 0.819387 0.352021
C199  C     C_2   0.934486 0.556388 0.854369 0.982279
O109  O     O_2   0.898407 0.565820 0.865823 -0.488890
O110  O     O_R   0.943323 0.572993 0.827224 -0.758310
H23   H     H_    0.917356 0.591840 0.819387 0.352019
C200  C     C_2   0.556354 0.065537 0.854372 0.982292
O111  O     O_2   0.565764 0.101618 0.865827 -0.488822
O112  O     O_R   0.572966 0.056708 0.827228 -0.758322
H24   H     H_    0.591800 0.082680 0.819392 0.352025
C201  C     C_2   0.565552 0.056337 0.645626 0.982272
O113  O     O_2   0.601634 0.065740 0.634171 -0.488841
O114  O     O_R   0.556728 0.072950 0.672772 -0.758332
H25   H     H_    0.582706 0.091777 0.680607 0.352022
C202  C     C_2   0.943682 0.565574 0.645628 0.982233
O115  O     O_2   0.934283 0.601659 0.634172 -0.488924
O116  O     O_R   0.927074 0.556761 0.672776 -0.758342
H26   H     H_    0.908254 0.582747 0.680612 0.352013
C203  C     C_2   0.434456 0.943664 0.645630 0.982275
O117  O     O_2   0.398374 0.934258 0.634175 -0.488843
O118  O     O_R   0.443281 0.927055 0.672776 -0.758327
H27   H     H_    0.417305 0.908228 0.680613 0.352018
C204  C     C_2   0.056323 0.434421 0.645627 0.982233
O119  O     O_2   0.065718 0.398335 0.634170 -0.488922
O120  O     O_R   0.072935 0.443234 0.672773 -0.758342
H28   H     H_    0.091756 0.417246 0.680608 0.352016
C205  C     C_2   0.558486 0.936417 0.354249 0.980919
O121  O     O_2   0.593477 0.923222 0.365569 -0.491157
O122  O     O_R   0.547448 0.920511 0.327255 -0.753109
H29   H     H_    0.571038 0.898782 0.319398 0.352152
C206  C     C_2   0.943653 0.434460 0.354372 0.982347
O123  O     O_2   0.934243 0.398379 0.365828 -0.488752
O124  O     O_R   0.927043 0.443287 0.327226 -0.758244
H30   H     H_    0.908212 0.417312 0.319391 0.352195
C207  C     C_2   0.441463 0.063608 0.354269 0.980880
O125  O     O_2   0.406466 0.076781 0.365593 -0.491162
O126  O     O_R   0.452498 0.079544 0.327282 -0.753063
H31   H     H_    0.428901 0.101272 0.319431 0.352173
C208  C     C_2   0.056345 0.565538 0.354371 0.982345
O127  O     O_2   0.065755 0.601619 0.365825 -0.488753
O128  O     O_R   0.072956 0.556709 0.327225 -0.758243
H32   H     H_    0.091787 0.582684 0.319388 0.352194
F1    F     F_    0.059554 0.554732 0.086029 -0.603416
F2    F     F_    0.438059 0.052167 0.086219 -0.599599
F3    F     F_    0.940446 0.445266 0.086028 -0.603415
F4    F     F_    0.561939 0.947860 0.086242 -0.599583
F5    F     F_    0.059535 0.445231 0.913972 -0.603419
F6    F     F_    0.445261 0.940453 0.913970 -0.603259
F7    F     F_    0.940468 0.554771 0.913969 -0.603418
F8    F     F_    0.554739 0.059550 0.913972 -0.603262
F9    F     F_    0.559562 0.054725 0.586027 -0.603293
F10   F     F_    0.945288 0.559584 0.586028 -0.603451
F11   F     F_    0.440441 0.945273 0.586030 -0.603292
F12   F     F_    0.054713 0.440413 0.586027 -0.603454
F13   F     F_    0.553089 0.938885 0.413790 -0.600056
F14   F     F_    0.945265 0.440447 0.413972 -0.603418
F15   F     F_    0.446890 0.061119 0.413807 -0.600071
F16   F     F_    0.054734 0.559552 0.413970 -0.603418

loop_
_geom_bond_atom_site_label_1
_geom_bond_atom_site_label_2
_ccdc_geom_bond_type
C201  O113  D    
C119  C143  A    
O80   H8    S    
C34   C42   S    
C207  O126  S    
Cu3   O37   S    
Cu12  O31   S    
C196  O103  D    
Cu1   O39   S    
C165  F5    S    
C187  O85   D    
C9    C73   S    
C164  F4    S    
C160  C208  S    
C112  C124  A    
C136  C184  S    
C175  F15   S    
Cu11  O28   S    
O70   H3    S    
C133  C181  S    
Cu9   O18   S    
C154  C170  A    
C106  C130  A    
C186  O84   S    
C97   N5    A    
C130  C141  A    
C158  C174  A    
C93   O53   S    
C120  C144  A    
C135  C183  S    
C79   O47   A    
C97   C115  A    
C181  O74   S    
C14   C170  A    
C197  O106  S    
C78   O42   A    
C11   C167  A    
C103  C117  A    
C101  C119  A    
C103  O63   S    
C41   C49   T    
C200  O112  S    
Cu5   Cu7   S    
C134  C182  S    
C15   C173  A    
C109  C133  A    
O96   H16   S    
O66   H1    S    
C7    C31   S    
C121  C128  A    
C95   C109  A    
C21   N4    S    
C129  C142  A    
C27   C35   T    
C195  O101  D    
Cu10  O24   S    
C16   C80   S    
C87   O27   A    
C146  C162  A    
Cu2   Cu4   S    
O112  H24   S    
C100  C114  A    
C2    C26   S    
O126  H31   S    
C206  O124  S    
C69   C88   S    
C154  C202  S    
C92   C106  A    
C6    C30   S    
C63   C71   T    
C179  O70   S    
C207  O125  D    
C113  C137  A    
C36   C44   S    
C37   C45   S    
O128  H32   S    
C39   C47   S    
C40   C48   S    
C108  C132  A    
C68   C83   S    
O122  H29   S    
Cu11  O26   S    
C15   C79   S    
C99   N5    A    
Cu9   O20   S    
C143  C191  S    
C183  O78   S    
C203  O117  D    
C145  C161  A    
C151  C167  A    
C89   O49   S    
C79   O45   A    
O102  H19   S    
C186  O83   D    
O98   H17   S    
Cu4   O40   S    
C192  O95   D    
O114  H25   S    
C11   C165  A    
C142  C190  S    
C21   C153  A    
C76   O38   A    
C100  O60   S    
Cu8   O44   S    
C208  O128  S    
C170  F10   S    
C199  O109  D    
Cu7   O11   S    
C91   C105  A    
O110  H23   S    
Cu4   O8    S    
C111  C135  A    
C73   O33   A    
C92   O52   S    
Cu10  O22   S    
C30   C38   T    
C150  C198  S    
Cu2   O34   S    
Cu12  O30   S    
C177  O65   D    
C114  C126  A    
C167  F7    S    
C190  O92   S    
C156  C204  S    
C150  C166  A    
Cu6   O14   S    
C14   C78   S    
C49   C57   S    
C155  C203  S    
C9    C163  A    
C122  C127  A    
C193  O98   S    
C144  C192  S    
C52   C60   S    
C59   C67   T    
C130  C178  S    
C53   C61   S    
C81   O17   A    
Cu1   Cu3   S    
C23   C159  A    
C19   C151  A    
C56   C64   S    
C145  C193  S    
C35   C43   S    
C190  O91   D    
C172  F12   S    
C110  C124  A    
C44   C52   T    
C13   C169  A    
C166  F6    S    
C45   C53   T    
Cu1   O1    S    
C181  O73   D    
C108  C122  A    
C194  O100  S    
C112  C136  A    
C8    O14   A    
C94   O54   S    
C195  O102  S    
C189  O90   S    
C21   C155  A    
C148  C164  A    
C149  C165  A    
C7    O11   A    
Cu2   O38   S    
C109  C123  A    
C65   C84   S    
C156  C172  A    
C102  O62   S    
C101  O61   S    
Cu6   O10   S    
C185  O81   D    
Cu4   O4    S    
C71   C86   S    
O116  H26   S    
C106  C122  A    
C184  O79   D    
Cu8   O48   S    
C76   O40   A    
C9    C161  A    
C178  O68   S    
C60   C68   T    
C174  F14   S    
C42   C50   T    
C141  C189  S    
C149  C197  S    
C110  C134  A    
C29   C37   T    
C161  F1    S    
C20   N5    S    
C73   O35   A    
C72   C87   S    
C97   O57   S    
C90   N2    A    
Cu5   O41   S    
C1    O1    A    
C151  C199  S    
Cu12  O32   S    
C7    O15   A    
O68   H2    S    
C182  O76   S    
C5    O13   A    
C158  C206  S    
C96   N4    A    
C3    C27   S    
C90   C108  A    
C11   C75   S    
C88   O32   A    
Cu11  O27   S    
C132  C180  S    
C23   C157  A    
C94   C112  A    
C180  O72   S    
C20   C150  A    
C146  C194  S    
C114  C138  A    
Cu6   Cu8   S    
C188  O88   S    
C38   C46   S    
C159  C207  S    
C133  C138  A    
C19   N6    S    
C10   C162  A    
O76   H6    S    
C17   N8    S    
Cu7   O45   S    
C22   N3    S    
C70   C85   S    
C85   O25   A    
C23   N2    S    
Cu5   O47   S    
C25   C33   T    
C204  O120  S    
C119  C127  A    
C3    O7    A    
O72   H4    S    
O90   H13   S    
C1    O5    A    
C134  C137  A    
C200  O111  D    
O124  H30   S    
C202  O116  S    
C205  O122  S    
C83   O21   A    
C16   C174  A    
O120  H28   S    
C81   O23   A    
C98   N6    A    
C104  O64   S    
C191  O94   S    
C196  O104  S    
Cu3   O5    S    
C10   C164  A    
O74   H5    S    
Cu1   O7    S    
C169  F9    S    
C85   O31   A    
C198  O108  S    
C16   C176  A    
C132  C143  A    
C93   N3    A    
O92   H14   S    
C201  O114  S    
C179  O69   D    
C77   O41   A    
C103  N7    A    
C136  C139  A    
C129  C177  S    
C152  C168  A    
C92   N2    A    
C104  C118  A    
C187  O86   S    
C135  C140  A    
C91   O51   S    
C111  C123  A    
O88   H12   S    
C50   C58   S    
C74   O36   A    
C95   O55   S    
O108  H22   S    
C147  C195  S    
Cu11  O25   S    
C118  C142  A    
C197  O105  D    
C96   C110  A    
Cu9   O19   S    
C17   C145  A    
O100  H18   S    
C183  O77   D    
C91   N1    A    
C4    O6    A    
O104  H20   S    
C46   C54   T    
C104  N8    A    
C148  C196  S    
C117  C127  A    
C93   C111  A    
C176  F16   S    
C12   C76   S    
C107  C121  A    
C152  C200  S    
O82   H9    S    
C102  C120  A    
C208  O127  D    
C18   N7    S    
C157  C205  S    
C57   C65   T    
C123  C126  A    
C99   C113  A    
C83   O19   A    
C120  C128  A    
C54   C62   S    
Cu10  O23   S    
Cu8   O12   S    
C33   C41   S    
Cu11  Cu12  S    
C66   C81   S    
C12   C166  A    
C43   C51   T    
Cu9   Cu10  S    
Cu3   O3    S    
C173  F13   S    
C90   O50   S    
C80   O46   A    
C193  O97   D    
C162  F2    S    
O94   H15   S    
C20   C152  A    
C6    O16   A    
C28   C36   T    
C188  O87   D    
C153  C169  A    
C77   O43   A    
C89   N1    A    
C147  C163  A    
C131  C144  A    
C101  N7    A    
C157  C173  A    
O106  H21   S    
C194  O99   D    
C13   C171  A    
C117  C141  A    
O118  H27   S    
C74   O34   A    
C22   C156  A    
C189  O89   D    
C153  C201  S    
C17   C147  A    
C18   C148  A    
C203  O118  S    
Cu1   O33   S    
C24   C158  A    
C113  C125  A    
C163  F3    S    
C8    O12   A    
C99   O59   S    
C19   C149  A    
C82   O18   A    
C26   C34   T    
O78   H7    S    
Cu9   O17   S    
C87   O29   A    
C3    O3    A    
C75   O39   A    
C24   N1    S    
C84   O24   A    
C178  O67   D    
C95   N3    A    
Cu7   O43   S    
C32   C40   T    
C140  C188  S    
Cu2   O2    S    
C199  O110  S    
O86   H11   S    
C116  C126  A    
C1    C25   S    
C160  C176  A    
C62   C70   T    
C89   C107  A    
C118  C128  A    
Cu6   O46   S    
C4    C28   S    
C58   C66   T    
Cu8   O16   S    
C5    C29   S    
Cu10  O21   S    
C13   C77   S    
C139  C187  S    
C8    C32   S    
C2    O8    A    
C14   C172  A    
Cu12  O29   S    
C177  O66   S    
O84   H10   S    
C6    O10   A    
C105  C129  A    
C192  O96   S    
C182  O75   D    
C80   O48   A    
C55   C63   S    
Cu5   O9    S    
C98   C116  A    
C82   O22   A    
C4    O4    A    
C88   O28   A    
C180  O71   D    
C105  C121  A    
C138  C186  S    
C206  O123  D    
C168  F8    S    
Cu2   O6    S    
C86   O30   A    
C51   C59   S    
C98   O58   S    
Cu6   O42   S    
C47   C55   T    
C204  O119  D    
C22   C154  A    
C61   C69   T    
C48   C56   T    
Cu4   O36   S    
C78   O44   A    
C2    O2    A    
C131  C179  S    
C115  C139  A    
C18   C146  A    
C102  N8    A    
C12   C168  A    
C24   C160  A    
C100  N6    A    
Cu7   O13   S    
C202  O115  D    
C171  F11   S    
C115  C125  A    
C15   C175  A    
Cu5   O15   S    
C107  C131  A    
C137  C185  S    
C185  O82   S    
C205  O121  D    
C10   C74   S    
C184  O80   S    
C31   C39   T    
C75   O37   A    
C64   C72   T    
C191  O93   D    
C94   N4    A    
C5    O9    A    
C155  C171  A    
C67   C82   S    
C96   O56   S    
C159  C175  A    
C86   O26   A    
C198  O107  D    
Cu3   O35   S    
C84   O20   A    
C124  C125  A    
C116  C140  A    
