data_mof_unit_51618.cif
_audit_creation_date              2012-12-11T16:58:17-0500
_audit_creation_method            fapswitch 2.2
_symmetry_space_group_name_H-M    P1
_symmetry_Int_Tables_number       1
_space_group_crystal_system       triclinic
_cell_length_a                    16.885986
_cell_length_b                    7.254495
_cell_length_c                    16.897243
_cell_angle_alpha                 90.000047
_cell_angle_beta                  100.493651
_cell_angle_gamma                 89.999956
_cell_volume                      2035.28156841

loop_
_atom_site_label
_atom_site_type_symbol
_atom_type_description
_atom_site_fract_x
_atom_site_fract_y
_atom_site_fract_z
_atom_type_partial_charge
O1    O     O_R   0.413450 0.494370 0.415710 -0.533108
O2    O     O_R   0.586550 0.994370 0.584290 -0.533108
O3    O     O_R   0.578420 0.819350 0.429360 -0.541551
O4    O     O_R   0.421580 0.319350 0.570640 -0.541552
C1    C     C_R   0.603719 0.654457 0.412488 0.714983
C2    C     C_R   0.396281 0.154457 0.587512 0.714984
O5    O     O_R   0.413570 0.823780 0.406240 -0.541710
O6    O     O_R   0.586430 0.323780 0.593760 -0.541710
O7    O     O_R   0.420530 0.998740 0.561000 -0.536462
O8    O     O_R   0.579470 0.498740 0.439000 -0.536462
C3    C     C_R   0.386241 0.655357 0.383526 0.678616
C4    C     C_R   0.613759 0.155357 0.616474 0.678616
O9    O     O_3   0.502480 0.662320 0.550800 -0.376985
O10   O     O_3   0.497520 0.162320 0.449200 -0.376986
V1    V     V_3+5 0.499540 0.935370 0.490580 1.381129
V2    V     V_3+5 0.500460 0.435370 0.509420 1.381130
C5    C     C_R   0.694684 0.989719 0.735864 0.113448
C6    C     C_R   0.305316 0.489718 0.264136 0.113448
C7    C     C_R   0.680320 0.147151 0.687253 -0.111355
C8    C     C_R   0.319680 0.647151 0.312746 -0.111356
C9    C     C_R   0.730623 0.300527 0.709972 -0.190005
C10   C     C_R   0.269377 0.800527 0.290028 -0.190005
H1    H     H_    0.721563 0.426471 0.675397 0.142652
H2    H     H_    0.278436 0.926471 0.324603 0.142652
C11   C     C_R   0.796833 0.288845 0.774098 -0.183027
C12   C     C_R   0.203167 0.788846 0.225902 -0.183026
H3    H     H_    0.835970 0.407230 0.787150 0.140284
H4    H     H_    0.164030 0.907230 0.212850 0.140284
C13   C     C_R   0.815097 0.123027 0.817423 -0.106113
C14   C     C_R   0.184902 0.623027 0.182578 -0.106113
C15   C     C_R   0.760035 0.978033 0.799111 0.108791
C16   C     C_R   0.239964 0.478033 0.200889 0.108790
C17   C     C_3   0.773246 0.779438 0.783061 -0.429135
C18   C     C_3   0.226754 0.279438 0.216938 -0.429135
C19   C     C_3   0.701749 0.792197 0.713983 -0.404686
C20   C     C_3   0.298251 0.292197 0.286017 -0.404686
H5    H     H_    0.761595 0.689839 0.833067 0.172756
H6    H     H_    0.238405 0.189839 0.166932 0.172756
H7    H     H_    0.831392 0.754324 0.762814 0.173937
H8    H     H_    0.168607 0.254325 0.237186 0.173937
H9    H     H_    0.718566 0.774256 0.653797 0.169634
H10   H     H_    0.281434 0.274257 0.346203 0.169635
C21   C     C_R   0.335389 0.136474 0.641063 -0.122676
C22   C     C_R   0.664610 0.636472 0.358936 -0.122679
C23   C     C_R   0.168356 0.134020 0.864991 -0.054774
C24   C     C_R   0.831644 0.634022 0.135009 -0.054776
C25   C     C_R   0.279392 0.316118 0.831803 -0.168716
C26   C     C_R   0.720611 0.816128 0.168201 -0.168719
C27   C     C_R   0.223819 0.279788 0.881625 -0.182775
C28   C     C_R   0.776184 0.779797 0.118378 -0.182774
C29   C     C_R   0.170791 0.021786 0.797753 -0.218015
C30   C     C_R   0.829206 0.521782 0.202244 -0.218017
C31   C     C_R   0.226002 0.059530 0.746227 0.106391
C32   C     C_R   0.773996 0.559527 0.253771 0.106392
C33   C     C_R   0.280955 0.208464 0.762922 0.121786
C34   C     C_R   0.719047 0.708468 0.237080 0.121786
C35   C     C_R   0.335931 0.247388 0.710563 0.213232
C36   C     C_R   0.664072 0.747394 0.289439 0.213229
C37   C     C_R   0.279795 0.990216 0.625946 -0.213474
C38   C     C_R   0.720201 0.490207 0.374050 -0.213474
C39   C     C_R   0.226059 0.952314 0.677520 -0.188167
C40   C     C_R   0.773936 0.452304 0.322476 -0.188167
H11   H     H_    0.278250 0.902727 0.573710 0.136501
H12   H     H_    0.721744 0.402712 0.426284 0.136502
H13   H     H_    0.184461 0.838154 0.663582 0.126519
H14   H     H_    0.815532 0.338137 0.336411 0.126519
H15   H     H_    0.127778 0.910264 0.783769 0.118972
H16   H     H_    0.872217 0.410254 0.216226 0.118974
O11   O     O_R   0.920630 0.775410 0.061150 -0.534519
O12   O     O_R   0.079370 0.275410 0.938850 -0.534518
O13   O     O_R   0.086500 0.441450 0.093690 -0.538644
O14   O     O_R   0.913500 0.941450 0.906310 -0.538644
C41   C     C_R   0.114096 0.610230 0.116129 0.683536
C42   C     C_R   0.885904 0.110230 0.883871 0.683535
O15   O     O_R   0.921670 0.445960 0.070740 -0.539239
O16   O     O_R   0.078330 0.945960 0.929260 -0.539239
O17   O     O_R   0.913380 0.271130 0.915780 -0.537365
O18   O     O_R   0.086620 0.771130 0.084220 -0.537365
C43   C     C_R   0.895641 0.615246 0.085660 0.687848
C44   C     C_R   0.104359 0.115245 0.914340 0.687848
O19   O     O_3   0.997500 0.603030 0.949220 -0.376601
O20   O     O_3   0.002500 0.103030 0.050780 -0.376601
V3    V     V_3+5 0.000470 0.329940 0.009420 1.394528
V4    V     V_3+5 0.999530 0.829940 0.990580 1.394528
H17   H     H_    0.223599 0.368259 0.933255 0.126939
H18   H     H_    0.776405 0.868273 0.066750 0.126942
H19   H     H_    0.649003 0.709916 0.724270 0.175197
H20   H     H_    0.350997 0.209916 0.275730 0.175196
N1    N     N_2   0.392227 0.394089 0.730022 -0.537131
H21   H     H_    0.394047 0.487191 0.684405 0.277821
C45   C     C_3   0.470660 0.338689 0.772966 -0.533107
H22   H     H_    0.501187 0.248554 0.734686 0.182119
H23   H     H_    0.464693 0.263862 0.828958 0.198500
H24   H     H_    0.508453 0.462837 0.789742 0.193084
N2    N     N_2   0.607782 0.894108 0.269985 -0.537128
H25   H     H_    0.605965 0.987207 0.315605 0.277820
C46   C     C_3   0.529346 0.838728 0.227040 -0.533095
H26   H     H_    0.498816 0.748593 0.265317 0.182121
H27   H     H_    0.535310 0.763907 0.171045 0.198496
H28   H     H_    0.491557 0.962886 0.210268 0.193081
H29   H     H_    0.320194 0.431114 0.847034 0.160137
H30   H     H_    0.679813 0.931130 0.152972 0.160137

loop_
_geom_bond_atom_site_label_1
_geom_bond_atom_site_label_2
_ccdc_geom_bond_type
C25   H29   S    
O19   V4    S    
C20   H10   S    
N2    H25   S    
O1    C3    A    
O2    C4    A    
O16   V4    S    
C2    O7    A    
C46   H26   S    
C25   C27   A    
C20   H20   S    
O5    C3    A    
C17   H7    S    
C35   N1    S    
C18   H8    S    
C7    C9    A    
C24   C43   S    
C23   C29   A    
C24   C30   A    
C38   C40   A    
C17   C19   S    
C31   C39   A    
C22   C36   A    
C42   O17   A    
C41   O18   A    
C15   C17   S    
N1    C45   S    
C18   C20   S    
C30   H16   S    
C21   C37   A    
C26   C28   A    
O6    V2    S    
C19   H19   S    
C46   H27   S    
C30   C32   A    
O13   V3    S    
C31   C33   A    
C11   C13   A    
C32   C34   A    
C3    C8    S    
C37   C39   A    
C40   H14   S    
O12   C44   A    
C27   H17   S    
O14   C42   A    
C45   H22   S    
O13   C41   A    
C14   C41   S    
C28   H18   S    
C13   C42   S    
C32   C40   A    
C17   H5    S    
C29   C31   A    
C16   C18   S    
O4    V2    S    
C36   N2    S    
O12   V3    S    
C39   H13   S    
C45   H23   S    
C23   C27   A    
O6    C4    A    
C26   H30   S    
O1    V2    S    
C29   H15   S    
O2    V1    S    
O14   V4    S    
O4    C2    A    
C1    C22   S    
C8    C10   A    
C12   C14   A    
C2    C21   S    
C33   C35   A    
C5    C15   A    
C10   H2    S    
O11   C43   A    
C6    C16   A    
C46   H28   S    
O3    V1    S    
C25   C33   A    
C26   C34   A    
C9    C11   A    
C18   H6    S    
C37   H11   S    
O16   C44   A    
O3    C1    A    
N2    C46   S    
C11   H3    S    
C24   C28   A    
C12   H4    S    
C38   H12   S    
C9    H1    S    
O7    V1    S    
C1    O8    A    
C13   C15   A    
O11   V4    S    
O8    V2    S    
C45   H24   S    
C14   C16   A    
O15   V3    S    
O15   C43   A    
C22   C38   A    
C4    C7    S    
O5    V1    S    
C5    C7    A    
C34   C36   A    
C23   C44   S    
C6    C8    A    
C19   H9    S    
C21   C35   A    
O18   V4    S    
O20   V3    S    
C10   C12   A    
O9    V2    S    
O17   V3    S    
O10   V1    S    
C5    C19   S    
N1    H21   S    
C6    C20   S    
