data_mof_unit_29542.cif
_audit_creation_date              2012-10-26T19:42:18-0400
_audit_creation_method            fapswitch 2.2
_symmetry_space_group_name_H-M    P1
_symmetry_Int_Tables_number       1
_space_group_crystal_system       triclinic
_cell_length_a                    9.671454
_cell_length_b                    10.834025
_cell_length_c                    17.30793
_cell_angle_alpha                 93.864123
_cell_angle_beta                  84.28274
_cell_angle_gamma                 89.422938
_cell_volume                      1800.1574491

loop_
_atom_site_label
_atom_site_type_symbol
_atom_type_description
_atom_site_fract_x
_atom_site_fract_y
_atom_site_fract_z
_atom_type_partial_charge
C1    C     C_R   0.500066 0.737780 0.497172 0.560208
C2    C     C_R   0.537580 0.472686 0.264172 0.014390
C3    C     C_R   0.264471 0.895188 0.451793 0.017735
C4    C     C_R   0.479822 0.493895 0.650000 0.536639
C5    C     C_R   0.131893 0.950792 0.468294 -0.012701
C6    C     C_R   0.115980 0.058493 0.517749 -0.136906
C7    C     C_R   0.233904 0.119101 0.540346 -0.108409
C8    C     C_R   0.367660 0.065936 0.519150 0.016926
C9    C     C_R   0.376213 0.941912 0.490561 0.016665
C10   C     C_R   0.499742 0.873621 0.496778 0.003869
C11   C     C_R   0.620090 0.937299 0.513418 -0.131040
C12   C     C_R   0.343513 0.469532 0.783512 -0.029611
C13   C     C_R   0.619124 0.065583 0.519951 -0.143918
C14   C     C_R   0.493668 0.131624 0.520525 0.001162
C15   C     C_R   0.865583 0.326659 0.405259 -0.097644
C16   C     C_R   0.498237 0.264502 0.509128 0.552945
C17   C     C_R   0.931886 0.225970 0.365485 -0.077613
C18   C     C_R   0.072418 0.215119 0.364157 -0.163794
C19   C     C_R   0.150116 0.306896 0.400241 0.007099
C20   C     C_R   0.082509 0.408181 0.452360 0.129319
C21   C     C_R   0.932330 0.412003 0.453391 0.126370
C22   C     C_R   0.917468 0.586778 0.541679 0.004724
C23   C     C_R   0.471208 0.504004 0.135924 -0.023435
C24   C     C_R   0.064483 0.587984 0.541193 0.092554
C25   C     C_R   0.520421 0.496002 0.349753 0.569986
C26   C     C_R   0.469254 0.467288 0.733580 -0.009428
C27   C     C_R   0.592171 0.432016 0.763089 -0.153938
C28   C     C_R   0.595323 0.406805 0.840027 -0.112635
C29   C     C_R   0.472936 0.406387 0.890621 0.025364
C30   C     C_R   0.345271 0.437448 0.861680 -0.002887
C31   C     C_1   0.297901 0.823724 0.379142 0.238579
C32   C     C_1   0.014020 0.901440 0.432251 0.178607
C33   C     C_1   0.855330 0.136650 0.321803 0.202052
C34   C     C_R   0.437100 0.509456 0.216389 -0.016138
C35   C     C_1   0.293733 0.535602 0.246096 0.257165
C36   C     C_1   0.291937 0.282374 0.369528 0.282112
C37   C     C_1   0.124378 0.688433 0.584199 0.244171
C38   C     C_1   0.701963 0.299273 0.981911 0.185119
C39   C     C_R   0.214794 0.444306 0.915292 0.017033
C40   C     C_R   0.158234 0.335935 0.944564 -0.096540
C41   C     C_R   0.054235 0.343764 0.006937 -0.090014
C42   C     C_R   0.001187 0.459167 0.037745 -0.091559
C43   C     C_R   0.053447 0.567052 0.007111 -0.086198
C44   C     C_R   0.161442 0.559863 0.947053 -0.071516
C45   C     C_R   0.655614 0.406089 0.229209 -0.115573
C46   C     C_1   0.410880 0.597736 0.092925 0.206838
C47   C     C_R   0.209359 0.505649 0.756967 0.059355
C48   C     C_R   0.158726 0.627438 0.772852 -0.069416
C49   C     C_R   0.021536 0.656921 0.761780 -0.099234
C50   C     C_R   0.936661 0.566512 0.731143 -0.120933
C51   C     C_R   0.988355 0.445920 0.712306 -0.114927
C52   C     C_R   0.123756 0.414971 0.726293 -0.062371
C53   C     C_R   0.669290 0.372192 0.149632 -0.121389
C54   C     C_R   0.576617 0.419792 0.100986 -0.003677
C55   C     C_2   0.475631 0.391484 0.975944 -0.121098
C56   C     C_2   0.587557 0.378896 0.015713 -0.016816
Cu1   Cu    Cu3+1 0.359340 0.500010 0.500010 0.994723
Cu2   Cu    Cu3+1 0.640660 0.499990 0.499990 0.941448
H1    H     H_    0.688811 0.423719 0.726243 0.132309
H2    H     H_    0.732771 0.372310 0.264024 0.130849
H3    H     H_    0.378072 0.406850 0.011247 0.138023
H4    H     H_    0.696582 0.391360 0.858336 0.149503
H5    H     H_    0.200709 0.246160 0.922322 0.120750
H6    H     H_    0.016046 0.260344 0.032104 0.140520
H7    H     H_    0.921316 0.465473 0.086170 0.124203
H8    H     H_    0.013814 0.656422 0.031819 0.135731
H9    H     H_    0.207771 0.644475 0.928001 0.126076
H10   H     H_    0.223974 0.698373 0.796309 0.107798
H11   H     H_    0.981850 0.750397 0.775575 0.123926
H12   H     H_    0.754047 0.310202 0.126520 0.129745
H13   H     H_    0.832000 0.591297 0.720630 0.116572
H14   H     H_    0.923587 0.376012 0.687502 0.105031
H15   H     H_    0.161123 0.320324 0.714613 0.098498
H16   H     H_    0.716039 0.888336 0.519446 0.155983
H17   H     H_    0.014337 0.101453 0.532872 0.110376
H18   H     H_    0.219303 0.206527 0.574356 0.135858
H19   H     H_    0.716477 0.112808 0.524601 0.136020
H20   H     H_    0.854912 0.658194 0.575891 0.112237
H21   H     H_    0.760405 0.334719 0.395643 0.197124
H22   H     H_    0.122330 0.136264 0.329372 0.142303
N1    N     N_R   0.852190 0.498790 0.499250 -0.253412
N2    N     N_1   0.363868 0.673956 0.059256 -0.296813
N3    N     N_R   0.148060 0.498710 0.499220 -0.260163
N4    N     N_1   0.328421 0.771260 0.319607 -0.266939
N5    N     N_1   0.920443 0.861191 0.402818 -0.264819
N6    N     N_1   0.793656 0.065218 0.286832 -0.247473
N7    N     N_1   0.178380 0.554476 0.269109 -0.262324
N8    N     N_1   0.402558 0.252842 0.342182 -0.304738
N9    N     N_1   0.171551 0.770304 0.618588 -0.315319
N10   N     N_1   0.791161 0.233546 0.954350 -0.323900
O1    O     O_R   0.381190 0.680360 0.500010 -0.487086
O2    O     O_R   0.618760 0.680340 0.500000 -0.498223
O3    O     O_R   0.367440 0.500030 0.613600 -0.494637
O4    O     O_R   0.605010 0.500010 0.613590 -0.519871
O5    O     O_R   0.381240 0.319660 0.500000 -0.518912
O6    O     O_R   0.618810 0.319640 0.499990 -0.534451
O7    O     O_R   0.394990 0.499990 0.386410 -0.483553
O8    O     O_R   0.632560 0.499970 0.386400 -0.518603

loop_
_geom_bond_atom_site_label_1
_geom_bond_atom_site_label_2
_ccdc_geom_bond_type
C55   C56   D    
C45   H2    S    
C41   C42   A    
C19   C20   A    
Cu2   O8    S    
C43   C44   A    
C7    C8    A    
C53   C54   A    
C36   N8    T    
C26   C27   A    
C40   H5    S    
C28   C29   A    
C24   N3    A    
C18   C19   A    
C19   C36   S    
C5    C6    A    
C34   C35   S    
Cu2   O6    S    
C46   N2    T    
C35   N7    T    
C15   H21   S    
C8    C9    A    
C42   H7    S    
Cu1   N3    S    
C9    C10   A    
C5    C32   S    
C2    C34   A    
C45   C53   A    
C1    O1    A    
C23   C46   S    
C49   H11   S    
C13   C14   A    
C17   C33   S    
C12   C47   S    
C53   H12   S    
C24   C37   S    
C54   C56   S    
C2    C45   A    
C13   H19   S    
C16   O6    A    
C51   C52   A    
C22   N1    A    
C6    H17   S    
C22   H20   S    
C52   H15   S    
Cu2   N1    S    
C39   C40   A    
C29   C55   S    
C50   C51   A    
C31   N4    T    
C12   C26   A    
C47   C52   A    
C33   N6    T    
C29   C30   A    
C3    C9    A    
C47   C48   A    
C23   C34   A    
Cu1   O7    S    
C17   C18   A    
C50   H13   S    
C48   H10   S    
C3    C31   S    
C7    H18   S    
C4    O4    A    
C25   O7    A    
C40   C41   A    
C21   N1    A    
C1    O2    A    
C14   C16   S    
C42   C43   A    
C39   C44   A    
C23   C54   A    
C15   C17   A    
C48   C49   A    
C16   O5    A    
C8    C14   A    
Cu1   O1    S    
C12   C30   A    
C1    C10   S    
C3    C5    A    
C11   H16   S    
C4    C26   S    
C6    C7    A    
C38   N10   T    
C51   H14   S    
C37   N9    T    
Cu2   O4    S    
C27   H1    S    
C11   C13   A    
Cu1   Cu2   S    
C43   H8    S    
C32   N5    T    
C55   H3    S    
C30   C39   S    
C2    C25   S    
C22   C24   A    
C10   C11   A    
C4    O3    A    
C25   O8    A    
C15   C21   A    
C38   C56   S    
C20   C21   A    
C18   H22   S    
C49   C50   A    
Cu1   O5    S    
C20   N3    A    
C27   C28   A    
C44   H9    S    
Cu1   O3    S    
C41   H6    S    
Cu2   O2    S    
C28   H4    S    
