data_mof_unit_52267.cif
_audit_creation_date              2013-03-05T16:14:06-0500
_audit_creation_method            fapswitch 2.2
_symmetry_space_group_name_H-M    P1
_symmetry_Int_Tables_number       1
_space_group_crystal_system       triclinic
_cell_length_a                    8.398367
_cell_length_b                    17.624981
_cell_length_c                    23.103394
_cell_angle_alpha                 101.034329
_cell_angle_beta                  89.998078
_cell_angle_gamma                 98.206894
_cell_volume                      3320.88082585

loop_
_atom_site_label
_atom_site_type_symbol
_atom_site_description
_atom_site_fract_x
_atom_site_fract_y
_atom_site_fract_z
_atom_type_partial_charge
P1    P     P_3+3 0.055640 0.433080 0.366120 0.516071
O1    O     O_2   0.889310 0.456460 0.358460 -0.337862
O2    O     O_3   0.129890 0.457280 0.429550 -0.389004
O3    O     O_3   0.674650 0.600620 0.400940 -0.363678
O4    O     O_2   0.793099 0.542732 0.296201 -0.363867
O5    O     O_3   0.012759 0.332226 0.339284 -0.568189
O6    O     O_3   0.710000 0.680184 0.305841 -0.510114
H1    H     H_    0.634022 0.735778 0.386442 0.090559
C1    C     C_3   0.656069 0.811893 0.324101 -1.005599
H2    H     H_    0.782976 0.835495 0.337744 0.267084
H3    H     H_    0.639807 0.809303 0.276025 0.265714
P2    P     P_3+3 0.671420 0.681950 0.554390 0.409668
P3    P     P_3+3 0.148432 0.743433 0.445499 0.456046
O7    O     O_2   0.849130 0.693580 0.537840 -0.349600
O8    O     O_3   0.093680 0.641380 0.431770 -0.402870
O9    O     O_2   0.061284 0.779390 0.500608 -0.375947
O10   O     O_3   0.700279 0.695591 0.630990 -0.584619
O11   O     O_3   0.067334 0.778073 0.387554 -0.522967
C2    C     C_3   0.164363 0.761888 0.338434 0.224926
H4    H     H_    0.169908 0.698044 0.325952 0.098634
H5    H     H_    0.287377 0.794554 0.348276 0.019599
C3    C     C_3   0.094530 0.788617 0.286062 0.176295
H6    H     H_    0.974859 0.753490 0.273880 0.170123
H7    H     H_    0.073956 0.850760 0.299025 0.058817
C4    C     C_3   0.145290 0.714373 0.620806 0.373491
H8    H     H_    0.257124 0.746878 0.607738 0.035301
H9    H     H_    0.083561 0.680720 0.580226 0.169713
C5    C     C_3   0.050888 0.775850 0.653592 -0.873562
H10   H     H_    0.132737 0.820846 0.684313 0.217117
H11   H     H_    0.993986 0.804984 0.622199 0.245734
H12   H     H_    0.958503 0.748419 0.680338 0.278039
Ba1   Ba    Ba6+2 0.857050 0.537370 0.474190 1.548180
C6    C     C_3   0.998777 0.285373 0.382040 0.173607
H13   H     H_    0.869653 0.273324 0.391950 0.083289
H14   H     H_    0.067228 0.313094 0.423509 0.122190
C7    C     C_3   0.060742 0.207851 0.354743 -0.018867
H15   H     H_    0.194467 0.219598 0.357990 0.159135
C8    C     C_3   0.553681 0.701328 0.659216 0.282598
H16   H     H_    0.549818 0.668470 0.695781 0.098658
H17   H     H_    0.450606 0.673359 0.629571 0.115362
C9    C     C_3   0.535726 0.786799 0.684465 -0.418046
H18   H     H_    0.424825 0.788621 0.710625 0.189867
H19   H     H_    0.520591 0.817708 0.647695 0.143780
P4    P     P_3+3 0.134070 0.566990 0.633890 0.460689
O12   O     O_2   0.300380 0.543560 0.641570 -0.377821
O13   O     O_3   0.059830 0.542790 0.570460 -0.419401
O14   O     O_3   0.515070 0.399440 0.599070 -0.354951
O15   O     O_3   0.184646 0.668169 0.660026 -0.592650
P5    P     P_3+3 0.059716 0.256963 0.561901 0.454429
O16   O     O_3   0.612780 0.404640 0.465950 -0.417609
O17   O     O_3   0.096040 0.358680 0.568240 -0.360277
O18   O     O_2   0.196386 0.222452 0.525849 -0.381801
O19   O     O_3   0.085825 0.232483 0.631134 -0.546153
Ba2   Ba    Ba6+2 0.332790 0.462700 0.525820 1.525674
P6    P     P_3+3 0.657548 0.587840 0.323348 0.508102
C10   C     C_3   0.613038 0.730792 0.338254 0.463115
H20   H     H_    0.483987 0.709795 0.326267 0.022285
H21   H     H_    0.577407 0.851918 0.348448 0.215395
O20   O     O_3   0.576930 0.595420 0.534060 -0.456246
C11   C     C_3   0.492898 0.342836 0.341262 0.442246
H22   H     H_    0.364400 0.350757 0.345742 0.085295
H23   H     H_    0.571655 0.397553 0.361515 0.168933
C12   C     C_3   0.531961 0.326362 0.276168 -1.010379
H24   H     H_    0.463701 0.269915 0.253669 0.263400
H25   H     H_    0.499930 0.373616 0.254773 0.229403
H26   H     H_    0.662729 0.323595 0.271251 0.281750
P7    P     P_3+3 0.522404 0.306130 0.443479 0.438721
O21   O     O_2   0.340570 0.306450 0.462190 -0.371571
O22   O     O_3   0.520886 0.279309 0.366385 -0.592849
C13   C     C_3   0.949013 0.242337 0.665873 0.591828
H27   H     H_    0.837596 0.242411 0.639800 0.078414
C14   C     C_3   0.980548 0.320369 0.708637 -0.917717
H28   H     H_    0.032192 0.366360 0.684744 0.258776
H29   H     H_    0.865907 0.334691 0.728458 0.277098
H30   H     H_    0.066770 0.318689 0.744617 0.245522
P8    P     P_3+3 0.541134 0.412156 0.677495 0.458995
C15   C     C_3   0.423565 0.286361 0.718256 0.497196
H31   H     H_    0.418242 0.221853 0.708667 0.069076
O23   O     O_2   0.381273 0.435397 0.704281 -0.425614
O24   O     O_3   0.558291 0.318075 0.690001 -0.547413
H32   H     H_    0.309411 0.298096 0.700601 0.152189
H33   H     H_    0.556356 0.302689 0.801507 0.289986
C16   C     C_3   0.439319 0.313864 0.785041 -1.008889
H34   H     H_    0.340302 0.281504 0.806415 0.224007
H35   H     H_    0.431277 0.377137 0.797408 0.267963
H36   H     H_    0.986305 0.311866 0.034895 0.166750
H37   H     H_    0.915032 0.310420 0.932787 0.166114
C17   C     C_R   0.346572 0.508703 0.330997 0.185363
C18   C     C_R   0.107131 0.571351 0.948536 -0.054598
C19   C     C_R   0.064913 0.569498 0.888508 0.518185
O25   O     O_2   0.091976 0.629317 0.868584 -0.591101
N1    N     N_R   0.990596 0.501069 0.852686 -0.162890
C20   C     C_R   0.959568 0.433320 0.875930 0.515686
O26   O     O_2   0.895544 0.372710 0.844742 -0.611272
C21   C     C_R   0.001544 0.433228 0.935533 -0.048598
C22   C     C_R   0.074832 0.502771 0.972098 -0.012996
C23   C     C_R   0.179384 0.640539 0.985905 -0.126845
C24   C     C_R   0.218117 0.641650 0.045157 -0.108923
C25   C     C_R   0.187129 0.573485 0.069277 -0.065315
C26   C     C_R   0.115560 0.503757 0.032501 -0.013923
C27   C     C_R   0.971018 0.365017 0.959591 -0.126817
C28   C     C_R   0.012024 0.365856 0.018568 -0.119491
C29   C     C_R   0.084458 0.435022 0.055903 -0.053071
C30   C     C_R   0.127605 0.436676 0.115784 0.521651
N2    N     N_R   0.198019 0.505591 0.152166 -0.163604
C31   C     C_R   0.226257 0.573685 0.129217 0.540442
C32   C     C_2   0.780755 0.478319 0.774216 -0.232832
C33   C     C_3   0.725864 0.483697 0.712624 0.138594
C34   C     C_1   0.010690 0.520970 0.690015 0.291082
C35   C     C_2   0.056710 0.526419 0.746547 -0.237483
C36   C     C_2   0.938430 0.501166 0.791775 0.166497
C37   C     C_R   0.407139 0.537174 0.234027 -0.293014
C38   C     C_R   0.455898 0.539046 0.292614 0.076019
C39   C     C_R   0.187336 0.478705 0.312881 0.166722
C40   C     C_R   0.138448 0.476512 0.253753 -0.255423
C41   C     C_R   0.247582 0.506224 0.213434 0.167254
O27   O     O_2   0.104569 0.376281 0.135098 -0.594105
O28   O     O_2   0.284706 0.634928 0.161045 -0.548223
C42   C     C_2   0.867050 0.481972 0.671732 -0.190975
H38   H     H_    0.273071 0.696368 0.072088 0.166830
H39   H     H_    0.493029 0.560442 0.204642 0.188776
H40   H     H_    0.205778 0.694438 0.969493 0.166180
H41   H     H_    0.182219 0.545543 0.759766 0.177922
H42   H     H_    0.691953 0.462421 0.805521 0.158209
H43   H     H_    0.016281 0.451897 0.239229 0.197298
C43   C     C_2   0.427557 0.737198 0.509054 -0.416085
C44   C     C_3   0.370527 0.770358 0.458767 0.102448
C45   C     C_2   0.430473 0.856584 0.467962 -0.211764
C46   C     C_2   0.569036 0.885574 0.499919 0.145124
C47   C     C_2   0.650609 0.830472 0.528528 -0.252747
C48   C     C_1   0.577894 0.758100 0.528138 0.266651
C49   C     C_R   0.797649 0.138662 0.523390 -0.285714
C50   C     C_R   0.862651 0.216745 0.526060 0.205924
C51   C     C_R   0.620828 0.239757 0.479448 0.327721
C52   C     C_R   0.553442 0.161597 0.477328 -0.259461
C53   C     C_R   0.641176 0.109989 0.499467 0.150951
C54   C     C_2   0.645087 0.968785 0.506017 -0.187185
C55   C     C_2   0.566132 0.027017 0.495690 -0.176901
C56   C     C_R   0.774123 0.266796 0.504397 -0.468155
H44   H     H_    0.439214 0.014004 0.483418 0.137236
H45   H     H_    0.763814 0.851565 0.552937 0.141537
H46   H     H_    0.870224 0.101914 0.540553 0.140573
H47   H     H_    0.770793 0.980968 0.519708 0.137603
H48   H     H_    0.371052 0.891608 0.443435 0.121093
H49   H     H_    0.435031 0.140642 0.457068 0.141709
H50   H     H_    0.351607 0.690629 0.524594 0.092924
H51   H     H_    0.827442 0.326481 0.504766 0.150755
N3    N     N_2   0.009162 0.181413 0.292883 -0.075521
H52   H     H_    0.893330 0.188809 0.282771 0.212596
C57   C     C_3   0.125772 0.196602 0.248921 -0.812473
H53   H     H_    0.158772 0.260450 0.251409 0.271207
H54   H     H_    0.073668 0.169820 0.204285 0.240923
H55   H     H_    0.234875 0.169995 0.255534 0.233908
N4    N     N_2   0.010867 0.146464 0.387801 -0.115813
H56   H     H_    0.042202 0.160806 0.431931 0.193027
C58   C     C_3   0.854686 0.099242 0.374071 -0.893419
H57   H     H_    0.834453 0.056186 0.403586 0.255723
H58   H     H_    0.849843 0.065530 0.328154 0.260414
H59   H     H_    0.757954 0.136567 0.379711 0.244342
N5    N     N_2   0.673252 0.828085 0.721094 -0.078414
H60   H     H_    0.775450 0.841864 0.698363 0.211868
C59   C     C_3   0.701339 0.802096 0.775454 -0.803442
H61   H     H_    0.789938 0.846480 0.803792 0.238188
H62   H     H_    0.750986 0.746013 0.766065 0.240115
H63   H     H_    0.587924 0.794744 0.799852 0.248536
O29   O     O_3   0.193927 0.774637 0.236845 -0.560777
C60   C     C_3   0.294090 0.843951 0.230945 -0.127299
H64   H     H_    0.365008 0.870930 0.272260 0.104245
H65   H     H_    0.221831 0.886354 0.217735 0.122054
H66   H     H_    0.380444 0.829532 0.195598 0.170908
N6    N     N_2   0.920205 0.180275 0.699528 -0.099828
H67   H     H_    0.015605 0.177592 0.726885 0.183435
C61   C     C_3   0.850402 0.104418 0.666903 -0.940378
H68   H     H_    0.819402 0.064097 0.698028 0.257168
H69   H     H_    0.938077 0.079873 0.635273 0.256071
H70   H     H_    0.738097 0.108698 0.643090 0.253176
O30   O     O_3   0.396295 0.510365 0.388057 -0.643964
C62   C     C_3   0.364626 0.581199 0.422514 0.289514
H71   H     H_    0.276828 0.572311 0.456440 0.146675
H72   H     H_    0.348276 0.627242 0.396975 -0.087238
H73   H     H_    0.463755 0.606769 0.451465 0.129857
N7    N     N_2   0.830978 0.462473 0.611338 -0.110411
H74   H     H_    0.794101 0.403990 0.595583 0.170841
C63   C     C_3   0.738224 0.517267 0.593885 -0.464205
H75   H     H_    0.682279 0.490468 0.551288 0.287499
H76   H     H_    0.814155 0.573151 0.593814 0.240985
H77   H     H_    0.640450 0.533333 0.623924 0.187646

loop_
_geom_bond_atom_site_label_1
_geom_bond_atom_site_label_2
_geom_bond_distance
_ccdc_geom_bond_type
P4    O15   1.759736 S    
N6    H67   1.032436 S    
C12   H25   1.109913 S    
C43   C44   1.503542 S    
P2    C48   1.843567 S    
C9    H18   1.111240 S    
N2    C41   1.472988 S    
N2    C31   1.392845 Am   
C2    H4    1.114578 S    
C58   H59   1.108824 S    
P8    O23   1.553439 D    
O6    P6    1.747528 S    
C45   C46   1.358773 D    
H1    C10   1.111911 S    
C62   H71   1.093890 S    
C43   H50   1.082939 S    
C7    N4    1.454751 S    
C52   C53   1.414690 A    
C60   H65   1.112099 S    
C61   H68   1.110255 S    
C10   H20   1.111120 S    
C4    C5    1.519020 S    
N6    C61   1.445614 S    
C56   H51   1.081336 S    
C20   O26   1.221003 D    
P3    O11   1.749432 S    
C11   C12   1.521064 S    
C32   H42   1.084283 S    
O1    Ba1   2.811877 S    
C7    H15   1.112411 S    
C2    H5    1.109320 S    
N3    C57   1.446200 S    
O14   P8    1.792106 S    
C1    H21   1.109781 S    
C8    H16   1.109948 S    
O2    Ba2   2.780682 S    
C15   O24   1.406363 S    
C37   C41   1.418298 A    
Ba2   O21   2.872454 S    
C15   C16   1.525974 S    
C40   C41   1.425353 A    
C9    N5    1.450528 S    
C6    C7    1.551937 S    
C43   C48   1.315031 D    
C63   H75   1.082186 S    
C11   H23   1.109803 S    
P1    O1    1.531249 D    
C17   C38   1.398804 A    
C47   H45   1.085821 S    
C35   C36   1.525916 S    
C30   N2    1.391296 Am   
H37   C27   1.083171 S    
P2    O20   1.598921 S    
C7    N3    1.461098 S    
C21   C22   1.408230 A    
C49   C50   1.395977 A    
C52   H49   1.083255 S    
C57   H55   1.110382 S    
P2    O10   1.751851 S    
C32   C33   1.520044 S    
C13   H27   1.113146 S    
C3    O29   1.414895 S    
C1    H2    1.109769 S    
N4    C58   1.449514 S    
P4    C34   1.890901 S    
C54   H47   1.081676 S    
C12   H26   1.111118 S    
P8    C33   1.924940 S    
C31   O28   1.221361 D    
C9    H19   1.109749 S    
C33   C42   1.516131 S    
C28   C29   1.409250 A    
C32   C36   1.365840 D    
O6    C10   1.403977 S    
C14   H30   1.109868 S    
O19   C13   1.413520 S    
Ba1   Ba2   4.606607 S    
C37   C38   1.407133 A    
P4    O13   1.550187 S    
C23   C24   1.402889 A    
C60   H66   1.109312 S    
C59   H62   1.110658 S    
Ba2   O20   2.858734 S    
C61   H69   1.110507 S    
C49   H46   1.076699 S    
P7    O21   1.587589 D    
C27   C28   1.402241 A    
C17   O30   1.376544 S    
P7    C51   1.841356 S    
N3    H52   1.032370 S    
C8    C9    1.536491 S    
C14   H29   1.107025 S    
C39   C40   1.418276 A    
C51   C56   1.391603 A    
O11   C2    1.405582 S    
P6    C38   1.860739 S    
P5    O17   1.752670 S    
C4    H8    1.101856 S    
C15   H31   1.110314 S    
H33   C16   1.110687 S    
C26   C29   1.410155 A    
P1    O5    1.751903 S    
C18   C23   1.409403 A    
C11   H22   1.110089 S    
P1    O2    1.550217 S    
C42   N7    1.394100 S    
N5    C59   1.447005 S    
C13   N6    1.452461 S    
C23   H40   1.083106 S    
P4    Ba2   3.393615 S    
C35   H41   1.084949 S    
C59   H63   1.111067 S    
C45   H48   1.083089 S    
C19   N1    1.390001 Am   
C25   C26   1.408173 A    
C15   H32   1.103282 S    
C49   C53   1.411136 A    
P5    O18   1.544839 D    
O13   Ba2   2.945814 S    
C6    H13   1.107408 S    
C46   C54   1.494045 S    
C1    C10   1.520581 S    
O16   Ba2   2.938485 S    
C1    H3    1.110509 S    
C4    O15   1.397420 S    
Ba1   O16   2.859511 S    
N4    H56   1.027130 S    
O3    Ba1   2.768243 S    
C55   H44   1.083731 S    
O30   C62   1.406212 S    
O14   Ba2   2.767736 S    
C53   C55   1.493802 S    
C16   H35   1.108775 S    
P2    O7    1.535680 D    
O12   Ba2   2.812188 S    
C50   C56   1.392032 A    
P3    O8    1.758629 S    
O3    P6    1.766682 S    
O29   C60   1.410325 S    
C57   H54   1.110176 S    
C16   H34   1.110420 S    
P1    C39   1.872814 S    
C44   C45   1.505377 S    
H36   C28   1.083125 S    
C60   H64   1.112374 S    
P4    O12   1.531538 D    
C34   C42   1.326003 D    
C59   H61   1.109968 S    
O16   P7    1.771682 S    
C61   H70   1.110938 S    
C25   C31   1.422525 A    
P5    C50   1.835123 S    
C5    H10   1.110909 S    
C3    H6    1.108290 S    
Ba1   O13   2.780069 S    
O4    P6    1.545602 D    
C5    H12   1.106711 S    
P8    O24   1.762215 S    
O7    Ba1   2.872189 S    
C14   H28   1.104889 S    
O8    Ba1   2.813880 S    
C62   H72   1.113840 S    
C63   H77   1.107800 S    
N1    C36   1.474270 S    
C24   H38   1.083275 S    
C51   C52   1.404266 A    
C4    H9    1.094934 S    
C54   C55   1.355725 D    
C30   O27   1.221728 D    
C40   H43   1.081993 S    
O5    C6    1.398582 S    
O17   Ba2   2.814604 S    
N5    H60   1.029918 S    
C18   C22   1.410392 A    
C58   H58   1.109898 S    
C47   C48   1.331645 D    
C46   C47   1.511654 S    
C37   H39   1.082359 S    
C34   C35   1.343839 D    
C8    H17   1.100195 S    
C19   O25   1.221663 D    
C11   O22   1.403468 S    
P5    O19   1.756107 S    
C22   C26   1.433104 A    
C5    H11   1.109375 S    
N1    C20   1.392380 Am   
C6    H14   1.108039 S    
C24   C25   1.410180 A    
C63   H76   1.094587 S    
C3    H7    1.116967 S    
O10   C8    1.400555 S    
P1    Ba1   3.392994 S    
C17   C39   1.398785 A    
O2    Ba1   2.944961 S    
N7    C63   1.437323 S    
C62   H73   1.058830 S    
C12   H24   1.108074 S    
P3    C44   1.868136 S    
C21   C27   1.409873 A    
C58   H57   1.109510 S    
C20   C21   1.421827 A    
C2    C3    1.525463 S    
P3    O9    1.543315 D    
C29   C30   1.423964 A    
C57   H53   1.110264 S    
C13   C14   1.521065 S    
Ba1   O20   2.939348 S    
P7    O22   1.752727 S    
C18   C19   1.424615 A    
P2    Ba1   3.418139 S    
N7    H74   1.027695 S    
