data_mof_unit_25124.cif
_audit_creation_date              2012-12-10T16:48:49-0500
_audit_creation_method            fapswitch 2.2
_symmetry_space_group_name_H-M    P1
_symmetry_Int_Tables_number       1
_space_group_crystal_system       triclinic
_cell_length_a                    17.343931
_cell_length_b                    8.730313
_cell_length_c                    7.607192
_cell_angle_alpha                 103.752523
_cell_angle_beta                  89.827018
_cell_angle_gamma                 94.811766
_cell_volume                      1114.72965939

loop_
_atom_site_label
_atom_site_type_symbol
_atom_type_description
_atom_site_fract_x
_atom_site_fract_y
_atom_site_fract_z
_atom_type_partial_charge
C1    C     C_R   0.492158 0.198987 0.453686 0.808667
C2    C     C_R   0.499508 0.799668 0.547031 0.805505
C3    C     C_2   0.480060 0.026682 0.429239 0.073527
C4    C     C_2   0.487534 0.966635 0.573063 -0.014274
C5    C     C_R   0.351347 0.504412 0.526575 0.773604
C6    C     C_R   0.647703 0.495847 0.473081 0.805071
C7    C     C_R   0.266877 0.515056 0.542229 -0.069645
C8    C     C_R   0.730593 0.493307 0.451663 -0.032675
C9    C     C_R   0.224207 0.503475 0.382065 -0.263582
C10   C     C_R   0.778609 0.611645 0.565899 -0.244461
C11   C     C_R   0.145261 0.515868 0.385263 -0.162719
C12   C     C_R   0.858204 0.612015 0.551148 -0.148907
C13   C     C_R   0.105908 0.533757 0.548701 0.156876
C14   C     C_R   0.890743 0.490403 0.425617 0.145926
C15   C     C_R   0.147147 0.545540 0.709333 -0.230975
C16   C     C_R   0.842690 0.373410 0.308670 -0.223769
C17   C     C_R   0.227527 0.539261 0.708863 0.248497
C18   C     C_R   0.762322 0.374587 0.319494 0.231016
C19   C     C_2   0.021923 0.542870 0.557161 -0.211417
C20   C     C_2   0.974675 0.482250 0.414043 -0.211831
Cu1   Cu    Cu3+1 0.508700 0.517250 0.683000 1.072874
Cu2   Cu    Cu3+1 0.491300 0.482750 0.317000 1.077759
H1    H     H_    0.251722 0.484793 0.252053 0.195338
H2    H     H_    0.754329 0.704936 0.665290 0.165310
H3    H     H_    0.997005 0.415686 0.288036 0.143059
H4    H     H_    0.998171 0.593586 0.688273 0.143917
H5    H     H_    0.116598 0.558323 0.835823 0.126464
H6    H     H_    0.867523 0.279621 0.211090 0.131050
H7    H     H_    0.893784 0.707952 0.637798 0.135874
H8    H     H_    0.115832 0.512267 0.259038 0.128962
N1    N     N_2   0.478180 0.456750 0.041980 0.123696
N2    N     N_2   0.521820 0.543250 0.958020 0.113276
O1    O     O_R   0.505650 0.286040 0.618880 -0.542682
O2    O     O_R   0.494350 0.713960 0.381120 -0.515568
O3    O     O_R   0.490960 0.256910 0.309800 -0.580441
O4    O     O_R   0.509040 0.743090 0.690200 -0.591294
O5    O     O_R   0.394600 0.516230 0.672450 -0.514280
O6    O     O_R   0.605400 0.483770 0.327550 -0.528370
O7    O     O_R   0.379910 0.487100 0.363380 -0.576078
O8    O     O_R   0.620090 0.512900 0.636620 -0.575567
N3    N     N_2   0.713822 0.250568 0.206880 -0.443286
H9    H     H_    0.729156 0.139611 0.210116 0.252371
C21   C     C_3   0.704721 0.266530 0.023267 -0.594541
H10   H     H_    0.760490 0.253033 0.951168 0.200584
H11   H     H_    0.684640 0.383738 0.022447 0.278602
H12   H     H_    0.660861 0.173398 0.950039 0.218320
N4    N     N_2   0.266925 0.547700 0.874405 -0.367337
H13   H     H_    0.249688 0.452175 0.927179 0.271462
C22   C     C_3   0.264152 0.695294 0.009013 -0.697552
H14   H     H_    0.205504 0.705345 0.067490 0.204551
H15   H     H_    0.279527 0.797621 0.949470 0.226313
H16   H     H_    0.306165 0.698775 0.119725 0.253613
N5    N     N_2   0.432039 0.933747 0.285357 -0.426760
H17   H     H_    0.373571 0.935119 0.310002 0.231440
C23   C     C_3   0.452433 0.941838 0.106427 -0.574959
H18   H     H_    0.429427 0.831285 0.010145 0.257906
H19   H     H_    0.516323 0.956297 0.092819 0.256491
H20   H     H_    0.425131 0.043796 0.079997 0.237195
N6    N     N_2   0.450262 0.040248 0.731401 -0.381918
H21   H     H_    0.484992 0.056185 0.843577 0.271617
C24   C     C_3   0.369609 0.980215 0.737604 -0.628692
H22   H     H_    0.341735 0.042270 0.862197 0.244969
H23   H     H_    0.364935 0.851653 0.731849 0.200892
H24   H     H_    0.336455 0.000272 0.621696 0.220392
Cl1   Cl    Cl    0.397141 0.350459 0.935696 -0.538519
Cl2   Cl    Cl    0.597484 0.667061 0.073098 -0.540885

loop_
_geom_bond_atom_site_label_1
_geom_bond_atom_site_label_2
_ccdc_geom_bond_type
C16   H6    S    
C24   H24   S    
C2    C4    S    
C23   H18   S    
C6    O6    A    
C15   C17   A    
C5    O5    A    
C12   H7    S    
N3    C21   S    
N3    H9    S    
N2    Cl2   S    
C15   H5    S    
C19   C20   D    
C13   C15   A    
C21   H10   S    
C22   H16   S    
C2    O2    A    
C5    O7    A    
C1    O1    A    
N6    H21   S    
N4    C22   S    
C23   H19   S    
N5    H17   S    
C3    N5    S    
Cu1   O4    S    
Cu2   O3    S    
C9    C11   A    
C23   H20   S    
Cu1   O8    S    
C10   C12   A    
C11   H8    S    
Cu2   O7    S    
C4    N6    S    
C16   C18   A    
C21   H12   S    
C12   C14   A    
C6    O8    A    
N5    C23   S    
C24   H22   S    
Cu2   O2    S    
Cu1   N2    S    
C14   C16   A    
N6    C24   S    
Cu1   O1    S    
C20   H3    S    
C13   C19   S    
C3    C4    D    
Cu2   O6    S    
N4    H13   S    
C7    C9    A    
C11   C13   A    
Cu1   O5    S    
C1    O3    A    
C14   C20   S    
C24   H23   S    
C22   H14   S    
Cu2   N1    S    
C18   N3    S    
C2    O4    A    
C1    C3    S    
C5    C7    S    
C19   H4    S    
N1    Cl1   S    
C9    H1    S    
C6    C8    S    
C10   H2    S    
Cu1   Cu2   S    
C21   H11   S    
C8    C10   A    
C8    C18   A    
N1    N2    D    
C17   N4    S    
C22   H15   S    
C7    C17   A    
