data_mof_unit_57122.cif
_audit_creation_date              2012-10-26T20:03:22-0400
_audit_creation_method            fapswitch 2.2
_symmetry_space_group_name_H-M    P1
_symmetry_Int_Tables_number       1
_space_group_crystal_system       triclinic
_cell_length_a                    10.603862
_cell_length_b                    12.318355
_cell_length_c                    13.076218
_cell_angle_alpha                 116.230998
_cell_angle_beta                  77.826874
_cell_angle_gamma                 100.732381
_cell_volume                      1489.24619585

loop_
_atom_site_label
_atom_site_type_symbol
_atom_type_description
_atom_site_fract_x
_atom_site_fract_y
_atom_site_fract_z
_atom_type_partial_charge
C1    C     C_R   0.509638 0.855343 0.286332 0.526427
C2    C     C_R   0.489716 0.568613 0.008458 0.035880
C3    C     C_R   0.455015 0.651644 0.124429 0.025788
C4    C     C_R   0.740188 0.998898 0.499653 0.547855
C5    C     C_R   0.454700 0.441739 0.977426 0.019280
C6    C     C_R   0.380179 0.401937 0.060439 0.024841
C7    C     C_R   0.331459 0.486273 0.168347 -0.141412
C8    C     C_R   0.364993 0.609460 0.198638 -0.119989
C9    C     C_R   0.493457 0.352920 0.867270 -0.162191
C10   C     C_R   0.395119 0.190680 0.925571 0.076023
C11   C     C_R   0.511164 0.774528 0.162739 -0.004217
C12   C     C_3   0.018689 0.014522 0.603233 -0.136094
C13   C     C_R   0.708015 0.342776 0.323780 -0.003139
C14   C     C_R   0.318484 0.754935 0.639241 0.075801
C15   C     C_R   0.279023 0.656931 0.668697 -0.145047
C16   C     C_R   0.481848 0.145017 0.714556 0.559675
C17   C     C_R   0.348464 0.555688 0.616518 -0.138321
C18   C     C_R   0.458308 0.550535 0.532600 -0.006502
C19   C     C_R   0.495103 0.653679 0.505754 0.179458
C20   C     C_R   0.531387 0.446633 0.473245 -0.026726
C21   C     C_R   0.637221 0.445981 0.385448 0.049252
C22   C     C_R   0.670438 0.548519 0.361591 -0.178629
C23   C     C_3   0.934661 0.906613 0.522303 -0.123328
C24   C     C_R   0.601914 0.649126 0.420366 -0.105307
C25   C     C_R   0.503675 0.342596 0.497308 0.025248
C26   C     C_R   0.674065 0.244273 0.353495 0.054649
C27   C     C_R   0.259738 0.000908 0.499831 0.547527
C28   C     C_3   0.980468 0.985133 0.395005 -0.111904
C29   C     C_3   0.041287 0.894497 0.417987 -0.139446
C30   C     C_3   0.123254 0.002383 0.498949 0.042256
C31   C     C_3   0.063418 0.092317 0.476461 0.034975
C32   C     C_3   0.957878 0.105587 0.580891 -0.107408
C33   C     C_3   0.817628 0.332613 0.225394 -0.299216
C34   C     C_3   0.876554 0.997623 0.499658 0.035249
C35   C     C_3   0.765246 0.304456 0.114988 -0.425364
C36   C     C_3   0.136603 0.198731 0.450407 -0.258774
C37   C     C_3   0.044806 0.267257 0.430754 -0.442960
C38   C     C_R   0.354153 0.277919 0.034842 -0.109881
C39   C     C_R   0.459078 0.228288 0.838195 0.002173
C40   C     C_R   0.580549 0.817680 0.081782 -0.121538
C41   C     C_R   0.600929 0.739542 0.965725 -0.124677
C42   C     C_R   0.559012 0.616074 0.929182 -0.118750
Cu1   Cu    Cu3+1 0.529830 0.098270 0.475420 0.913076
Cu2   Cu    Cu3+1 0.470170 0.901730 0.524580 0.935286
H1    H     H_    0.078450 0.808334 0.351537 0.106315
H2    H     H_    0.262461 0.831972 0.678537 0.155185
H3    H     H_    0.961622 0.972962 0.310011 0.106912
H4    H     H_    0.312519 0.482324 0.642201 0.094302
H5    H     H_    0.193729 0.659109 0.731654 0.114489
H6    H     H_    0.635946 0.721031 0.394130 0.183924
H7    H     H_    0.920682 0.191692 0.647429 0.107747
H8    H     H_    0.037365 0.026511 0.688215 0.117779
H9    H     H_    0.878605 0.830164 0.540939 0.126656
H10   H     H_    0.267591 0.456916 0.230020 0.103611
H11   H     H_    0.301516 0.248575 0.100478 0.131871
H12   H     H_    0.550627 0.378623 0.801587 0.125601
H13   H     H_    0.702598 0.216384 0.088793 0.168305
H14   H     H_    0.707743 0.376880 0.126926 0.163343
H15   H     H_    0.847441 0.297454 0.044650 0.140299
H16   H     H_    0.886695 0.416548 0.248803 0.138215
H17   H     H_    0.875848 0.258033 0.207139 0.127601
H18   H     H_    0.994148 0.205881 0.355945 0.147545
H19   H     H_    0.971699 0.304537 0.508536 0.159467
H20   H     H_    0.101154 0.344002 0.412742 0.134246
H21   H     H_    0.187881 0.262448 0.524058 0.142259
H22   H     H_    0.209577 0.163534 0.372083 0.168178
H23   H     H_    0.622039 0.911662 0.108417 0.133687
H24   H     H_    0.581298 0.561092 0.838188 0.103777
H25   H     H_    0.653923 0.774116 0.903976 0.130526
H26   H     H_    0.318114 0.670618 0.280698 0.148027
H27   H     H_    0.725870 0.164281 0.308223 0.118671
H28   H     H_    0.750683 0.553318 0.296790 0.112287
H29   H     H_    0.426488 0.336018 0.563163 0.117760
I1    I     I_    0.356798 0.008437 0.908142 -0.450022
N1    N     N_R   0.575030 0.246270 0.438190 -0.244884
N2    N     N_R   0.425760 0.754330 0.561190 -0.232853
O1    O     O_R   0.537510 0.972500 0.318130 -0.502169
O2    O     O_R   0.487140 0.806530 0.359650 -0.531876
O3    O     O_R   0.708330 0.082950 0.479220 -0.505672
O4    O     O_R   0.657960 0.916980 0.520740 -0.518958
O5    O     O_R   0.512860 0.193470 0.640350 -0.516972
O6    O     O_R   0.462490 0.027500 0.681870 -0.457921
O7    O     O_R   0.342040 0.083020 0.479260 -0.511419
O8    O     O_R   0.291670 0.917050 0.520780 -0.515737

loop_
_geom_bond_atom_site_label_1
_geom_bond_atom_site_label_2
_ccdc_geom_bond_type
C28   H3    S    
C26   H27   S    
Cu1   O7    S    
C41   C42   A    
C1    C11   S    
C17   H4    S    
C37   H18   S    
C7    C8    A    
C14   H2    S    
C13   C33   S    
C12   C23   S    
C35   H14   S    
C23   C29   S    
C28   C29   S    
C4    O4    A    
Cu2   O6    S    
C30   C31   S    
C36   H22   S    
C20   C25   A    
Cu1   O3    S    
C9    C39   A    
C1    O1    A    
C35   H15   S    
C18   C19   A    
Cu2   N2    S    
C37   H19   S    
C38   H11   S    
C40   H23   S    
C6    C38   A    
C23   H9    S    
C18   C20   A    
C28   C34   S    
C21   C22   A    
C12   C32   S    
C27   C30   S    
C42   H24   S    
C1    O2    A    
C22   H28   S    
C12   H8    S    
C26   N1    A    
C24   H6    S    
C4    C34   S    
Cu2   O4    S    
C4    O3    A    
C3    C8    A    
C36   H21   S    
C29   H1    S    
C10   C39   A    
C25   N1    A    
C14   N2    A    
Cu1   Cu2   S    
C32   H7    S    
C5    C9    A    
C29   C30   S    
C31   C32   S    
C23   C34   S    
C16   O6    A    
C17   C18   A    
C13   C21   A    
C9    H12   S    
C33   H17   S    
C40   C41   A    
C33   H16   S    
Cu1   O5    S    
C22   C24   A    
C13   C26   A    
C2    C5    A    
C37   H20   S    
Cu1   N1    S    
C41   H25   S    
C15   C17   A    
C27   O8    A    
C19   N2    A    
C12   C30   S    
C14   C15   A    
C28   C31   S    
Cu2   O8    S    
C6    C7    A    
Cu1   O1    S    
C8    H26   S    
C10   C38   A    
C35   H13   S    
C27   O7    A    
C2    C3    A    
C10   I1    S    
C5    C6    A    
C2    C42   A    
Cu2   O2    S    
C16   O5    A    
C33   C35   S    
C19   C24   A    
C25   H29   S    
C15   H5    S    
C11   C40   A    
C3    C11   A    
C16   C39   S    
C20   C21   A    
C36   C37   S    
C31   C36   S    
C7    H10   S    
C32   C34   S    
