data_mof_unit_58774.cif
_audit_creation_date              2012-12-10T17:19:26-0500
_audit_creation_method            fapswitch 2.2
_symmetry_space_group_name_H-M    P1
_symmetry_Int_Tables_number       1
_space_group_crystal_system       triclinic
_cell_length_a                    15.017405
_cell_length_b                    10.799739
_cell_length_c                    9.644668
_cell_angle_alpha                 89.810574
_cell_angle_beta                  89.723113
_cell_angle_gamma                 93.53164
_cell_volume                      1561.21241191

loop_
_atom_site_label
_atom_site_type_symbol
_atom_type_description
_atom_site_fract_x
_atom_site_fract_y
_atom_site_fract_z
_atom_type_partial_charge
C1    C     C_R   0.495343 0.262425 0.500703 0.785064
C2    C     C_R   0.911620 0.613472 0.521156 0.082555
C3    C     C_R   0.938107 0.278614 0.451204 -0.235357
C4    C     C_R   0.030197 0.275867 0.444357 -0.216212
C5    C     C_R   0.085618 0.383362 0.471249 0.078859
C6    C     C_R   0.045548 0.495820 0.500942 0.050190
C7    C     C_R   0.098733 0.605015 0.528456 0.120281
C8    C     C_R   0.058645 0.716793 0.552094 -0.236042
C9    C     C_R   0.966139 0.721396 0.547056 -0.201462
C10   C     C_R   0.179716 0.381975 0.466707 -0.069480
C11   C     C_R   0.231757 0.491578 0.499684 -0.092128
C12   C     C_R   0.328895 0.495161 0.500077 0.798210
C13   C     C_R   0.191270 0.601265 0.530741 -0.267963
C14   C     C_R   0.380743 0.116897 0.700615 -0.165308
C15   C     C_R   0.329027 0.047481 0.796533 -0.174941
C16   C     C_R   0.327356 0.919027 0.794001 -0.151898
C17   C     C_R   0.377719 0.859449 0.695983 -0.202424
C18   C     C_R   0.434416 0.927977 0.601548 0.072435
C19   C     C_R   0.435647 0.059141 0.603358 0.110839
C20   C     C_R   0.487884 0.127698 0.502763 -0.102168
C21   C     C_R   0.535060 0.066893 0.401196 -0.209885
C22   C     C_R   0.534579 0.939397 0.400550 -0.176371
C23   C     C_R   0.495270 0.736620 0.500180 0.805197
C24   C     C_R   0.486969 0.869640 0.501260 -0.098338
C25   C     C_R   0.618960 0.666778 0.142230 -0.209580
C26   C     C_R   0.674476 0.753295 0.070185 -0.064107
C27   C     C_R   0.667427 0.762424 0.926630 -0.047577
C28   C     C_R   0.613581 0.674094 0.855668 -0.191709
C29   C     C_R   0.556693 0.584465 0.924895 0.186835
C30   C     C_R   0.557422 0.583427 0.074014 0.193286
C31   C     C_R   0.446500 0.419649 0.074344 -0.063038
C32   C     C_R   0.446146 0.420013 0.927034 -0.056404
C33   C     C_R   0.670553 0.500846 0.499583 0.844418
C34   C     C_R   0.817977 0.615391 0.514670 0.053220
C35   C     C_R   0.766655 0.503344 0.498515 -0.076186
C36   C     C_R   0.806366 0.391793 0.479381 -0.295892
C37   C     C_R   0.898646 0.389559 0.477308 0.120704
C38   C     C_R   0.951927 0.499650 0.500465 0.037179
Cu1   Cu    Cu3+1 0.499990 0.499990 0.640660 0.928360
Cu2   Cu    Cu3+1 0.500010 0.500010 0.359340 0.939671
H1    H     H_    0.371901 0.214952 0.698785 0.149287
H2    H     H_    0.287192 0.093557 0.869325 0.124502
H3    H     H_    0.284674 0.865132 0.865481 0.139166
H4    H     H_    0.368612 0.759713 0.693313 0.168401
H5    H     H_    0.573840 0.894872 0.322999 0.167139
H6    H     H_    0.403515 0.352704 0.129368 0.131696
H7    H     H_    0.625930 0.669581 0.251596 0.224555
H8    H     H_    0.620278 0.677962 0.746309 0.230725
H9    H     H_    0.764982 0.306910 0.464224 0.132302
H10   H     H_    0.401328 0.354782 0.873537 0.120462
H11   H     H_    0.897412 0.193885 0.434425 0.144652
H12   H     H_    0.056686 0.188178 0.418345 0.159376
H13   H     H_    0.232376 0.684877 0.553183 0.126267
H14   H     H_    0.099010 0.801273 0.573061 0.140275
H15   H     H_    0.938221 0.809829 0.565095 0.183241
H16   H     H_    0.574758 0.118586 0.323881 0.155445
N1    N     N_R   0.500860 0.501210 0.147910 -0.192345
N2    N     N_R   0.500890 0.501290 0.852040 -0.193234
O1    O     O_R   0.499990 0.319640 0.618810 -0.594496
O2    O     O_R   0.500000 0.319660 0.381240 -0.573056
O3    O     O_R   0.370250 0.499960 0.618800 -0.591981
O4    O     O_R   0.370260 0.499980 0.381230 -0.577088
O5    O     O_R   0.500000 0.680340 0.618760 -0.605696
O6    O     O_R   0.500010 0.680360 0.381190 -0.594153
O7    O     O_R   0.629740 0.500020 0.618770 -0.583455
O8    O     O_R   0.629750 0.500040 0.381200 -0.592153
I1    I     I_    0.751211 0.784011 0.514419 -0.489601
C39   C     C_R   0.744644 0.828311 0.144070 0.129374
C40   C     C_R   0.736184 0.955318 0.167214 -0.119241
C41   C     C_R   0.808217 0.028855 0.219270 -0.109757
C42   C     C_R   0.889163 0.976282 0.246941 -0.100031
C43   C     C_R   0.897911 0.849938 0.224088 -0.120204
C44   C     C_R   0.825835 0.775902 0.173199 -0.129127
H17   H     H_    0.674936 0.997727 0.141097 0.116892
H18   H     H_    0.801702 0.126965 0.235649 0.123213
H19   H     H_    0.945458 0.033277 0.285021 0.117976
H20   H     H_    0.960668 0.809515 0.245000 0.139568
H21   H     H_    0.833905 0.678601 0.153051 0.136554
C45   C     C_R   0.711104 0.869537 0.850830 0.133035
C46   C     C_R   0.658177 0.959522 0.793699 -0.128404
C47   C     C_R   0.698122 0.065994 0.730920 -0.104140
C48   C     C_R   0.791059 0.083623 0.725300 -0.098767
C49   C     C_R   0.844253 0.994318 0.781204 -0.123802
C50   C     C_R   0.804595 0.887346 0.843460 -0.092482
H22   H     H_    0.586118 0.948021 0.799838 0.145237
H23   H     H_    0.657063 0.135251 0.687567 0.138710
H24   H     H_    0.821846 0.166463 0.677716 0.132535
H25   H     H_    0.916207 0.007793 0.775947 0.124166
H26   H     H_    0.846558 0.818548 0.885435 0.131434
C51   C     C_R   0.222358 0.268391 0.420839 0.086688
C52   C     C_R   0.256736 0.262297 0.285741 -0.121630
C53   C     C_R   0.287216 0.151137 0.235204 -0.152224
C54   C     C_R   0.280923 0.044400 0.317699 -0.097314
C55   C     C_R   0.244417 0.048856 0.450896 -0.129160
C56   C     C_R   0.216831 0.160890 0.503559 -0.188692
H27   H     H_    0.257397 0.342835 0.218540 0.127371
H28   H     H_    0.313926 0.147026 0.131035 0.115082
H29   H     H_    0.303472 0.958018 0.277998 0.130880
H30   H     H_    0.237948 0.965577 0.513705 0.138437
H31   H     H_    0.187896 0.162931 0.606548 0.134754

loop_
_geom_bond_atom_site_label_1
_geom_bond_atom_site_label_2
_ccdc_geom_bond_type
C8    C9    A    
C54   C55   A    
Cu2   O2    S    
C35   C36   A    
C32   N2    A    
C47   C48   A    
C33   O7    A    
C7    C8    A    
C26   C27   A    
C46   H22   S    
C4    H12   S    
C18   C24   A    
C36   C37   A    
C37   C38   A    
C18   C19   A    
C27   C45   S    
C1    O1    A    
C45   C50   A    
C15   C16   A    
C30   N1    A    
Cu2   O4    S    
C34   C35   A    
C43   H20   S    
C52   H27   S    
C39   C40   A    
C28   H8    S    
C31   C32   A    
C16   C17   A    
C31   H6    S    
C33   O8    A    
C44   H21   S    
C6    C38   A    
C41   C42   A    
C9    H15   S    
C25   H7    S    
C47   H23   S    
C2    C34   A    
C23   O5    A    
C49   H25   S    
Cu2   O8    S    
C21   C22   A    
Cu1   O7    S    
C40   C41   A    
C53   H28   S    
C13   H13   S    
Cu1   O3    S    
C51   C56   A    
C1    O2    A    
C8    H14   S    
Cu1   Cu2   S    
C3    H11   S    
C56   H31   S    
C46   C47   A    
C39   C44   A    
Cu1   N2    S    
C29   C30   A    
C12   O4    A    
C2    C38   A    
C49   C50   A    
C7    C13   A    
C23   C24   S    
Cu1   O1    S    
C17   C18   A    
C40   H17   S    
C20   C21   A    
C16   H3    S    
C32   H10   S    
C14   H1    S    
C23   O6    A    
C22   C24   A    
C50   H26   S    
C3    C4    A    
C42   H19   S    
C52   C53   A    
C25   C30   A    
C28   C29   A    
C1    C20   S    
Cu2   N1    S    
C14   C19   A    
C15   H2    S    
C43   C44   A    
C34   I1    S    
C21   H16   S    
C11   C12   S    
C6    C7    A    
Cu1   O5    S    
Cu2   O6    S    
C26   C39   S    
C31   N1    A    
C19   C20   A    
C25   C26   A    
C17   H4    S    
C5    C10   A    
C12   O3    A    
C11   C13   A    
C51   C52   A    
C5    C6    A    
C55   H30   S    
C53   C54   A    
C33   C35   S    
C55   C56   A    
C10   C11   A    
C45   C46   A    
C4    C5    A    
C22   H5    S    
C42   C43   A    
C29   N2    A    
C10   C51   S    
C48   C49   A    
C41   H18   S    
C14   C15   A    
C2    C9    A    
C54   H29   S    
C36   H9    S    
C48   H24   S    
C3    C37   A    
C27   C28   A    
