data_mof_unit_49815.cif
_audit_creation_date              2013-03-05T15:41:37-0500
_audit_creation_method            fapswitch 2.2
_symmetry_space_group_name_H-M    P1
_symmetry_Int_Tables_number       1
_space_group_crystal_system       triclinic
_cell_length_a                    7.77551
_cell_length_b                    8.57353
_cell_length_c                    15.73076
_cell_angle_alpha                 90.879155
_cell_angle_beta                  85.795389
_cell_angle_gamma                 93.651692
_cell_volume                      1043.66275291

loop_
_atom_site_label
_atom_site_type_symbol
_atom_site_description
_atom_site_fract_x
_atom_site_fract_y
_atom_site_fract_z
_atom_type_partial_charge
O1    O     O_R   0.389240 0.738570 0.505550 -0.613027
O2    O     O_R   0.678400 0.711630 0.491050 -0.627366
C1    C     C_R   0.545767 0.794714 0.497790 0.960106
O3    O     O_R   0.355360 0.513470 0.630110 -0.597076
O4    O     O_R   0.644510 0.486530 0.615610 -0.624747
C2    C     C_R   0.501909 0.500084 0.661545 0.890596
Zn1   Zn    Zn3+2 0.306930 0.517990 0.509680 0.985819
Zn2   Zn    Zn3+2 0.693070 0.482010 0.490320 0.985956
O5    O     O_R   0.321600 0.288370 0.508950 -0.629648
O6    O     O_R   0.610760 0.261430 0.494450 -0.612834
O7    O     O_R   0.355490 0.513470 0.384390 -0.608948
O8    O     O_R   0.644640 0.486530 0.369890 -0.593888
C3    C     C_R   0.454230 0.205285 0.502159 0.963967
C4    C     C_R   0.497998 0.499854 0.338467 0.900544
C5    C     C_3   0.354236 0.606486 0.954919 0.117143
C6    C     C_3   0.673327 0.562443 0.946922 -0.397641
C7    C     C_3   0.670072 0.557169 0.045000 -0.357456
H1    H     H_    0.410100 0.735120 0.070910 0.140681
H2    H     H_    0.389535 0.726782 0.930644 0.110862
H3    H     H_    0.778221 0.491376 0.918553 0.272749
H4    H     H_    0.702896 0.684827 0.925145 0.210183
H5    H     H_    0.704538 0.676542 0.069862 0.222600
H6    H     H_    0.771532 0.482418 0.064349 0.293089
C8    C     C_1   0.493186 0.499374 0.249863 -0.065258
C9    C     C_3   0.496701 0.498692 0.917194 0.058264
C10   C     C_3   0.356936 0.615533 0.054225 0.034695
C11   C     C_3   0.487505 0.498129 0.083235 -0.019804
C12   C     C_3   0.439386 0.330072 0.048101 0.189171
C13   C     C_3   0.463716 0.328821 0.949616 -0.427290
C14   C     C_1   0.489779 0.498759 0.174722 0.082918
C15   C     C_1   0.503479 0.498958 0.825565 0.004094
C16   C     C_1   0.505266 0.499367 0.750228 -0.123048
H7    H     H_    0.300197 0.300639 0.065324 0.202165
C17   C     C_2   0.569842 0.958216 0.496498 -0.351918
C18   C     C_2   0.430149 0.041780 0.503367 -0.351435
H8    H     H_    0.298218 0.990710 0.509916 0.184513
N1    N     N_2   0.950340 0.457950 0.477370 -0.162450
H9    H     H_    0.013395 0.381950 0.436525 0.208983
N2    N     N_2   0.049660 0.542050 0.522630 -0.166783
N3    N     N_R   0.182730 0.558363 0.926084 0.243401
O9    O     O_R   0.101415 0.427444 0.950417 -0.386874
O10   O     O_R   0.108180 0.650144 0.877035 -0.390025
N4    N     N_R   0.182032 0.599589 0.097603 0.250921
O11   O     O_R   0.132745 0.484527 0.148588 -0.374443
O12   O     O_R   0.077256 0.710021 0.089429 -0.338755
N5    N     N_R   0.536906 0.209002 0.084508 0.209056
O13   O     O_R   0.455653 0.101849 0.132612 -0.370530
O14   O     O_R   0.702195 0.201902 0.066196 -0.350928
H10   H     H_    0.701773 0.009286 0.489939 0.185452
H11   H     H_    0.986608 0.618065 0.563466 0.199692
H12   H     H_    0.349170 0.268997 0.922180 0.214940
H13   H     H_    0.574804 0.259573 0.926965 0.219607

loop_
_geom_bond_atom_site_label_1
_geom_bond_atom_site_label_2
_geom_bond_distance
_ccdc_geom_bond_type
C9    C15   1.438517 S    
O4    Zn2   1.979629 S    
C2    C16   1.397315 S    
N4    O11   1.301664 A    
C5    C10   1.564504 S    
C6    H4    1.113513 S    
Zn1   O7    1.979629 S    
C7    H5    1.113728 S    
H1    C10   1.115631 S    
C6    H3    1.112297 S    
Zn2   O8    1.959844 S    
N3    O10   1.301107 A    
O2    C1    1.287408 A    
N1    N2    1.271663 D    
C7    H6    1.109664 S    
C11   C14   1.440502 S    
C5    H2    1.116034 S    
N4    O12   1.301539 A    
C12   N5    1.470575 S    
C10   C11   1.569826 S    
N1    H9    1.029285 S    
O3    Zn1   1.959845 S    
Zn2   O6    1.958001 S    
N3    O9    1.301319 A    
O8    C4    1.287807 A    
C10   N4    1.475439 S    
C3    C18   1.402628 S    
N5    O14   1.301381 A    
C9    C13   1.550166 S    
O4    C2    1.288961 A    
O7    C4    1.288343 A    
C8    C14   1.184179 T    
C5    N3    1.472138 S    
C5    C9    1.565425 S    
C12   H7    1.110268 S    
C13   H12   1.110851 S    
C7    C11   1.557468 S    
C11   C12   1.568021 S    
N2    H11   1.029278 S    
O3    C2    1.287311 A    
C17   C18   1.335770 D    
Zn2   N1    2.019205 S    
C4    C8    1.396989 S    
C6    C9    1.547340 S    
Zn1   O5    1.979005 S    
O5    C3    1.287406 A    
N5    O13   1.301160 A    
C12   C13   1.546877 S    
C17   H10   1.087814 S    
Zn1   N2    2.019205 S    
C1    C17   1.402630 S    
O1    Zn1   1.958001 S    
C13   H13   1.113204 S    
C15   C16   1.184232 T    
O2    Zn2   1.979006 S    
C18   H8    1.087815 S    
C6    C7    1.542493 S    
O1    C1    1.277996 A    
O6    C3    1.277997 A    
