data_mof_unit_22231.cif
_audit_creation_date              2012-12-10T19:47:24-0500
_audit_creation_method            fapswitch 2.2
_symmetry_space_group_name_H-M    P1
_symmetry_Int_Tables_number       1
_space_group_crystal_system       triclinic
_cell_length_a                    10.922832
_cell_length_b                    10.912413
_cell_length_c                    12.695518
_cell_angle_alpha                 91.917254
_cell_angle_beta                  91.063757
_cell_angle_gamma                 90.318881
_cell_volume                      1512.09857332

loop_
_atom_site_label
_atom_site_type_symbol
_atom_type_description
_atom_site_fract_x
_atom_site_fract_y
_atom_site_fract_z
_atom_type_partial_charge
C1    C     C_R   0.261846 0.498843 0.502252 0.836299
C2    C     C_R   0.738154 0.501157 0.497748 0.836301
C3    C     C_R   0.501024 0.871698 0.496777 -0.285299
C4    C     C_R   0.498976 0.128302 0.503223 -0.285299
C5    C     C_R   0.461227 0.934960 0.407276 -0.108197
C6    C     C_R   0.538773 0.065040 0.592724 -0.108197
C7    C     C_R   0.174903 0.377265 0.855821 0.295328
C8    C     C_R   0.825100 0.622732 0.144176 0.295328
C9    C     C_R   0.154271 0.387018 0.747207 -0.228547
C10   C     C_R   0.845731 0.612981 0.252790 -0.228552
C11   C     C_R   0.115890 0.498425 0.706092 -0.047762
C12   C     C_R   0.884111 0.501574 0.293908 -0.047761
C13   C     C_R   0.101537 0.600926 0.774224 -0.255010
C14   C     C_R   0.898465 0.399072 0.225777 -0.255013
C15   C     C_R   0.121614 0.591536 0.882491 0.702840
C16   C     C_R   0.878389 0.408460 0.117510 0.702840
C17   C     C_R   0.157652 0.479726 0.923979 0.292572
C18   C     C_R   0.842352 0.520269 0.076020 0.292581
C19   C     C_R   0.934617 0.502162 0.592481 -0.142519
C20   C     C_R   0.065383 0.497840 0.407520 -0.142520
C21   C     C_R   0.871683 0.501723 0.495223 -0.075784
C22   C     C_R   0.128317 0.498278 0.504777 -0.075784
C23   C     C_R   0.499341 0.261894 0.501474 0.908315
C24   C     C_R   0.500659 0.738106 0.498526 0.908314
C25   C     C_R   0.938450 0.499608 0.401189 0.075779
C26   C     C_R   0.061550 0.500393 0.598811 0.075779
C27   C     C_2   0.474172 0.459194 0.031752 -0.160751
C28   C     C_2   0.525827 0.540808 0.968248 -0.160755
C29   C     C_1   0.521819 0.527501 0.852647 0.328427
C30   C     C_1   0.478181 0.472500 0.147353 0.328430
C31   C     C_R   0.723450 0.232711 0.810131 -0.173870
C32   C     C_R   0.276546 0.767294 0.189868 -0.173871
C33   C     C_R   0.690440 0.183375 0.710250 0.336742
C34   C     C_R   0.309557 0.816628 0.289749 0.336741
C35   C     C_R   0.574955 0.126472 0.694442 0.119719
C36   C     C_R   0.425044 0.873528 0.305558 0.119721
C37   C     C_R   0.495170 0.118678 0.779438 -0.188474
C38   C     C_R   0.504830 0.881320 0.220562 -0.188478
C39   C     C_R   0.529688 0.166303 0.878875 -0.230362
C40   C     C_R   0.470311 0.833696 0.121125 -0.230367
C41   C     C_R   0.643273 0.223562 0.894197 0.651085
C42   C     C_R   0.356724 0.776441 0.105802 0.651090
C43   C     C_R   0.540612 0.937795 0.588248 0.602409
C44   C     C_R   0.459389 0.062205 0.411751 0.602410
Cu1   Cu    Cu3+1 0.492140 0.492110 0.395880 1.053410
Cu2   Cu    Cu3+1 0.507860 0.507890 0.604120 1.053409
H1    H     H_    0.067126 0.686082 0.744050 0.218708
H2    H     H_    0.932875 0.313917 0.255953 0.218708
H3    H     H_    0.884788 0.502323 0.665634 0.206089
H4    H     H_    0.115212 0.497680 0.334366 0.206089
H5    H     H_    0.573013 0.620250 0.003166 0.197892
H6    H     H_    0.426987 0.379751 0.996834 0.197893
H7    H     H_    0.811968 0.276395 0.822924 0.237402
H8    H     H_    0.188027 0.723612 0.177074 0.237401
H9    H     H_    0.407010 0.073492 0.768911 0.219733
H10   H     H_    0.592991 0.926502 0.231090 0.219731
H11   H     H_    0.468774 0.157729 0.944488 0.225903
H12   H     H_    0.531225 0.842269 0.055512 0.225901
H13   H     H_    0.160901 0.306202 0.695722 0.205701
H14   H     H_    0.839101 0.693798 0.304275 0.205702
N1    N     N_1   0.480320 0.480250 0.239400 -0.156286
N2    N     N_1   0.519680 0.519750 0.760600 -0.156287
O1    O     O_R   0.313000 0.493330 0.412070 -0.568021
O2    O     O_R   0.687000 0.506670 0.587930 -0.568021
O3    O     O_R   0.326280 0.506660 0.587930 -0.587423
O4    O     O_R   0.673720 0.493340 0.412070 -0.587422
O5    O     O_R   0.493370 0.312980 0.412070 -0.501205
O6    O     O_R   0.506630 0.687020 0.587930 -0.501205
O7    O     O_R   0.506650 0.326310 0.587930 -0.609559
O8    O     O_R   0.493350 0.673690 0.412070 -0.609559
F1    F     F_    0.675635 0.268894 0.991253 -0.616466
F2    F     F_    0.324362 0.731111 0.008745 -0.616463
F3    F     F_    0.096437 0.688913 0.947564 -0.537335
F4    F     F_    0.903565 0.311081 0.052439 -0.537334
Cl1   Cl    Cl    0.796182 0.191149 0.607718 -0.591694
Cl2   Cl    Cl    0.203815 0.808854 0.392281 -0.591694
F5    F     F_    0.584394 0.879015 0.673961 -0.609202
F6    F     F_    0.415607 0.120984 0.326038 -0.609201
Cl3   Cl    Cl    0.172792 0.468061 0.061517 -0.539580
Cl4   Cl    Cl    0.827211 0.531932 0.938482 -0.539581
Cl5   Cl    Cl    0.211204 0.233151 0.905197 -0.501008
Cl6   Cl    Cl    0.788800 0.766844 0.094798 -0.501004

loop_
_geom_bond_atom_site_label_1
_geom_bond_atom_site_label_2
_ccdc_geom_bond_type
C23   O7    A    
C24   O8    A    
C39   C41   A    
C18   Cl4   S    
Cu1   Cu2   S    
C3    C43   A    
Cu2   N2    S    
C16   F4    S    
C28   C29   S    
C19   C21   A    
C28   H5    S    
C20   C25   A    
C39   H11   S    
C5    C36   S    
C17   Cl3   S    
C6    C35   S    
C15   C17   A    
C23   O5    A    
C19   C26   A    
Cu2   O7    S    
C20   H4    S    
C33   Cl1   S    
C7    C17   A    
Cu1   O5    S    
C1    O3    A    
C31   C33   A    
C41   F1    S    
C40   C42   A    
C1    C22   S    
C27   C30   S    
C3    C24   S    
C1    O1    A    
C32   H8    S    
C2    O2    A    
C40   H12   S    
Cu2   O3    S    
C4    C6    A    
C13   H1    S    
C4    C23   S    
C14   H2    S    
C4    C44   A    
C11   C26   S    
C2    O4    A    
Cu1   O1    S    
C8    C18   A    
Cu2   O2    S    
C9    H13   S    
C32   C34   A    
C10   H14   S    
Cu2   O6    S    
C19   H3    S    
C2    C21   S    
C42   F2    S    
C31   H7    S    
C9    C11   A    
C10   C12   A    
C8    C10   A    
C15   F3    S    
C5    C44   A    
C12   C14   A    
C6    C43   A    
C13   C15   A    
C14   C16   A    
C36   C38   A    
Cu1   O4    S    
C27   H6    S    
C35   C37   A    
C7    C9    A    
C21   C25   A    
C29   N2    T    
C31   C41   A    
C7    Cl5   S    
Cu1   O8    S    
C20   C22   A    
C3    C5    A    
C43   F5    S    
C12   C25   S    
C44   F6    S    
C37   C39   A    
C38   C40   A    
C11   C13   A    
Cu1   N1    S    
C33   C35   A    
C34   C36   A    
C24   O6    A    
C37   H9    S    
C8    Cl6   S    
C38   H10   S    
C16   C18   A    
C22   C26   A    
C30   N1    T    
C27   C28   D    
C32   C42   A    
C34   Cl2   S    
