data_mof_unit_56521.cif
_audit_creation_date              2012-12-10T17:09:50-0500
_audit_creation_method            fapswitch 2.2
_symmetry_space_group_name_H-M    P1
_symmetry_Int_Tables_number       1
_space_group_crystal_system       triclinic
_cell_length_a                    10.834382
_cell_length_b                    12.984433
_cell_length_c                    11.781575
_cell_angle_alpha                 99.877038
_cell_angle_beta                  93.476554
_cell_angle_gamma                 94.000979
_cell_volume                      1624.41503896

loop_
_atom_site_label
_atom_site_type_symbol
_atom_type_description
_atom_site_fract_x
_atom_site_fract_y
_atom_site_fract_z
_atom_type_partial_charge
C1    C     C_R   0.497140 0.299166 0.478471 0.801621
C2    C     C_R   0.083305 0.601664 0.561986 0.041088
C3    C     C_R   0.130480 0.509939 0.503717 -0.065247
C4    C     C_R   0.051413 0.426285 0.445529 -0.229413
C5    C     C_R   0.924616 0.430837 0.444520 -0.186652
C6    C     C_R   0.873495 0.519881 0.500654 -0.084854
C7    C     C_R   0.498311 0.814118 0.533756 -0.037161
C8    C     C_R   0.492767 0.185336 0.466094 -0.051330
C9    C     C_R   0.462480 0.012974 0.346595 -0.217211
C10   C     C_R   0.468446 0.121513 0.357015 -0.203779
C11   C     C_R   0.511488 0.139948 0.564707 -0.268926
C12   C     C_R   0.262788 0.500317 0.500640 0.775610
C13   C     C_R   0.506430 0.031629 0.554942 0.177321
C14   C     C_R   0.481511 0.967609 0.445069 0.173642
C15   C     C_R   0.476908 0.859250 0.435350 -0.260676
C16   C     C_R   0.523451 0.878072 0.642609 -0.239500
C17   C     C_R   0.526687 0.986420 0.653288 -0.220623
C18   C     C_R   0.390893 0.394188 0.018450 -0.356535
C19   C     C_R   0.393696 0.406351 0.139915 0.283291
C20   C     C_R   0.551743 0.547373 0.156175 0.308003
C21   C     C_R   0.542810 0.539986 0.032922 0.069748
C22   C     C_R   0.462492 0.461320 0.964593 0.001433
C23   C     C_R   0.497784 0.700491 0.521431 0.781711
C24   C     C_R   0.454126 0.451833 0.842744 0.046870
C25   C     C_R   0.601341 0.596810 0.854508 0.083297
C26   C     C_R   0.612828 0.608608 0.975072 -0.319722
C27   C     C_R   0.738028 0.510011 0.500866 0.800971
C28   C     C_R   0.164759 0.686065 0.622097 -0.218481
C29   C     C_R   0.120545 0.778051 0.677790 0.100764
C30   C     C_R   0.994415 0.789820 0.666872 -0.144333
C31   C     C_R   0.910831 0.709421 0.605032 0.124108
C32   C     C_R   0.952808 0.610028 0.557223 0.077746
Cu1   Cu    Cu3+1 0.509250 0.507730 0.615930 0.927292
Cu2   Cu    Cu3+1 0.490750 0.492270 0.384070 0.924227
H1    H     H_    0.088546 0.355634 0.403568 0.145962
H2    H     H_    0.545928 0.034710 0.738010 0.138080
H3    H     H_    0.453437 0.155290 0.279934 0.151201
H4    H     H_    0.530608 0.188701 0.649261 0.154282
H5    H     H_    0.391666 0.391173 0.789851 0.115818
H6    H     H_    0.655253 0.650238 0.812428 0.112906
H7    H     H_    0.329730 0.332453 0.965262 0.148226
H8    H     H_    0.676289 0.672134 0.020847 0.147446
H9    H     H_    0.263871 0.681989 0.626397 0.159944
H10   H     H_    0.961420 0.863896 0.705296 0.134650
H11   H     H_    0.865440 0.362859 0.401311 0.149797
H12   H     H_    0.457504 0.810322 0.350940 0.156686
H13   H     H_    0.541157 0.844445 0.719453 0.157846
H14   H     H_    0.443390 0.964688 0.261841 0.135187
N1    N     N_R   0.523180 0.519350 0.790130 -0.180580
N2    N     N_R   0.476820 0.480650 0.209890 -0.189972
O1    O     O_R   0.506570 0.354460 0.582000 -0.583323
O2    O     O_R   0.490940 0.341410 0.386200 -0.605889
O3    O     O_R   0.327470 0.506530 0.597920 -0.583866
O4    O     O_R   0.311840 0.493480 0.402120 -0.590179
O5    O     O_R   0.509060 0.658590 0.613800 -0.608318
O6    O     O_R   0.493430 0.645540 0.418000 -0.587703
O7    O     O_R   0.688160 0.506520 0.597880 -0.571202
O8    O     O_R   0.672530 0.493470 0.402080 -0.583596
C33   C     C_3   0.302486 0.331282 0.184342 -0.371405
C34   C     C_3   0.166690 0.350330 0.153287 -0.372955
C35   C     C_3   0.079265 0.254097 0.159038 -0.868811
H15   H     H_    0.094630 0.189181 0.087916 0.255553
H16   H     H_    0.095246 0.226837 0.242569 0.247714
H17   H     H_    0.981511 0.273802 0.149474 0.251502
H18   H     H_    0.139776 0.418879 0.214144 0.240250
H19   H     H_    0.153728 0.368507 0.064838 0.221974
H20   H     H_    0.320802 0.250081 0.144989 0.171199
H21   H     H_    0.312001 0.334372 0.277540 0.238654
C36   C     C_3   0.646813 0.630204 0.222813 -0.800887
H22   H     H_    0.660107 0.632246 0.314768 0.272372
H23   H     H_    0.739616 0.617403 0.190283 0.198996
H24   H     H_    0.620773 0.709232 0.211443 0.193308
C37   C     C_3   0.208453 0.866351 0.743931 -0.404346
C38   C     C_3   0.188825 0.884574 0.873471 -0.336882
C39   C     C_3   0.280113 0.972302 0.939955 -0.867524
H25   H     H_    0.377104 0.951845 0.929163 0.252190
H26   H     H_    0.266991 0.047007 0.908516 0.252225
H27   H     H_    0.264059 0.983730 0.033336 0.240061
H28   H     H_    0.092868 0.906274 0.887919 0.212560
H29   H     H_    0.202318 0.811255 0.907884 0.226260
H30   H     H_    0.305792 0.847989 0.732821 0.209480
H31   H     H_    0.194556 0.939144 0.708591 0.200605
C40   C     C_3   0.781135 0.737507 0.587213 -0.876645
H32   H     H_    0.746824 0.712037 0.495709 0.215867
H33   H     H_    0.725359 0.702042 0.647465 0.250924
H34   H     H_    0.773694 0.823550 0.606964 0.230054

loop_
_geom_bond_atom_site_label_1
_geom_bond_atom_site_label_2
_ccdc_geom_bond_type
Cu1   O5    S    
C6    C32   A    
C21   C26   A    
Cu2   O6    S    
C36   H24   S    
C1    C8    S    
C37   C38   S    
C9    C14   A    
C23   O6    A    
C10   H3    S    
C28   C29   A    
C25   H6    S    
C5    C6    A    
C29   C37   S    
Cu1   N1    S    
C24   H5    S    
C31   C40   S    
C2    C32   A    
C18   C19   A    
C36   H23   S    
C20   N2    A    
C3    C12   S    
C33   H20   S    
C40   H32   S    
C16   C17   A    
C17   H2    S    
C9    C10   A    
C12   O3    A    
C7    C15   A    
C4    H1    S    
C34   H19   S    
C33   C34   S    
C38   H29   S    
C13   C14   A    
C30   H10   S    
C36   H22   S    
C16   H13   S    
C37   H30   S    
C1    O2    A    
Cu1   O3    S    
Cu2   N2    S    
C38   C39   S    
C27   O7    A    
C18   H7    S    
C19   C33   S    
C25   C26   A    
C5    H11   S    
C34   C35   S    
C35   H17   S    
C39   H25   S    
C29   C30   A    
C33   H21   S    
C39   H26   S    
C6    C27   S    
C35   H16   S    
Cu1   Cu2   S    
C1    O1    A    
C7    C16   A    
C40   H33   S    
C34   H18   S    
Cu2   O4    S    
C38   H28   S    
C22   C24   A    
C20   C36   S    
C3    C4    A    
C37   H31   S    
C26   H8    S    
C24   N1    A    
Cu1   O7    S    
C18   C22   A    
C31   C32   A    
C4    C5    A    
C27   O8    A    
C23   O5    A    
Cu1   O1    S    
C28   H9    S    
Cu2   O2    S    
C13   C17   A    
C2    C3    A    
C11   C13   A    
C19   N2    A    
C30   C31   A    
C8    C11   A    
C7    C23   S    
C35   H15   S    
C39   H27   S    
C25   N1    A    
C40   H34   S    
C20   C21   A    
C9    H14   S    
C8    C10   A    
Cu2   O8    S    
C14   C15   A    
C11   H4    S    
C2    C28   A    
C15   H12   S    
C21   C22   A    
C12   O4    A    
