data_mof_unit_68180.cif
_audit_creation_date              2012-12-11T16:30:32-0500
_audit_creation_method            fapswitch 2.2
_symmetry_space_group_name_H-M    P1
_symmetry_Int_Tables_number       1
_space_group_crystal_system       triclinic
_cell_length_a                    7.022704
_cell_length_b                    14.244162
_cell_length_c                    16.648705
_cell_angle_alpha                 90.000028
_cell_angle_beta                  91.02105
_cell_angle_gamma                 90.000064
_cell_volume                      1665.14769876

loop_
_atom_site_label
_atom_site_type_symbol
_atom_type_description
_atom_site_fract_x
_atom_site_fract_y
_atom_site_fract_z
_atom_type_partial_charge
O1    O     O_R   0.611670 0.415650 0.164070 -0.528586
O2    O     O_R   0.388330 0.915650 0.835930 -0.528587
O3    O     O_R   0.940950 0.405490 0.337780 -0.524729
O4    O     O_R   0.059050 0.905490 0.662220 -0.524726
O5    O     O_R   0.111350 0.584350 0.338470 -0.543012
O6    O     O_R   0.888650 0.084350 0.661530 -0.543018
C1    C     C_R   0.771428 0.382622 0.366302 0.832560
C2    C     C_R   0.228572 0.882621 0.633698 0.832556
O7    O     O_R   0.941380 0.404630 0.164680 -0.517578
O8    O     O_R   0.058620 0.904630 0.835320 -0.517577
O9    O     O_R   0.111780 0.583470 0.164130 -0.520862
O10   O     O_R   0.888220 0.083470 0.835870 -0.520862
C3    C     C_R   0.767144 0.371420 0.146118 0.733416
C4    C     C_R   0.232856 0.871421 0.853882 0.733412
O11   O     O_R   0.611240 0.416530 0.338400 -0.543289
O12   O     O_R   0.388760 0.916530 0.661600 -0.543290
O13   O     O_3   0.778020 0.558680 0.251290 -0.355520
O14   O     O_3   0.221980 0.058680 0.748710 -0.355521
V1    V     V_3+5 0.052840 0.489110 0.251260 1.593759
V2    V     V_3+5 0.947160 0.989110 0.748740 1.593756
O15   O     O_R   0.441500 0.594510 0.164760 -0.515521
O16   O     O_R   0.558500 0.094510 0.835240 -0.515522
C5    C     C_R   0.268398 0.620599 0.138071 0.843254
C6    C     C_R   0.731602 0.120599 0.861929 0.843254
O17   O     O_R   0.441080 0.595370 0.337860 -0.524124
O18   O     O_R   0.558920 0.095370 0.662140 -0.524123
C7    C     C_R   0.273615 0.617329 0.367059 0.753331
C8    C     C_R   0.726385 0.117329 0.632941 0.753341
V3    V     V_3+5 0.552850 0.510890 0.251270 1.585198
V4    V     V_3+5 0.447150 0.010890 0.748730 1.585194
O19   O     O_3   0.277800 0.441320 0.251250 -0.363563
O20   O     O_3   0.722200 0.941320 0.748750 -0.363564
C9    C     C_3   0.151840 0.643764 0.511802 0.487438
C10   C     C_3   0.848157 0.143764 0.488198 0.487414
C11   C     C_3   0.131403 0.718173 0.583387 0.571934
C12   C     C_3   0.868587 0.218172 0.416611 0.571925
H1    H     H_    0.009476 0.755878 0.406280 0.184241
H2    H     H_    0.990526 0.255877 0.593721 0.184243
C13   C     C_3   0.156319 0.778684 0.414307 -0.020818
C14   C     C_3   0.843684 0.278684 0.585694 -0.020820
C15   C     C_3   0.467616 0.717378 0.469345 0.073937
C16   C     C_3   0.532383 0.217381 0.530656 0.073929
C17   C     C_3   0.265118 0.687648 0.438610 -0.323898
C18   C     C_3   0.734882 0.187648 0.561391 -0.323868
H3    H     H_    0.548739 0.653156 0.484703 0.156072
H4    H     H_    0.451258 0.153159 0.515298 0.156084
C19   C     C_3   0.244132 0.811394 0.563157 -0.245254
C20   C     C_3   0.755868 0.311395 0.436844 -0.245256
C21   C     C_3   0.166006 0.856344 0.481897 0.472099
C22   C     C_3   0.834000 0.356344 0.518104 0.472089
C23   C     C_3   0.456099 0.778908 0.547101 0.119749
C24   C     C_3   0.543900 0.278911 0.452900 0.119749
H5    H     H_    0.506940 0.733330 0.596854 0.103547
H6    H     H_    0.493056 0.233334 0.403147 0.103564
H7    H     H_    0.512602 0.546785 0.786998 0.192312
H8    H     H_    0.487395 0.046785 0.213001 0.192311
C25   C     C_R   0.183507 0.934439 0.013009 -0.232277
C26   C     C_R   0.816492 0.434439 0.986991 -0.232278
C27   C     C_R   0.089884 0.966292 0.081088 0.394424
C28   C     C_R   0.910116 0.466292 0.918913 0.394424
C29   C     C_R   0.997538 0.900460 0.127708 -0.081603
C30   C     C_R   0.002464 0.400459 0.872294 -0.081605
C31   C     C_R   0.027157 0.804218 0.115499 0.091790
C32   C     C_R   0.972845 0.304217 0.884502 0.091788
C33   C     C_R   0.165584 0.772862 0.061535 0.005849
C34   C     C_R   0.834417 0.272861 0.938466 0.005849
C35   C     C_R   0.206669 0.836898 0.999186 0.004495
C36   C     C_R   0.793332 0.336898 0.000814 0.004495
C37   C     C_R   0.245569 0.680058 0.061529 -0.140473
C38   C     C_R   0.754431 0.180057 0.938472 -0.140472
C39   C     C_R   0.309408 0.644946 0.986358 0.042943
C40   C     C_R   0.690591 0.144946 0.013642 0.042942
C41   C     C_R   0.326404 0.707639 0.918140 -0.000171
C42   C     C_R   0.673595 0.207639 0.081860 -0.000177
C43   C     C_R   0.259931 0.803638 0.923663 -0.103641
C44   C     C_R   0.740068 0.303638 0.076338 -0.103641
C45   C     C_R   0.346906 0.546789 0.976052 0.349976
C46   C     C_R   0.653093 0.046789 0.023948 0.349975
C47   C     C_R   0.411823 0.513611 0.902494 -0.243185
C48   C     C_R   0.588176 0.013611 0.097506 -0.243185
C49   C     C_R   0.447420 0.574526 0.840538 -0.081814
C50   C     C_R   0.552577 0.074526 0.159462 -0.081821
C51   C     C_R   0.415191 0.670381 0.848769 0.133586
C52   C     C_R   0.584806 0.170381 0.151230 0.133601
H9    H     H_    0.236105 0.985928 0.971024 0.134442
H10   H     H_    0.763893 0.485928 0.028976 0.134443
H11   H     H_    0.896757 0.923887 0.171893 0.186160
H12   H     H_    0.103246 0.423887 0.828108 0.186161
H13   H     H_    0.440511 0.439631 0.893673 0.151946
H14   H     H_    0.559488 0.939631 0.106327 0.151947
O21   O     O_3   0.966038 0.619823 0.485385 -0.626326
H15   H     H_    0.968041 0.557225 0.460108 0.347621
O22   O     O_3   0.033965 0.119826 0.514613 -0.626333
H16   H     H_    0.031970 0.057231 0.539894 0.347612
O23   O     O_3   0.581051 0.855490 0.542789 -0.603958
H17   H     H_    0.662598 0.856488 0.592106 0.341990
O24   O     O_3   0.418953 0.355495 0.457213 -0.603961
H18   H     H_    0.337401 0.356491 0.407897 0.341983
I1    I     I_    0.188333 0.826845 0.293851 -0.292682
I2    I     I_    0.811670 0.326844 0.706150 -0.292671
I3    I     I_    0.330391 0.977780 0.444604 -0.238883
I4    I     I_    0.669621 0.477781 0.555399 -0.238870
O25   O     O_3   0.069049 0.060412 0.098286 -0.622935
H19   H     H_    0.141044 0.097544 0.058596 0.303549
O26   O     O_3   0.930951 0.560412 0.901714 -0.622933
H20   H     H_    0.858955 0.597544 0.941404 0.303549
I5    I     I_    0.783674 0.724901 0.136190 -0.367468
I6    I     I_    0.216328 0.224901 0.863811 -0.367472
O27   O     O_3   0.306581 0.482749 0.035864 -0.641733
H21   H     H_    0.338812 0.418269 0.018121 0.296936
O28   O     O_3   0.693420 0.982749 0.964136 -0.641733
H22   H     H_    0.661177 0.918269 0.981877 0.296937
O29   O     O_3   0.244534 0.562400 0.540876 -0.610931
H23   H     H_    0.266939 0.519741 0.495102 0.334632
O30   O     O_3   0.755457 0.062400 0.459128 -0.610962
H24   H     H_    0.733110 0.019729 0.504895 0.334663
I7    I     I_    0.586908 0.744151 0.769182 -0.352618
I8    I     I_    0.413091 0.244151 0.230818 -0.352609
O31   O     O_3   0.194514 0.682255 0.658815 -0.627279
H25   H     H_    0.312379 0.645164 0.653795 0.326686
O32   O     O_3   0.805456 0.182256 0.341184 -0.627286
H26   H     H_    0.687604 0.145153 0.346210 0.326697
O33   O     O_3   0.938016 0.740617 0.592853 -0.631769
H27   H     H_    0.874637 0.685866 0.617937 0.365522
O34   O     O_3   0.061974 0.240613 0.407137 -0.631774
H28   H     H_    0.125343 0.185859 0.382052 0.365523
O35   O     O_3   0.987027 0.896952 0.493142 -0.631414
H29   H     H_    0.890566 0.847554 0.492179 0.363112
O36   O     O_3   0.012983 0.396948 0.506861 -0.631385
H30   H     H_    0.109435 0.347542 0.507809 0.363102
I9    I     I_    0.637117 0.779431 0.374943 -0.220606
I10   I     I_    0.362883 0.279435 0.625058 -0.220593

loop_
_geom_bond_atom_site_label_1
_geom_bond_atom_site_label_2
_ccdc_geom_bond_type
C34   C36   A    
C31   C33   A    
O22   H16   S    
O13   V3    S    
C5    C37   S    
C11   O31   S    
O23   H17   S    
C10   O22   S    
O4    C2    A    
V1    O19   S    
O24   H18   S    
C6    C38   S    
O33   H27   S    
C19   C21   S    
O9    V1    S    
C42   C44   A    
O36   H30   S    
O3    C1    A    
C9    O21   S    
C21   I3    S    
C46   C48   A    
C25   C27   A    
O12   V4    S    
O30   H24   S    
C24   O24   S    
C28   C30   A    
C16   H4    S    
C29   C31   A    
O7    C3    A    
C30   C32   A    
C29   H11   S    
C9    C11   S    
O5    C7    A    
O7    V1    S    
O6    C8    A    
C12   O34   S    
O8    V2    S    
C33   C35   A    
C40   C46   A    
O3    V1    S    
C46   O28   S    
O14   V4    S    
H7    C49   S    
C10   C12   S    
C20   C22   S    
C11   C19   S    
C2    O12   A    
C15   C17   S    
C16   C18   S    
C25   C35   A    
C26   H10   S    
C49   C51   A    
C24   H6    S    
O11   V3    S    
C45   C47   A    
O17   V3    S    
C21   O35   S    
C27   C29   A    
C37   C39   A    
C9    C17   S    
C10   C18   S    
C40   C42   A    
O8    C4    A    
O21   H15   S    
C15   I9    S    
C19   C23   S    
C1    O11   A    
C10   O30   S    
C30   H12   S    
C8    C18   S    
C23   H5    S    
C32   C34   A    
C22   O36   S    
C13   I1    S    
C3    C44   S    
C14   C18   S    
O10   V2    S    
O1    V3    S    
C14   C22   S    
C45   O27   S    
O32   H26   S    
H8    C50   S    
C48   C50   A    
C13   C21   S    
O18   V4    S    
C50   C52   A    
O15   C5    A    
C52   I8    S    
O34   H28   S    
O16   C6    A    
O1    C3    A    
C41   C43   A    
C31   I5    S    
O35   H29   S    
C39   C45   A    
C39   C41   A    
O29   H23   S    
V2    O20   S    
C26   C36   A    
V4    O20   S    
O16   V4    S    
O28   H22   S    
C38   C40   A    
C9    O29   S    
C42   C52   A    
C14   I2    S    
C13   C17   S    
O31   H25   S    
C47   C49   A    
C22   I4    S    
O5    V1    S    
C15   C23   S    
C36   C44   A    
O6    V2    S    
O26   H20   S    
O10   C6    A    
O18   C8    A    
O2    V4    S    
C27   O25   S    
C4    C43   S    
C51   I7    S    
C11   O33   S    
C12   O32   S    
C2    C19   S    
H1    C13   S    
O27   H21   S    
C1    C20   S    
H2    C14   S    
C34   C38   A    
O15   V3    S    
C33   C37   A    
O9    C5    A    
O13   V1    S    
C25   H9    S    
C12   C20   S    
O14   V2    S    
C48   H14   S    
O2    C4    A    
C47   H13   S    
O4    V2    S    
C7    C17   S    
C20   C24   S    
C35   C43   A    
V3    O19   S    
C23   O23   S    
O25   H19   S    
C15   H3    S    
C16   I10   S    
C26   C28   A    
C41   C51   A    
C28   O26   S    
C32   I6    S    
C16   C24   S    
O17   C7    A    
