data_mof_unit_28585.cif
_audit_creation_date              2012-12-10T18:57:38-0500
_audit_creation_method            fapswitch 2.2
_symmetry_space_group_name_H-M    P1
_symmetry_Int_Tables_number       1
_space_group_crystal_system       triclinic
_cell_length_a                    10.908227
_cell_length_b                    10.949303
_cell_length_c                    9.533996
_cell_angle_alpha                 90.035829
_cell_angle_beta                  89.201408
_cell_angle_gamma                 90.477316
_cell_volume                      1138.56621664

loop_
_atom_site_label
_atom_site_type_symbol
_atom_type_description
_atom_site_fract_x
_atom_site_fract_y
_atom_site_fract_z
_atom_type_partial_charge
C1    C     C_R   0.502093 0.262710 0.499001 0.812033
C2    C     C_R   0.503697 0.130046 0.493309 -0.191665
C3    C     C_R   0.503194 0.064196 0.363998 -0.040834
C4    C     C_R   0.497854 0.935675 0.363527 0.088163
C5    C     C_R   0.499312 0.869780 0.493143 -0.155842
C6    C     C_R   0.502812 0.938222 0.615399 0.064096
C7    C     C_3   0.511484 0.929930 0.771451 -0.059826
C8    C     C_3   0.512906 0.071409 0.771223 -0.248221
C9    C     C_R   0.568069 0.584254 0.072583 0.233745
C10   C     C_R   0.421904 0.427047 0.075667 -0.031599
C11   C     C_R   0.422661 0.426193 0.926641 -0.055479
C12   C     C_R   0.265216 0.495966 0.501144 0.858866
C13   C     C_R   0.568001 0.584287 0.925199 0.291559
C14   C     C_3   0.703621 0.601813 0.917078 -0.498559
C15   C     C_3   0.703674 0.601930 0.076107 -0.493146
C16   C     C_R   0.499582 0.737296 0.498950 0.820220
C17   C     C_R   0.734761 0.497497 0.498902 0.847633
C18   C     C_2   0.935127 0.441818 0.397395 0.012856
C19   C     C_2   0.867463 0.500294 0.495795 -0.359159
C20   C     C_2   0.068852 0.456762 0.391909 -0.196014
C21   C     C_2   0.133234 0.482789 0.506669 -0.336411
C22   C     C_R   0.504734 0.061619 0.615536 0.005559
Cu1   Cu    Cu3+1 0.499990 0.499980 0.640670 0.964474
Cu2   Cu    Cu3+1 0.500010 0.500020 0.359330 0.953900
H1    H     H_    0.360488 0.366220 0.132600 0.137219
H2    H     H_    0.362368 0.364228 0.871596 0.131526
H3    H     H_    0.752127 0.521866 0.871573 0.231953
H4    H     H_    0.729836 0.691532 0.870632 0.185411
H5    H     H_    0.751912 0.522241 0.120103 0.239008
H6    H     H_    0.730529 0.691558 0.121433 0.186919
H7    H     H_    0.909539 0.557219 0.575077 0.138900
H8    H     H_    0.115536 0.441945 0.291888 0.165794
H9    H     H_    0.089986 0.487125 0.609667 0.155428
H10   H     H_    0.597094 0.885299 0.806488 0.155091
H11   H     H_    0.431756 0.115816 0.820503 0.156050
N1    N     N_R   0.500780 0.500930 0.147930 -0.186431
N2    N     N_R   0.500780 0.500890 0.852020 -0.187766
O1    O     O_R   0.500000 0.319640 0.618810 -0.580648
O2    O     O_R   0.500010 0.319680 0.381230 -0.581945
O3    O     O_R   0.321940 0.499980 0.618760 -0.585913
O4    O     O_R   0.321950 0.500020 0.381180 -0.588335
O5    O     O_R   0.499990 0.680320 0.618770 -0.559485
O6    O     O_R   0.500000 0.680360 0.381190 -0.601304
O7    O     O_R   0.678050 0.499980 0.618820 -0.584843
O8    O     O_R   0.678060 0.500020 0.381240 -0.572144
C23   C     C_1   0.880638 0.361582 0.294197 0.246878
N3    N     N_1   0.837284 0.297071 0.212062 -0.270572
C24   C     C_1   0.631056 0.124261 0.813895 0.323758
N4    N     N_1   0.723927 0.166099 0.847396 -0.267358
C25   C     C_1   0.513224 0.123499 0.228401 0.352971
N5    N     N_1   0.522019 0.169279 0.119432 -0.300721
N6    N     N_3   0.491826 0.876422 0.229053 -0.606306
H12   H     H_    0.411996 0.823277 0.223241 0.241630
H13   H     H_    0.570731 0.824917 0.211855 0.239527
N7    N     N_3   0.400616 0.876746 0.835465 -0.562344
H14   H     H_    0.404857 0.891891 0.943535 0.234184
H15   H     H_    0.322860 0.921903 0.799634 0.227519

loop_
_geom_bond_atom_site_label_1
_geom_bond_atom_site_label_2
_ccdc_geom_bond_type
C12   O3    A    
C9    N1    A    
C8    C22   S    
N7    H14   S    
C8    C24   S    
C2    C22   A    
C12   O4    A    
C14   H3    S    
Cu1   O1    S    
C13   N2    A    
C14   C15   S    
C7    N7    S    
Cu1   Cu2   S    
C19   H7    S    
C25   N5    T    
C9    C15   S    
C17   O7    A    
C7    C8    S    
C13   C14   S    
N6    H12   S    
Cu2   O4    S    
C16   O6    A    
Cu2   N1    S    
Cu1   O5    S    
C1    O1    A    
C4    N6    S    
Cu2   O8    S    
C18   C23   S    
C10   H1    S    
C24   N4    T    
C17   C19   S    
C3    C25   S    
N6    H13   S    
C15   H5    S    
C6    C7    S    
C18   C20   S    
N7    H15   S    
C5    C6    A    
C7    H10   S    
C21   H9    S    
C10   C11   A    
C1    O2    A    
C3    C4    A    
C6    C22   A    
C16   O5    A    
Cu2   O2    S    
C20   C21   D    
C15   H6    S    
C1    C2    S    
C20   H8    S    
C11   N2    A    
Cu2   O6    S    
C9    C13   A    
C23   N3    T    
C18   C19   D    
C5    C16   S    
C2    C3    A    
C11   H2    S    
C14   H4    S    
Cu1   N2    S    
C12   C21   S    
Cu1   O7    S    
Cu1   O3    S    
C17   O8    A    
C4    C5    A    
C10   N1    A    
C8    H11   S    
