data_mof_unit_8397.cif
_audit_creation_date              2012-12-11T17:04:54-0500
_audit_creation_method            fapswitch 2.2
_symmetry_space_group_name_H-M    P1
_symmetry_Int_Tables_number       1
_space_group_crystal_system       triclinic
_cell_length_a                    17.444396
_cell_length_b                    24.415321
_cell_length_c                    14.902116
_cell_angle_alpha                 90.097063
_cell_angle_beta                  125.389497
_cell_angle_gamma                 90.22164
_cell_volume                      5174.16503332

loop_
_atom_site_label
_atom_site_type_symbol
_atom_type_description
_atom_site_fract_x
_atom_site_fract_y
_atom_site_fract_z
_atom_type_partial_charge
C1    C     C_R   0.822196 0.637750 0.905854 -0.091273
C2    C     C_R   0.932306 0.500206 0.630782 0.067246
C3    C     C_R   0.770544 0.045908 0.273809 -0.139083
C4    C     C_R   0.853017 0.348506 0.910405 -0.118052
C5    C     C_R   0.149021 0.349467 0.088736 -0.127572
C6    C     C_R   0.350449 0.849224 0.910017 -0.106655
C7    C     C_R   0.646557 0.848754 0.088052 -0.135440
C8    C     C_R   0.914013 0.639875 0.089572 -0.098338
C9    C     C_R   0.097379 0.627547 0.908947 -0.103670
C10   C     C_R   0.408008 0.136152 0.088001 -0.106556
C11   C     C_R   0.594707 0.130101 0.908170 -0.104032
C12   C     C_R   0.830252 0.658178 0.996621 0.034979
C13   C     C_R   0.461307 0.000944 0.287707 0.106341
C14   C     C_R   0.186314 0.641006 0.002008 0.021326
C15   C     C_R   0.319180 0.148448 0.995160 0.028483
C16   C     C_R   0.681190 0.146837 0.000965 0.026226
C17   C     C_2   0.242076 0.742888 0.172269 0.613389
C18   C     C_2   0.764276 0.761729 0.827304 0.587270
C19   C     C_2   0.745116 0.250555 0.172944 0.596078
C20   C     C_2   0.260764 0.248337 0.824621 0.588930
C21   C     C_2   0.817961 0.410233 0.463428 0.466692
C22   C     C_2   0.823524 0.411980 0.266564 0.460222
C23   C     C_2   0.295456 0.921551 0.450479 0.486056
C24   C     C_R   0.430399 0.001865 0.630652 0.077256
C25   C     C_2   0.326772 0.915496 0.270038 0.537025
C26   C     C_R   0.675049 0.499559 0.706550 0.046249
C27   C     C_R   0.311037 0.499000 0.353740 0.039852
C28   C     C_R   0.192431 0.998440 0.642328 0.032050
C29   C     C_R   0.824906 0.000018 0.302048 0.041905
C30   C     C_3   0.499168 0.465343 0.616439 -0.146041
C31   C     C_3   0.465349 0.446889 0.499568 -0.162593
C32   C     C_3   0.037917 0.946044 0.492479 -0.159924
C33   C     C_R   0.190586 0.624574 0.093330 -0.090304
C34   C     C_3   0.998832 0.970204 0.377776 -0.139087
C35   C     C_3   0.434695 0.516380 0.568282 -0.141331
C36   C     C_3   0.543884 0.480516 0.507711 -0.142371
C37   C     C_3   0.961489 0.975382 0.495403 -0.144130
C38   C     C_3   0.062925 0.021503 0.431835 -0.152154
C39   C     C_3   0.403435 0.497909 0.453676 0.179304
C40   C     C_3   0.576193 0.498958 0.622786 0.173757
C41   C     C_3   0.924084 0.999513 0.382727 0.171205
C42   C     C_3   0.099342 0.997336 0.544224 0.174191
C43   C     C_3   0.481036 0.531379 0.461040 -0.149041
C44   C     C_R   0.312127 0.128129 0.904802 -0.077767
C45   C     C_3   0.514123 0.549953 0.577101 -0.160771
C46   C     C_3   0.985705 0.050782 0.434171 -0.162795
C47   C     C_3   0.023824 0.026547 0.547830 -0.133509
C48   C     C_R   0.886930 0.239149 0.107586 0.160025
C49   C     C_R   0.117225 0.241328 0.889242 0.152094
C50   C     C_R   0.384506 0.739031 0.107038 0.162145
C51   C     C_R   0.619068 0.743541 0.887855 0.158209
C52   C     C_R   0.865777 0.260012 0.008271 0.041661
C53   C     C_R   0.138279 0.262107 0.988805 0.048187
C54   C     C_R   0.361509 0.760679 0.007493 0.042363
C55   C     C_R   0.685575 0.130864 0.092434 -0.093154
C56   C     C_R   0.635901 0.762196 0.986768 0.045081
C57   C     C_R   0.806398 0.229252 0.911369 -0.198545
C58   C     C_R   0.195883 0.231129 0.085050 -0.203554
C59   C     C_R   0.304398 0.729201 0.911022 -0.200377
C60   C     C_R   0.696228 0.732047 0.083261 -0.201461
C61   C     C_R   0.948434 0.348776 0.093082 -0.116982
C62   C     C_R   0.054439 0.349979 0.905276 -0.144232
C63   C     C_R   0.445552 0.849331 0.093072 -0.112565
C64   C     C_R   0.551584 0.849552 0.904903 -0.147791
C65   C     C_R   0.253985 0.684468 0.911100 -0.167449
C66   C     C_R   0.886357 0.317015 0.003069 0.074928
C67   C     C_R   0.757451 0.694570 0.085842 -0.170319
C68   C     C_R   0.751220 0.187224 0.910328 -0.167431
C69   C     C_R   0.249933 0.188927 0.085655 -0.163967
C70   C     C_R   0.259777 0.672178 0.007035 0.032797
C71   C     C_R   0.756655 0.687483 0.991826 0.033356
C72   C     C_R   0.755259 0.176904 0.005759 0.032333
C73   C     C_R   0.245877 0.178513 0.990258 0.034284
C74   C     C_R   0.331511 0.696984 0.106158 0.034713
C75   C     C_R   0.680622 0.707521 0.891192 0.036242
C76   C     C_R   0.829570 0.199802 0.105582 0.033762
C77   C     C_R   0.117315 0.318674 0.995008 0.068616
C78   C     C_R   0.172468 0.201071 0.890602 0.035795
C79   C     C_3   0.334716 0.721192 0.201497 -0.256398
C80   C     C_3   0.674580 0.734078 0.796417 -0.247298
C81   C     C_3   0.835415 0.225161 0.201708 -0.248787
C82   C     C_3   0.168489 0.225460 0.795321 -0.245809
C83   C     C_3   0.900599 0.267392 0.205635 -0.609811
C84   C     C_3   0.106412 0.269362 0.792826 -0.597146
C85   C     C_3   0.395407 0.766369 0.204098 -0.617221
C86   C     C_3   0.606240 0.773691 0.791922 -0.610005
C87   C     C_R   0.916163 0.550430 0.482029 0.165598
C88   C     C_R   0.382057 0.817920 0.002679 0.070433
C89   C     C_R   0.921968 0.550597 0.393761 0.105278
C90   C     C_R   0.417106 0.054124 0.484175 0.180711
C91   C     C_R   0.426853 0.053529 0.399888 0.136424
C92   C     C_R   0.897304 0.502041 0.514860 -0.068873
C93   C     C_R   0.908395 0.502436 0.336218 0.018245
C94   C     C_R   0.395625 0.006070 0.515526 -0.081039
C95   C     C_R   0.415315 0.004753 0.344043 -0.013933
C96   C     C_R   0.863770 0.455531 0.444179 -0.130269
C97   C     C_R   0.867861 0.456114 0.351466 -0.068105
C98   C     C_R   0.353652 0.962040 0.439138 -0.152178
C99   C     C_R   0.613194 0.817938 0.994025 0.074518
C100  C     C_R   0.364997 0.960953 0.351345 -0.076683
C101  C     C_3   0.862556 0.600716 0.346349 -0.486409
C102  C     C_3   0.855910 0.600408 0.442364 -0.486728
C103  C     C_3   0.507332 0.093686 0.457801 -0.513339
C104  C     C_3   0.496347 0.094215 0.550469 -0.500869
C105  C     C_R   0.987301 0.545917 0.256576 -0.142995
C106  C     C_R   0.949254 0.545882 0.695090 -0.134608
C107  C     C_R   0.489733 0.046172 0.258428 -0.141707
C108  C     C_R   0.446568 0.046642 0.695360 -0.142564
C109  C     C_R   0.731009 0.453862 0.741536 -0.133120
C110  C     C_R   0.955177 0.500222 0.280721 0.103915
C111  C     C_R   0.260691 0.453748 0.294887 -0.126751
C112  C     C_R   0.241065 0.953466 0.702264 -0.120688
C113  C     C_R   0.768903 0.954092 0.262805 -0.142271
C114  C     C_R   0.984683 0.454382 0.253370 -0.068717
C115  C     C_R   0.951539 0.454742 0.695767 -0.138609
C116  C     C_R   0.488395 0.954694 0.258072 -0.074107
C117  C     C_R   0.449825 0.955604 0.694122 -0.138352
C118  C     C_R   0.729477 0.545706 0.733552 -0.133044
C119  C     C_R   0.261243 0.545515 0.300670 -0.164931
C120  C     C_R   0.240849 0.045144 0.697718 -0.160136
H1    H     H_    0.510058 0.438608 0.683041 0.127651
H2    H     H_    0.208208 0.243306 0.162242 0.124679
H3    H     H_    0.290166 0.742336 0.833465 0.126110
H4    H     H_    0.705494 0.742338 0.159639 0.127752
H5    H     H_    0.203261 0.664041 0.833892 0.124819
H6    H     H_    0.810374 0.675612 0.163130 0.121776
H7    H     H_    0.699026 0.167527 0.832825 0.125518
H8    H     H_    0.301317 0.168987 0.162732 0.124503
H9    H     H_    0.373131 0.695140 0.276382 0.160859
H10   H     H_    0.641071 0.707280 0.722200 0.158001
H11   H     H_    0.871236 0.198625 0.275939 0.160621
H12   H     H_    0.444021 0.404624 0.466172 0.113506
H13   H     H_    0.130826 0.198815 0.720745 0.162661
H14   H     H_    0.974092 0.263672 0.280065 0.201978
H15   H     H_    0.032856 0.266998 0.717892 0.215328
H16   H     H_    0.469211 0.764869 0.278580 0.200093
H17   H     H_    0.533634 0.768872 0.716021 0.206651
H18   H     H_    0.872477 0.309781 0.188775 0.202836
H19   H     H_    0.137805 0.311219 0.812359 0.196290
H20   H     H_    0.363174 0.807748 0.185249 0.203774
H21   H     H_    0.632403 0.816730 0.810948 0.197759
H22   H     H_    0.794116 0.592915 0.265933 0.208862
H23   H     H_    0.061106 0.903129 0.517771 0.117652
H24   H     H_    0.892062 0.636004 0.498555 0.187302
H25   H     H_    0.489454 0.133785 0.414969 0.190226
H26   H     H_    0.558223 0.076693 0.627617 0.203812
H27   H     H_    0.999846 0.334804 0.175975 0.095029
H28   H     H_    0.004973 0.336181 0.821422 0.113563
H29   H     H_    0.495626 0.835155 0.176153 0.094891
H30   H     H_    0.501177 0.836060 0.821008 0.109927
H31   H     H_    0.984397 0.587492 0.277601 0.100182
H32   H     H_    0.930584 0.587650 0.666947 0.103005
H33   H     H_    0.485053 0.087906 0.275282 0.104308
H34   H     H_    0.984892 0.947396 0.305169 0.129562
H35   H     H_    0.424417 0.088216 0.667778 0.108254
H36   H     H_    0.709246 0.411380 0.724951 0.104027
H37   H     H_    0.275600 0.411265 0.319257 0.090899
H38   H     H_    0.226158 0.910883 0.677633 0.090760
H39   H     H_    0.790140 0.911663 0.278633 0.104542
H40   H     H_    0.975965 0.411842 0.265441 0.097351
H41   H     H_    0.939776 0.412195 0.671418 0.115480
H42   H     H_    0.480475 0.912255 0.271673 0.086443
H43   H     H_    0.435968 0.913438 0.666640 0.095580
H44   H     H_    0.813185 0.334329 0.826055 0.085002
H45   H     H_    0.471313 0.558275 0.395174 0.115292
H46   H     H_    0.189606 0.335363 0.172898 0.086669
H47   H     H_    0.309814 0.835243 0.825499 0.083600
H48   H     H_    0.686914 0.834409 0.172041 0.088193
H49   H     H_    0.946809 0.654382 0.172558 0.093157
H50   H     H_    0.069981 0.634406 0.823757 0.097469
H51   H     H_    0.439768 0.153054 0.169101 0.093125
H52   H     H_    0.567209 0.136238 0.822736 0.095978
H53   H     H_    0.386643 0.530928 0.589265 0.119709
H54   H     H_    0.590964 0.465915 0.485244 0.115494
H55   H     H_    0.917532 0.956727 0.519175 0.122608
H56   H     H_    0.535579 0.592139 0.611023 0.111886
H57   H     H_    0.108003 0.039993 0.409564 0.118430
H58   H     H_    0.770743 0.647634 0.821381 0.106093
H59   H     H_    0.249836 0.627237 0.178090 0.106768
H60   H     H_    0.253307 0.130435 0.819714 0.104800
H61   H     H_    0.740728 0.139163 0.176328 0.107076
H62   H     H_    0.196542 0.765970 0.097041 0.031157
H63   H     H_    0.804482 0.786884 0.901099 0.021295
H64   H     H_    0.701847 0.274258 0.098081 0.029467
H65   H     H_    0.305025 0.272816 0.898723 0.018922
H66   H     H_    0.776077 0.419695 0.493908 0.017840
H67   H     H_    0.963006 0.093749 0.408647 0.111854
H68   H     H_    0.819855 0.370159 0.287464 0.102119
H69   H     H_    0.275258 0.930590 0.505468 0.020069
H70   H     H_    0.332913 0.873367 0.295929 0.072745
H71   H     H_    0.903015 0.636355 0.347637 0.179404
H72   H     H_    0.783596 0.592194 0.418661 0.198168
H73   H     H_    0.575341 0.075825 0.481861 0.204890
H74   H     H_    0.471916 0.134347 0.560138 0.187588
H75   H     H_    0.705113 0.586256 0.701686 0.091645
H76   H     H_    0.277697 0.586957 0.332562 0.117397
H77   H     H_    0.225046 0.086617 0.666841 0.112271
H78   H     H_    0.036322 0.049538 0.619620 0.120179
H79   H     H_    0.794049 0.086332 0.308716 0.099808
H80   H     H_    0.793599 0.241601 0.834119 0.128003
N1    N     N_R   0.892620 0.603790 0.941770 -0.042689
N2    N     N_R   0.973690 0.529110 0.793240 -0.044177
N3    N     N_R   0.526310 0.029110 0.206760 -0.045368
N4    N     N_R   0.473690 0.029110 0.793240 -0.042653
N5    N     N_R   0.818570 0.472310 0.793020 -0.042153
N6    N     N_R   0.181430 0.472310 0.206980 -0.041026
N7    N     N_R   0.318570 0.972310 0.793020 -0.036514
N8    N     N_R   0.681430 0.972310 0.206980 -0.042516
N9    N     N_R   0.026930 0.472300 0.207330 -0.053153
N10   N     N_R   0.973070 0.472300 0.792670 -0.043553
N11   N     N_R   0.526930 0.972300 0.207330 -0.050997
N12   N     N_R   0.107380 0.603790 0.058230 -0.040427
N13   N     N_R   0.473070 0.972300 0.792670 -0.041392
N14   N     N_R   0.817960 0.529130 0.792460 -0.039926
N15   N     N_R   0.182040 0.529130 0.207540 -0.039743
N16   N     N_R   0.317960 0.029130 0.792460 -0.036944
N17   N     N_R   0.682040 0.029130 0.207540 -0.040316
N18   N     N_R   0.894850 0.397640 0.943830 -0.035839
N19   N     N_R   0.105150 0.397640 0.056170 -0.041639
N20   N     N_R   0.394850 0.897640 0.943830 -0.037782
N21   N     N_R   0.605150 0.897640 0.056170 -0.040661
N22   N     N_R   0.950040 0.603780 0.055950 -0.039723
N23   N     N_R   0.392620 0.103790 0.941770 -0.042049
N24   N     N_R   0.049960 0.603780 0.944050 -0.044181
N25   N     N_R   0.450040 0.103780 0.055950 -0.040724
N26   N     N_R   0.549960 0.103780 0.944050 -0.042953
N27   N     N_R   0.607380 0.103790 0.058230 -0.042155
N28   N     N_R   0.952270 0.397640 0.058010 -0.034626
N29   N     N_R   0.047730 0.397640 0.941990 -0.041402
N30   N     N_R   0.452270 0.897640 0.058010 -0.035466
N31   N     N_R   0.547730 0.897640 0.941990 -0.040964
N32   N     N_R   0.026310 0.529110 0.206760 -0.044024
Ni1   Ni    Ni4+2 0.934160 0.565860 0.869070 0.232109
Ni2   Ni    Ni4+2 0.065840 0.565860 0.130930 0.244888
Ni3   Ni    Ni4+2 0.434160 0.065860 0.869070 0.235751
Ni4   Ni    Ni4+2 0.565840 0.065860 0.130930 0.241914
Ni5   Ni    Ni4+2 0.067260 0.435560 0.132230 0.209815
Ni6   Ni    Ni4+2 0.932740 0.435560 0.867770 0.210128
Ni7   Ni    Ni4+2 0.567260 0.935560 0.132230 0.210657
Ni8   Ni    Ni4+2 0.432740 0.935560 0.867770 0.208804
O1    O     O_2   0.217858 0.734799 0.233287 -0.580171
O2    O     O_2   0.792251 0.756018 0.769434 -0.596974
O3    O     O_2   0.720381 0.244859 0.234028 -0.576588
O4    O     O_2   0.286307 0.239471 0.765131 -0.600455
O5    O     O_2   0.830548 0.362338 0.452097 -0.587517
O6    O     O_2   0.788407 0.422432 0.170020 -0.587172
O7    O     O_2   0.267958 0.878597 0.398931 -0.587956
O8    O     O_2   0.288303 0.924934 0.172426 -0.584419

loop_
_geom_bond_atom_site_label_1
_geom_bond_atom_site_label_2
_ccdc_geom_bond_type
N6    N15   A    
C71   C75   A    
C105  C110  A    
C84   H15   S    
C119  N15   A    
C101  C102  S    
C20   C82   S    
C63   C88   A    
C33   H59   S    
C48   C76   A    
C62   C77   A    
C53   C77   S    
C16   C72   S    
C17   C79   S    
C13   C116  A    
C13   C107  A    
N13   Ni8   S    
C1    N1    A    
C44   H60   S    
C14   C33   A    
C23   O7    D    
C9    H50   S    
C52   C66   S    
C21   H66   S    
C117  H43   S    
C36   H54   S    
N27   Ni4   S    
C1    C12   A    
C24   C117  A    
C50   C54   A    
C7    C99   A    
C30   C35   S    
N21   Ni7   S    
N10   Ni6   S    
C114  N9    A    
C116  H42   S    
C51   C75   A    
C15   C44   A    
C51   C56   A    
N4    Ni3   S    
C10   C15   A    
C50   C74   A    
N12   N24   A    
C30   C31   S    
C7    N21   A    
C33   N12   A    
C81   H11   S    
C37   H55   S    
C94   C98   A    
C65   C70   A    
C79   H9    S    
C92   C96   A    
C6    C88   A    
C49   C78   A    
C51   C86   S    
C60   H4    S    
C119  H76   S    
C1    H58   S    
C55   N27   A    
C3    C29   A    
C109  H36   S    
C63   H29   S    
C83   H14   S    
C80   C86   S    
C50   C85   S    
C32   C34   S    
C20   H65   S    
C46   C47   S    
N1    Ni1   S    
C61   C66   A    
C64   C99   A    
C60   C67   A    
C27   C39   S    
C32   H23   S    
C70   C74   A    
C10   N25   A    
C3    H79   S    
C41   C46   S    
C4    H44   S    
C47   H78   S    
C69   C73   A    
C24   C108  A    
C46   H67   S    
C37   C47   S    
C75   C80   S    
C110  C114  A    
C116  N11   A    
C86   H17   S    
C19   O3    D    
C93   C110  S    
C29   C41   S    
C18   O2    D    
C43   H45   S    
C27   C111  A    
C11   H52   S    
C38   H57   S    
C62   H28   S    
C87   C92   A    
C37   C41   S    
C14   C70   S    
N3    N11   A    
N30   Ni7   S    
N15   Ni2   S    
C102  H24   S    
N1    N22   A    
N2    N10   A    
C17   H62   S    
N17   Ni4   S    
N18   N28   A    
C81   C83   S    
C90   C94   A    
C54   C59   A    
C34   H34   S    
C59   H3    S    
C40   C45   S    
C105  H31   S    
C58   H2    S    
C61   N28   A    
C106  H32   S    
C35   H53   S    
C113  N8    A    
C104  H26   S    
C36   C40   S    
C80   H10   S    
C84   H19   S    
C109  N5    A    
C21   O5    D    
C28   C120  A    
C67   H6    S    
C91   C103  S    
C22   O6    D    
C95   C100  A    
C39   C43   S    
C10   H51   S    
C32   C37   S    
C91   C95   A    
N4    N13   A    
C2    C106  A    
C89   C93   A    
C28   C112  A    
N26   Ni3   S    
C56   C60   A    
C64   H30   S    
N31   Ni8   S    
C7    H48   S    
C65   H5    S    
C115  H41   S    
C35   C39   S    
C9    C14   A    
C105  N32   A    
C34   C41   S    
C31   H12   S    
C24   C94   S    
C106  N2    A    
C87   C102  S    
C2    C115  A    
C78   C82   S    
C25   C100  S    
C102  H72   S    
C111  N6    A    
C30   H1    S    
C82   C84   S    
C73   C78   A    
C62   N29   A    
C90   C104  S    
C96   C97   A    
N21   N31   A    
N32   Ni2   S    
C120  H77   S    
C55   H61   S    
C30   C40   S    
C72   C76   A    
C118  N14   A    
C44   N23   A    
C5    H46   S    
C113  H39   S    
C117  N13   A    
C118  H75   S    
C43   C45   S    
C26   C109  A    
C114  H40   S    
C107  H33   S    
N23   Ni3   S    
N7    Ni8   S    
C63   N30   A    
C6    N20   A    
C18   C80   S    
C15   C73   S    
C12   C71   S    
C13   C95   S    
N5    N14   A    
C4    N18   A    
C74   C79   S    
C87   C89   A    
C57   H80   S    
N11   Ni7   S    
C45   H56   S    
N14   Ni1   S    
N18   Ni6   S    
C57   C68   A    
C5    C77   A    
C35   C45   S    
C93   C97   A    
C23   H69   S    
C8    N22   A    
C8    H49   S    
C103  H25   S    
N19   N29   A    
C49   C84   S    
N8    N17   A    
C20   O4    D    
N8    Ni7   S    
C6    H47   S    
N22   Ni2   S    
C32   C42   S    
C28   C42   S    
C115  N10   A    
C89   C101  S    
C34   C38   S    
N25   Ni4   S    
C68   H7    S    
C26   C118  A    
C112  N7    A    
N9    Ni5   S    
C101  H71   S    
C19   H64   S    
C64   N31   A    
N12   Ni2   S    
C53   C58   A    
N23   N25   A    
C58   C69   A    
C38   C42   S    
C21   C96   S    
C27   C119  A    
C68   C72   A    
C120  N16   A    
C107  N3    A    
C112  H38   S    
C98   C100  A    
C76   C81   S    
C48   C83   S    
N20   N30   A    
C25   H70   S    
N19   Ni5   S    
C82   H13   S    
C61   H27   S    
C16   C55   A    
N28   Ni5   S    
C69   H8    S    
C19   C81   S    
C59   C65   A    
N2    Ni1   S    
C54   C88   S    
C3    N17   A    
C9    N24   A    
C26   C40   S    
C90   C91   A    
C5    N19   A    
C108  H35   S    
C111  H37   S    
C18   H63   S    
C11   N26   A    
C49   C53   A    
C2    C92   S    
C85   H20   S    
C79   C85   S    
C31   C39   S    
N6    Ni5   S    
C67   C71   A    
C42   C47   S    
C22   H68   S    
N5    Ni6   S    
C38   C46   S    
C11   C16   A    
C52   C57   A    
C85   H16   S    
C17   O1    D    
C25   O8    D    
N3    Ni4   S    
C23   C98   S    
C4    C66   A    
C108  N4    A    
N26   N27   A    
C29   C113  A    
C103  C104  S    
C22   C97   S    
N16   Ni3   S    
C104  H74   S    
C31   C36   S    
N20   Ni8   S    
C36   C43   S    
N7    N16   A    
C56   C99   S    
N29   Ni6   S    
C48   C52   A    
N9    N32   A    
C83   H18   S    
N24   Ni1   S    
C8    C12   A    
C86   H21   S    
C103  H73   S    
C101  H22   S    
