data_mof_unit_34836.cif
_audit_creation_date              2013-03-05T16:47:54-0500
_audit_creation_method            fapswitch 2.2
_symmetry_space_group_name_H-M    P1
_symmetry_Int_Tables_number       1
_space_group_crystal_system       triclinic
_cell_length_a                    10.854581
_cell_length_b                    10.863436
_cell_length_c                    9.582414
_cell_angle_alpha                 89.896456
_cell_angle_beta                  91.343345
_cell_angle_gamma                 93.894942
_cell_volume                      1127.01982863

loop_
_atom_site_label
_atom_site_type_symbol
_atom_site_description
_atom_site_fract_x
_atom_site_fract_y
_atom_site_fract_z
_atom_type_partial_charge
O1    O     O_R   0.499990 0.319640 0.618810 -0.603934
O2    O     O_R   0.500000 0.319660 0.381240 -0.570560
C1    C     C_R   0.505631 0.262433 0.501525 0.802869
O3    O     O_R   0.319640 0.500000 0.618780 -0.582498
O4    O     O_R   0.319650 0.500020 0.381210 -0.581721
C2    C     C_R   0.262376 0.500391 0.498110 0.796429
Cu1   Cu    Cu3+1 0.499990 0.499990 0.640660 0.960666
Cu2   Cu    Cu3+1 0.500010 0.500010 0.359340 0.954779
O5    O     O_R   0.500000 0.680340 0.618760 -0.578052
O6    O     O_R   0.500010 0.680360 0.381190 -0.600580
O7    O     O_R   0.680350 0.499980 0.618790 -0.554526
O8    O     O_R   0.680360 0.500000 0.381220 -0.601838
C3    C     C_R   0.487464 0.736228 0.500404 0.832827
C4    C     C_R   0.736923 0.492653 0.501567 0.837893
C5    C     C_R   0.124527 0.774528 0.097626 -0.163346
H1    H     H_    0.116767 0.872328 0.081073 0.162897
C6    C     C_R   0.113755 0.725555 0.232134 -0.191746
H2    H     H_    0.095747 0.786043 0.318012 0.163193
C7    C     C_R   0.113988 0.597599 0.253304 0.129458
C8    C     C_R   0.133282 0.520292 0.139775 -0.143328
H3    H     H_    0.130125 0.421118 0.153549 0.141971
C9    C     C_R   0.145362 0.569744 0.005652 -0.177849
H4    H     H_    0.154081 0.508785 0.917942 0.151059
C10   C     C_R   0.135801 0.696086 0.983774 0.202542
C11   C     C_R   0.932550 0.539734 0.387994 -0.190960
H5    H     H_    0.881121 0.577516 0.301423 0.151453
C12   C     C_R   0.870846 0.490857 0.503960 -0.046982
C13   C     C_R   0.938650 0.443700 0.617156 0.028234
C14   C     C_R   0.066544 0.446706 0.610414 -0.196181
C15   C     C_R   0.128295 0.497206 0.494806 -0.065935
C16   C     C_R   0.060174 0.543484 0.381438 0.013316
C17   C     C_R   0.869212 0.462594 0.861743 -0.137565
C18   C     C_R   0.833673 0.408801 0.988278 -0.166910
H6    H     H_    0.825346 0.466347 0.079102 0.158659
C19   C     C_R   0.813517 0.280776 0.998594 0.202347
C20   C     C_R   0.826278 0.206674 0.881246 -0.172312
H7    H     H_    0.811647 0.107424 0.889147 0.165362
C21   C     C_R   0.859778 0.260538 0.753711 -0.201076
H8    H     H_    0.872287 0.202134 0.664352 0.164606
C22   C     C_R   0.882201 0.388913 0.743565 0.113503
H9    H     H_    0.498645 0.110816 0.281369 0.177387
C23   C     C_R   0.534844 0.116580 0.768370 -0.164563
H10   H     H_    0.585561 0.204636 0.780369 0.187411
C24   C     C_R   0.503468 0.055872 0.891832 -0.173788
C25   C     C_R   0.445342 0.938520 0.886650 -0.126054
H11   H     H_    0.416537 0.892484 0.981991 0.148398
C26   C     C_R   0.430646 0.877328 0.759288 -0.113329
H12   H     H_    0.385876 0.786000 0.762265 0.184790
C27   C     C_R   0.469932 0.934511 0.633149 0.112821
C28   C     C_R   0.505428 0.061665 0.636092 0.101792
C29   C     C_R   0.508397 0.127736 0.507117 -0.104148
C30   C     C_R   0.497580 0.063034 0.380657 -0.173495
H13   H     H_    0.487997 0.888836 0.279857 0.172782
C31   C     C_R   0.487408 0.935699 0.379525 -0.201522
C32   C     C_R   0.476250 0.869869 0.504580 -0.104050
H14   H     H_    0.375460 0.344346 0.125852 0.127555
C33   C     C_R   0.646575 0.678045 0.155029 -0.161784
H15   H     H_    0.668949 0.671794 0.262489 0.220281
C34   C     C_R   0.695296 0.784758 0.096659 -0.279658
H16   H     H_    0.742242 0.855924 0.161344 0.196654
C35   C     C_R   0.691390 0.797638 0.955509 -0.172381
C36   C     C_R   0.647659 0.699250 0.868867 0.184967
C37   C     C_R   0.572945 0.593563 0.927288 0.138865
C38   C     C_R   0.572330 0.589553 0.078086 0.184659
N1    N     N_R   0.501190 0.501210 0.147910 -0.185280
C39   C     C_R   0.431846 0.414417 0.072046 -0.035900
C40   C     C_R   0.432261 0.414076 0.924355 -0.071589
N2    N     N_R   0.501230 0.501290 0.852040 -0.190311
I1    I     I_    0.118124 0.765069 0.779016 -0.451174
I2    I     I_    0.771239 0.199774 0.192972 -0.480563
H17   H     H_    0.523066 0.100676 0.991477 0.157947
H18   H     H_    0.735149 0.883190 0.916390 0.189350
I3    I     I_    0.755056 0.748745 0.686951 -0.376087
H19   H     H_    0.376237 0.343772 0.867776 0.138350
H20   H     H_    0.118233 0.408198 0.696277 0.149289
H21   H     H_    0.890731 0.561093 0.857331 0.186216

loop_
_geom_bond_atom_site_label_1
_geom_bond_atom_site_label_2
_geom_bond_distance
_ccdc_geom_bond_type
C11   C16   1.386024 A    
C19   C20   1.399065 A    
C7    C16   1.476058 S    
Cu1   Cu2   2.695729 S    
C26   C27   1.419220 A    
C25   H11   1.083055 S    
Cu1   O7    1.973803 S    
C36   C37   1.477071 A    
O4    C2    1.293952 A    
C20   H7    1.081881 S    
C15   C16   1.410853 A    
O7    C4    1.297877 A    
C33   C34   1.365521 A    
C13   C22   1.476345 S    
C5    H1    1.082580 S    
C24   H17   1.082576 S    
C5    C6    1.397907 A    
O5    C3    1.294177 A    
C6    C7    1.404562 A    
Cu1   N2    2.025329 S    
C31   C32   1.397866 A    
C7    C8    1.403746 A    
C19   I2    2.105600 S    
C36   I3    2.166464 S    
C4    C12   1.454778 S    
H9    C30   1.082905 S    
C39   C40   1.415366 A    
Cu2   N1    2.026363 S    
C23   C24   1.391439 A    
O3    Cu1   1.963933 S    
C30   C31   1.380242 A    
C10   I1    2.108242 S    
C18   H6    1.081552 S    
C25   C26   1.391477 A    
C34   C35   1.359489 A    
C40   N2    1.365235 A    
O3    C2    1.300027 A    
C1    C29   1.466472 S    
C28   C29   1.427989 A    
C11   H5    1.084637 S    
H13   C31   1.083443 S    
C29   C30   1.400521 A    
O1    C1    1.289951 A    
C14   C15   1.400055 A    
C26   H12   1.075335 S    
Cu2   O8    1.963933 S    
C6    H2    1.083574 S    
C40   H19   1.081660 S    
C23   C28   1.422115 A    
C35   H18   1.084904 S    
C5    C10   1.398268 A    
C2    C15   1.453057 S    
C8    C9    1.397656 A    
N1    C39   1.365441 A    
C9    C10   1.398499 A    
C23   H10   1.075750 S    
C24   C25   1.383937 A    
C33   C38   1.409506 A    
Cu1   O5    1.970043 S    
C37   N2    1.414560 A    
C13   C14   1.389407 A    
O1    Cu1   1.970753 S    
O2    Cu2   1.970044 S    
O8    C4    1.298596 A    
O6    C3    1.308784 A    
C17   H21   1.080593 S    
O4    Cu2   1.973803 S    
C14   H20   1.084314 S    
C11   C12   1.396361 A    
C38   N1    1.373397 A    
C20   C21   1.399101 A    
O2    C1    1.310741 A    
C27   C32   1.424526 A    
C17   C18   1.396145 A    
C21   C22   1.402885 A    
C33   H15   1.055554 S    
C21   H8    1.083192 S    
H14   C39   1.081645 S    
C18   C19   1.396832 A    
C17   C22   1.403234 A    
C35   C36   1.404571 A    
C37   C38   1.445743 A    
C34   H16   1.083961 S    
C8    H3    1.083522 S    
Cu2   O6    1.970752 S    
C27   C28   1.408777 A    
C12   C13   1.411547 A    
C9    H4    1.080805 S    
C3    C32   1.465807 S    
