data_mof_unit_64533.cif
_audit_creation_date              2012-10-26T17:44:09-0400
_audit_creation_method            fapswitch 2.2
_symmetry_space_group_name_H-M    P1
_symmetry_Int_Tables_number       1
_space_group_crystal_system       triclinic
_cell_length_a                    18.357182
_cell_length_b                    18.358197
_cell_length_c                    47.19616
_cell_angle_alpha                 89.917115
_cell_angle_beta                  89.989477
_cell_angle_gamma                 89.957603
_cell_volume                      15905.3094777

loop_
_atom_site_label
_atom_site_type_symbol
_atom_type_description
_atom_site_fract_x
_atom_site_fract_y
_atom_site_fract_z
_atom_type_partial_charge
C1    C     C_R   0.999928 0.860132 0.000023 0.556468
C2    C     C_R   0.989519 0.434327 0.869648 0.243585
C3    C     C_R   0.936890 0.484075 0.690542 0.462131
C4    C     C_R   0.436864 0.985070 0.309955 0.461583
C5    C     C_R   0.005860 0.568584 0.310306 0.461470
C6    C     C_R   0.563684 0.014217 0.309947 0.461632
C7    C     C_R   0.987594 0.439746 0.309833 0.461347
C8    C     C_R   0.006305 0.572344 0.220647 0.026854
C9    C     C_R   0.436082 0.982967 0.220299 0.027341
C10   C     C_R   0.985592 0.441166 0.220214 0.028501
C11   C     C_R   0.564711 0.015920 0.220285 0.027329
C12   C     C_R   0.064884 0.514245 0.780161 0.027283
C13   C     C_R   0.565688 0.010321 0.869594 0.243606
C14   C     C_R   0.485014 0.935480 0.780217 0.027292
C15   C     C_R   0.935255 0.485470 0.780198 0.027316
C16   C     C_R   0.514963 0.064833 0.780126 0.027267
C17   C     C_R   0.515873 0.064566 0.720253 0.027403
C18   C     C_R   0.935450 0.484454 0.720328 0.027407
C19   C     C_R   0.484102 0.935646 0.720345 0.027397
C20   C     C_R   0.064661 0.515057 0.720288 0.027392
C21   C     C_R   0.564860 0.015120 0.280160 0.027237
C22   C     C_R   0.986472 0.439399 0.280056 0.027491
C23   C     C_R   0.435779 0.984003 0.280170 0.027248
C24   C     C_R   0.010612 0.565606 0.869561 0.243694
C25   C     C_R   0.006035 0.570749 0.280524 0.027555
C26   C     C_R   0.995934 0.506358 0.235377 -0.026458
C27   C     C_R   0.500380 0.999467 0.235242 -0.026625
C28   C     C_R   0.000067 0.499830 0.765230 -0.026694
C29   C     C_R   0.499988 0.000144 0.765221 -0.026707
C30   C     C_R   0.499988 0.000119 0.735249 -0.026604
C31   C     C_R   0.000059 0.499779 0.735258 -0.026628
C32   C     C_R   0.500341 0.999526 0.265215 -0.026752
C33   C     C_R   0.996093 0.505515 0.265343 -0.026492
C34   C     C_R   0.016209 0.637106 0.236015 -0.110995
C35   C     C_R   0.538461 0.945136 0.130882 0.246340
C36   C     C_R   0.372067 0.967169 0.235444 -0.110756
C37   C     C_R   0.975611 0.375589 0.235114 -0.110845
C38   C     C_R   0.628694 0.031753 0.235419 -0.110641
C39   C     C_R   0.129119 0.529050 0.765003 -0.110720
C40   C     C_R   0.469593 0.871374 0.765123 -0.110717
C41   C     C_R   0.871014 0.470608 0.765078 -0.110728
C42   C     C_R   0.530384 0.128914 0.764941 -0.110718
C43   C     C_R   0.531103 0.128718 0.735347 -0.110587
C44   C     C_R   0.871173 0.469835 0.735485 -0.110592
C45   C     C_R   0.468873 0.871520 0.735529 -0.110594
C46   C     C_R   0.940222 0.538185 0.130541 0.245512
C47   C     C_R   0.128946 0.529721 0.735408 -0.110583
C48   C     C_R   0.628835 0.031088 0.265014 -0.110739
C49   C     C_R   0.976224 0.374688 0.264698 -0.111099
C50   C     C_R   0.371849 0.967953 0.265037 -0.110788
C51   C     C_R   0.015902 0.636345 0.265614 -0.110716
C52   C     C_3   0.359739 0.896044 0.914996 -0.007644
C53   C     C_3   0.289581 0.880016 0.930957 -0.355842
C54   C     C_3   0.894987 0.360442 0.915031 -0.007415
C55   C     C_3   0.878486 0.290519 0.931099 -0.356108
C56   C     C_3   0.640203 0.104239 0.914922 -0.007650
C57   C     C_R   0.462209 0.054109 0.130920 0.246381
C58   C     C_3   0.710331 0.120210 0.930884 -0.355841
C59   C     C_3   0.104842 0.639700 0.914928 -0.007445
C60   C     C_3   0.121111 0.709623 0.930953 -0.355978
C61   C     C_3   0.651808 0.923699 0.081809 -0.001880
C62   C     C_3   0.697038 0.867957 0.065716 -0.356638
C63   C     C_3   0.909174 0.646509 0.080711 -0.000632
C64   C     C_3   0.849919 0.685394 0.063983 -0.353526
C65   C     C_3   0.348416 0.074942 0.081937 -0.003460
C66   C     C_3   0.302787 0.130227 0.065736 -0.354447
C67   C     C_3   0.106648 0.357504 0.092712 -0.013673
C68   C     C_R   0.057941 0.476855 0.131712 0.231407
C69   C     C_3   0.076109 0.319403 0.066715 -0.360137
C70   C     C_3   0.862309 0.392168 0.415269 -0.006655
C71   C     C_3   0.793512 0.373896 0.431759 -0.356823
C72   C     C_3   0.396655 0.859159 0.415007 -0.007919
C73   C     C_3   0.380931 0.788751 0.430872 -0.355761
C74   C     C_3   0.136701 0.608705 0.415027 -0.006556
C75   C     C_3   0.206094 0.625915 0.431281 -0.356536
C76   C     C_3   0.603263 0.140806 0.414846 -0.007959
C77   C     C_3   0.618777 0.211235 0.430646 -0.355650
C78   C     C_3   0.150716 0.422051 0.581999 -0.001831
C79   C     C_R   0.932926 0.489497 0.369834 0.244114
C80   C     C_3   0.195371 0.365989 0.565835 -0.355913
C81   C     C_3   0.423147 0.151205 0.581863 -0.001977
C82   C     C_3   0.367243 0.196267 0.565737 -0.356010
C83   C     C_3   0.849200 0.577518 0.581971 -0.001842
C84   C     C_3   0.804464 0.633599 0.565794 -0.355876
C85   C     C_3   0.576816 0.848825 0.582028 -0.002019
C86   C     C_3   0.632690 0.803790 0.565918 -0.355987
C87   C     C_R   0.490464 0.934042 0.369663 0.243522
C88   C     C_R   0.063503 0.514597 0.369428 0.243317
C89   C     C_R   0.139868 0.000071 0.000006 0.556735
C90   C     C_R   0.509837 0.065582 0.369540 0.243549
C91   C     C_R   0.037303 0.444728 0.630927 0.246238
C92   C     C_R   0.445190 0.037722 0.630887 0.246247
C93   C     C_R   0.962668 0.554810 0.630905 0.246236
C94   C     C_R   0.554769 0.962342 0.630929 0.246290
C95   C     C_R   0.435067 0.985806 0.899576 0.166403
C96   C     C_R   0.985239 0.435174 0.899610 0.166433
C97   C     C_R   0.564889 0.014538 0.899556 0.166311
C98   C     C_R   0.014805 0.564808 0.899526 0.166308
C99   C     C_R   0.540687 0.946837 0.100919 0.175103
C100  C     C_R   0.000029 0.139866 0.999981 0.557268
C101  C     C_R   0.942637 0.538946 0.100573 0.172221
C102  C     C_R   0.459759 0.052586 0.100966 0.175688
C103  C     C_R   0.056690 0.470244 0.101785 0.185244
C104  C     C_R   0.934618 0.484325 0.399768 0.166566
C105  C     C_R   0.486095 0.934902 0.399624 0.166369
C106  C     C_R   0.063412 0.517532 0.399411 0.166730
C107  C     C_R   0.514025 0.064891 0.399507 0.166316
C108  C     C_R   0.039704 0.446392 0.600968 0.175258
C109  C     C_R   0.446800 0.040083 0.600928 0.175310
C110  C     C_R   0.960227 0.553245 0.600950 0.175331
C111  C     C_R   0.860132 0.999925 0.000010 0.556306
C112  C     C_R   0.553161 0.959946 0.600973 0.175316
C113  C     C_R   0.499979 0.000149 0.914401 -0.025646
C114  C     C_R   0.000020 0.499997 0.914401 -0.025648
C115  C     C_R   0.500200 0.999795 0.085932 -0.045611
C116  C     C_R   0.999827 0.503020 0.086098 -0.038280
C117  C     C_R   0.999407 0.500381 0.414415 -0.025526
C118  C     C_R   0.500031 0.999934 0.414401 -0.025624
C119  C     C_R   0.999970 0.499854 0.585943 -0.045948
C120  C     C_R   0.499982 0.000007 0.585937 -0.045747
C121  C     C_R   0.499980 0.000215 0.854810 0.241621
C122  C     C_R   0.499923 0.360132 0.500025 0.556407
C123  C     C_R   0.000085 0.499954 0.854814 0.241739
C124  C     C_R   0.500399 0.999586 0.145662 0.239474
C125  C     C_R   0.998343 0.507896 0.145859 0.242381
C126  C     C_R   0.997806 0.502678 0.354869 0.243320
C127  C     C_R   0.500197 0.999770 0.354807 0.241498
C128  C     C_R   0.000004 0.499751 0.645677 0.239284
C129  C     C_R   0.499981 0.000043 0.645669 0.239386
C130  C     C_1   0.782631 0.999819 0.000061 -0.054694
C131  C     C_1   0.999821 0.782631 0.000095 -0.053379
C132  C     C_1   0.217369 0.000175 0.000049 -0.054379
C133  C     C_R   0.639868 0.500060 0.500004 0.556451
C134  C     C_1   0.000087 0.217363 0.999930 -0.052328
C135  C     C_1   0.282630 0.499850 0.500047 -0.053772
C136  C     C_1   0.499815 0.282631 0.500101 -0.054827
C137  C     C_1   0.717370 0.500149 0.500035 -0.053615
C138  C     C_1   0.500190 0.717368 0.500015 -0.054681
C139  C     C_1   0.717349 0.999811 0.000110 -0.055994
C140  C     C_1   0.999811 0.717349 0.000136 -0.054445
C141  C     C_1   0.282651 0.000184 0.000099 -0.055788
C142  C     C_1   0.000096 0.282642 0.999880 -0.056575
C143  C     C_1   0.217348 0.499840 0.500086 -0.055258
C144  C     C_R   0.500079 0.639868 0.499992 0.556433
C145  C     C_1   0.499808 0.217350 0.500146 -0.056092
C146  C     C_1   0.782651 0.500159 0.500074 -0.054608
C147  C     C_1   0.500197 0.782649 0.500076 -0.055674
C148  C     C_R   0.499994 0.000046 0.945539 0.643518
C149  C     C_R   0.000005 0.500011 0.945539 0.643416
C150  C     C_R   0.500082 0.999943 0.054572 0.583322
C151  C     C_R   1.000000 0.500367 0.054640 0.586746
C152  C     C_R   0.999970 0.500069 0.445543 0.643753
C153  C     C_R   0.500006 1.000000 0.445539 0.643506
C154  C     C_R   0.999993 0.499954 0.554575 0.583195
C155  C     C_R   0.360132 0.499939 0.500008 0.556466
C156  C     C_R   0.499994 0.999999 0.554574 0.583160
C157  C     C_R   0.639863 0.999953 0.000071 0.558408
C158  C     C_R   0.999953 0.639864 0.000080 0.557589
C159  C     C_R   0.360137 0.000046 0.000067 0.558503
C160  C     C_R   0.000022 0.360139 0.999846 0.555919
C161  C     C_R   0.139863 0.499958 0.500057 0.558112
C162  C     C_R   0.499953 0.139864 0.500085 0.558418
C163  C     C_R   0.860137 0.500041 0.500053 0.558987
C164  C     C_R   0.500048 0.860135 0.500063 0.558720
C165  C     C_R   0.985705 0.443277 0.190450 0.460345
C166  C     C_R   0.434269 0.990098 0.869611 0.243594
C167  C     C_R   0.563279 0.016221 0.190498 0.461943
C168  C     C_R   0.006869 0.571671 0.190850 0.463487
C169  C     C_R   0.437564 0.982642 0.190514 0.461986
C170  C     C_R   0.936414 0.486472 0.809982 0.461597
C171  C     C_R   0.513998 0.063716 0.809913 0.461647
C172  C     C_R   0.063737 0.513349 0.809947 0.461608
C173  C     C_R   0.485977 0.936648 0.810002 0.461583
C174  C     C_R   0.483773 0.937074 0.690558 0.462086
C175  C     C_R   0.063196 0.515371 0.690503 0.462064
C176  C     C_R   0.516198 0.063087 0.690468 0.462081
Cu1   Cu    Cu3+1 1.000000 0.000000 0.028150 0.959832
Cu2   Cu    Cu3+1 0.427410 1.000000 0.500000 0.988907
Cu3   Cu    Cu3+1 1.000000 0.427410 0.500000 0.987599
Cu4   Cu    Cu3+1 0.572590 1.000000 0.500000 0.988815
Cu5   Cu    Cu3+1 0.000000 1.000000 0.971850 0.977630
Cu6   Cu    Cu3+1 0.500000 0.500000 0.528150 0.958163
Cu7   Cu    Cu3+1 0.500000 0.500000 0.471850 0.978571
Cu8   Cu    Cu3+1 0.500000 0.072590 0.000000 0.989411
Cu9   Cu    Cu3+1 0.927410 0.500000 0.000000 0.986223
Cu10  Cu    Cu3+1 0.500000 0.927410 0.000000 0.988350
Cu11  Cu    Cu3+1 0.072590 0.500000 0.000000 0.992805
Cu12  Cu    Cu3+1 1.000000 0.572590 0.500000 0.987507
H1    H     H_    0.024220 0.688598 0.225231 0.172084
H2    H     H_    0.820713 0.457973 0.724540 0.172319
H3    H     H_    0.316185 0.200624 0.578253 0.158473
H4    H     H_    0.388971 0.251837 0.561843 0.105352
H5    H     H_    0.355019 0.170269 0.545049 0.182565
H6    H     H_    0.821544 0.566567 0.602563 0.157728
H7    H     H_    0.850525 0.526455 0.569241 0.129960
H8    H     H_    0.830559 0.645592 0.545079 0.182603
H9    H     H_    0.748778 0.612163 0.561951 0.104972
H10   H     H_    0.800367 0.684729 0.578248 0.158644
H11   H     H_    0.525788 0.850442 0.569255 0.130049
H12   H     H_    0.565664 0.821220 0.602622 0.157696
H13   H     H_    0.456565 0.821170 0.724605 0.172341
H14   H     H_    0.683776 0.799424 0.578414 0.158578
H15   H     H_    0.610961 0.748223 0.562086 0.105324
H16   H     H_    0.644864 0.829816 0.545199 0.182511
H17   H     H_    0.179400 0.541549 0.724433 0.172327
H18   H     H_    0.679179 0.043356 0.275970 0.172248
H19   H     H_    0.968606 0.323129 0.275476 0.172257
H20   H     H_    0.321476 0.955726 0.276001 0.172254
H21   H     H_    0.023673 0.687280 0.276758 0.172225
H22   H     H_    0.328262 0.985829 0.867045 0.360384
H23   H     H_    0.984558 0.328356 0.867140 0.360351
H24   H     H_    0.671695 0.014633 0.867010 0.360380
H25   H     H_    0.321853 0.954377 0.224489 0.172309
H26   H     H_    0.015576 0.671575 0.866909 0.360341
H27   H     H_    0.594417 0.854790 0.133572 0.363525
H28   H     H_    0.843710 0.582884 0.132354 0.364074
H29   H     H_    0.406072 0.144314 0.133658 0.363237
H30   H     H_    0.157971 0.442302 0.135352 0.356688
H31   H     H_    0.827110 0.481260 0.367584 0.360220
H32   H     H_    0.486838 0.828007 0.367197 0.360424
H33   H     H_    0.169203 0.522495 0.366393 0.360161
H34   H     H_    0.513463 0.171604 0.366867 0.360416
H35   H     H_    0.091875 0.353548 0.633659 0.363705
H36   H     H_    0.967568 0.324689 0.223974 0.172076
H37   H     H_    0.354426 0.092980 0.633572 0.363690
H38   H     H_    0.908034 0.645945 0.633598 0.363754
H39   H     H_    0.645523 0.907069 0.633674 0.363714
H40   H     H_    0.405202 0.867323 0.925944 0.155812
H41   H     H_    0.354147 0.873774 0.893161 0.163366
H42   H     H_    0.243032 0.907972 0.920550 0.169227
H43   H     H_    0.279259 0.820442 0.931080 0.095389
H44   H     H_    0.294144 0.899176 0.953161 0.172640
H45   H     H_    0.872715 0.354823 0.893189 0.163329
H46   H     H_    0.866532 0.406167 0.925881 0.155844
H47   H     H_    0.678935 0.044505 0.224454 0.172328
H48   H     H_    0.897666 0.295121 0.953307 0.172884
H49   H     H_    0.818840 0.280603 0.931207 0.095432
H50   H     H_    0.906131 0.243705 0.920785 0.168975
H51   H     H_    0.594718 0.132906 0.925852 0.155776
H52   H     H_    0.645827 0.126598 0.893076 0.163334
H53   H     H_    0.756903 0.092305 0.920497 0.169208
H54   H     H_    0.720642 0.179785 0.930977 0.095392
H55   H     H_    0.705732 0.100961 0.953097 0.172638
H56   H     H_    0.127252 0.645387 0.893101 0.163194
H57   H     H_    0.133294 0.594004 0.925845 0.155874
H58   H     H_    0.179698 0.540391 0.775948 0.172252
H59   H     H_    0.101667 0.704992 0.953135 0.172901
H60   H     H_    0.180749 0.719585 0.931145 0.095472
H61   H     H_    0.093550 0.756423 0.920547 0.168881
H62   H     H_    0.679443 0.935055 0.102356 0.157713
H63   H     H_    0.649907 0.974667 0.068977 0.130169
H64   H     H_    0.671004 0.855592 0.045041 0.182030
H65   H     H_    0.752503 0.889906 0.061798 0.105986
H66   H     H_    0.701658 0.816936 0.078267 0.157697
H67   H     H_    0.960626 0.649254 0.068217 0.129345
H68   H     H_    0.916830 0.675852 0.101150 0.156635
H69   H     H_    0.457806 0.820917 0.776119 0.172256
H70   H     H_    0.798158 0.685290 0.076173 0.158957
H71   H     H_    0.866378 0.742654 0.059881 0.101380
H72   H     H_    0.841138 0.657571 0.043390 0.183413
H73   H     H_    0.320843 0.063450 0.102501 0.157346
H74   H     H_    0.350719 0.023938 0.069192 0.130101
H75   H     H_    0.328892 0.142883 0.045082 0.183300
H76   H     H_    0.247591 0.107703 0.061770 0.106390
H77   H     H_    0.297547 0.181173 0.078238 0.159603
H78   H     H_    0.073204 0.342051 0.111548 0.161886
H79   H     H_    0.162398 0.336224 0.096628 0.155386
H80   H     H_    0.820440 0.459305 0.776053 0.172245
H81   H     H_    0.111317 0.330583 0.048094 0.182364
H82   H     H_    0.074447 0.259670 0.070395 0.109542
H83   H     H_    0.019969 0.338999 0.062402 0.150184
H84   H     H_    0.909138 0.364566 0.425770 0.156211
H85   H     H_    0.856214 0.370124 0.393422 0.162031
H86   H     H_    0.745574 0.400293 0.421698 0.167803
H87   H     H_    0.785151 0.314013 0.431965 0.095407
H88   H     H_    0.798518 0.393273 0.453927 0.174298
H89   H     H_    0.374451 0.853680 0.393148 0.163478
H90   H     H_    0.367697 0.904367 0.425982 0.155684
H91   H     H_    0.542172 0.179389 0.775865 0.172254
H92   H     H_    0.399791 0.793255 0.453122 0.172184
H93   H     H_    0.321428 0.778006 0.430852 0.095262
H94   H     H_    0.409332 0.742492 0.420490 0.169692
H95   H     H_    0.090321 0.635905 0.425952 0.156357
H96   H     H_    0.142132 0.631873 0.393306 0.162400
H97   H     H_    0.253626 0.600001 0.420771 0.167861
H98   H     H_    0.214593 0.685758 0.431886 0.095397
H99   H     H_    0.201803 0.605289 0.453324 0.174136
H100  H     H_    0.625630 0.146294 0.393003 0.163399
H101  H     H_    0.632184 0.095637 0.425906 0.155656
H102  H     H_    0.543410 0.179049 0.724351 0.172340
H103  H     H_    0.599636 0.206756 0.452869 0.172275
H104  H     H_    0.678277 0.221994 0.430713 0.095224
H105  H     H_    0.590493 0.257474 0.420154 0.169632
H106  H     H_    0.178371 0.432830 0.602589 0.157778
H107  H     H_    0.149488 0.473193 0.569259 0.130073
H108  H     H_    0.169330 0.354246 0.545105 0.182542
H109  H     H_    0.251131 0.387307 0.562022 0.104918
H110  H     H_    0.199272 0.314741 0.578282 0.158776
H111  H     H_    0.474151 0.149601 0.569070 0.130108
H112  H     H_    0.434341 0.178784 0.602426 0.157684
N1    N     N_R   0.996628 0.507773 0.176396 -0.330840
N2    N     N_R   0.500426 0.999452 0.176231 -0.332981
N3    N     N_R   0.000079 0.499931 0.824244 -0.333040
N4    N     N_R   0.499986 0.000194 0.824238 -0.333087
N5    N     N_R   0.499984 0.000068 0.676238 -0.333006
N6    N     N_R   0.000035 0.499717 0.676247 -0.333049
N7    N     N_R   0.500251 0.999685 0.324233 -0.333127
N8    N     N_R   0.997019 0.503715 0.324327 -0.332225
O1    O     O_R   0.999960 0.894270 0.023780 -0.505670
O2    O     O_R   0.605730 0.499960 0.523780 -0.506819
O3    O     O_R   0.500040 0.605730 0.523780 -0.506649
O4    O     O_R   0.394270 0.500040 0.523780 -0.506738
O5    O     O_R   0.499960 0.605730 0.476220 -0.499823
O6    O     O_R   0.605730 0.500040 0.476220 -0.499180
O7    O     O_R   0.500040 0.394270 0.476220 -0.499895
O8    O     O_R   0.394270 0.499960 0.476220 -0.499276
O9    O     O_R   0.500020 0.061320 0.958950 -0.505192
O10   O     O_R   0.938680 0.500020 0.958950 -0.505477
O11   O     O_R   0.499980 0.938680 0.958950 -0.505367
O12   O     O_R   0.105730 0.999960 0.023780 -0.506667
O13   O     O_R   0.061320 0.499980 0.958950 -0.505232
O14   O     O_R   0.500020 0.938680 0.041050 -0.471324
O15   O     O_R   0.938680 0.499980 0.041050 -0.469389
O16   O     O_R   0.499980 0.061320 0.041050 -0.471208
O17   O     O_R   0.061320 0.500020 0.041050 -0.466178
O18   O     O_R   0.000020 0.561320 0.458950 -0.505897
O19   O     O_R   0.438680 0.000020 0.458950 -0.505159
O20   O     O_R   0.999980 0.438680 0.458950 -0.505317
O21   O     O_R   0.561320 0.999980 0.458950 -0.505315
O22   O     O_R   0.000020 0.438680 0.541050 -0.470762
O23   O     O_R   0.000040 0.105730 0.023780 -0.506133
O24   O     O_R   0.438680 0.999980 0.541050 -0.471082
O25   O     O_R   0.999980 0.561320 0.541050 -0.470692
O26   O     O_R   0.561320 0.000020 0.541050 -0.471063
O27   O     O_R   0.605800 0.061300 0.000010 -0.514725
O28   O     O_R   0.938700 0.605800 0.000010 -0.506852
O29   O     O_R   0.394200 0.938700 0.000010 -0.514771
O30   O     O_R   0.061300 0.394200 0.000010 -0.504501
O31   O     O_R   0.605800 0.938700 0.999990 -0.504006
O32   O     O_R   0.938700 0.394200 0.999990 -0.513417
O33   O     O_R   0.394200 0.061300 0.999990 -0.503691
O34   O     O_R   0.894270 0.000040 0.023780 -0.506653
O35   O     O_R   0.061300 0.605800 0.999990 -0.514393
O36   O     O_R   0.105800 0.561300 0.500010 -0.514808
O37   O     O_R   0.438700 0.105800 0.500010 -0.503931
O38   O     O_R   0.894200 0.438700 0.500010 -0.514805
O39   O     O_R   0.561300 0.894200 0.500010 -0.503989
O40   O     O_R   0.105800 0.438700 0.499990 -0.504611
O41   O     O_R   0.438700 0.894200 0.499990 -0.514652
O42   O     O_R   0.894200 0.561300 0.499990 -0.504475
O43   O     O_R   0.561300 0.105800 0.499990 -0.514635
O44   O     O_2   0.974909 0.381395 0.175641 -0.478073
O45   O     O_R   0.999960 0.105730 0.976220 -0.499926
O46   O     O_2   0.624093 0.033445 0.175898 -0.470625
O47   O     O_2   0.018056 0.634191 0.176435 -0.470263
O48   O     O_2   0.376776 0.965392 0.175930 -0.470894
O49   O     O_2   0.874371 0.474426 0.824585 -0.472037
O50   O     O_2   0.526621 0.125663 0.824455 -0.471839
O51   O     O_2   0.125784 0.525448 0.824518 -0.471857
O52   O     O_2   0.473356 0.874724 0.824630 -0.472008
O53   O     O_2   0.467093 0.876108 0.676010 -0.470636
O54   O     O_2   0.124293 0.531496 0.675891 -0.470664
O55   O     O_2   0.532876 0.124029 0.675833 -0.470669
O56   O     O_R   0.105730 0.000040 0.976220 -0.499748
O57   O     O_2   0.875782 0.467917 0.675971 -0.470639
O58   O     O_2   0.375013 0.971951 0.324542 -0.472044
O59   O     O_2   0.014201 0.630786 0.325147 -0.472632
O60   O     O_2   0.625489 0.027415 0.324529 -0.471890
O61   O     O_2   0.979724 0.376646 0.324205 -0.472804
O62   O     O_3   0.370665 0.984491 0.854096 -0.656779
O63   O     O_3   0.983480 0.370759 0.854166 -0.656903
O64   O     O_3   0.629292 0.015964 0.854065 -0.656756
O65   O     O_3   0.016667 0.629151 0.853994 -0.656836
O66   O     O_3   0.573238 0.891609 0.146474 -0.652883
O67   O     O_R   0.000040 0.894270 0.976220 -0.500112
O68   O     O_3   0.882519 0.567259 0.145593 -0.652792
O69   O     O_3   0.427430 0.107469 0.146542 -0.653765
O70   O     O_3   0.115933 0.452618 0.147858 -0.662346
O71   O     O_3   0.869246 0.481933 0.354497 -0.657864
O72   O     O_3   0.485292 0.870359 0.354205 -0.656648
O73   O     O_3   0.126372 0.523197 0.353656 -0.658441
O74   O     O_3   0.515081 0.129180 0.353960 -0.656730
O75   O     O_3   0.071239 0.390710 0.646544 -0.652836
O76   O     O_3   0.391452 0.072055 0.646476 -0.652950
O77   O     O_3   0.928733 0.608766 0.646499 -0.652897
O78   O     O_R   0.894270 0.999960 0.976220 -0.499893
O79   O     O_3   0.608506 0.928025 0.646555 -0.652923
O80   O     O_3   0.371706 0.972078 0.914563 -0.563932
O81   O     O_3   0.971101 0.371918 0.914629 -0.563967
O82   O     O_3   0.628253 0.028205 0.914524 -0.564021
O83   O     O_3   0.028750 0.628115 0.914466 -0.564068
O84   O     O_3   0.581112 0.895540 0.086270 -0.545062
O85   O     O_3   0.888017 0.573508 0.085445 -0.543674
O86   O     O_3   0.418869 0.103698 0.086367 -0.545087
O87   O     O_3   0.111882 0.433551 0.087678 -0.543737
O88   O     O_3   0.872023 0.468519 0.414931 -0.563923
O89   O     O_R   0.499960 0.394270 0.523780 -0.506643
O90   O     O_3   0.472634 0.871518 0.414656 -0.563933
O91   O     O_3   0.126750 0.532408 0.414224 -0.563925
O92   O     O_3   0.527301 0.128374 0.414427 -0.563978
O93   O     O_3   0.079673 0.394663 0.586360 -0.544665
O94   O     O_3   0.395292 0.080364 0.586285 -0.544737
O95   O     O_3   0.920194 0.604996 0.586326 -0.544626
O96   O     O_3   0.604679 0.919660 0.586375 -0.544752

loop_
_geom_bond_atom_site_label_1
_geom_bond_atom_site_label_2
_ccdc_geom_bond_type
C73   H94   S    
Cu2   O41   S    
C133  C137  S    
C88   O73   S    
C8    C26   A    
C2    O63   S    
C9    C169  A    
C65   H74   S    
C159  O29   A    
C144  O3    A    
C46   O68   S    
C12   C172  A    
C2    C123  A    
C121  C166  A    
Cu5   O56   S    
C24   C98   A    
C35   C124  A    
C154  O22   A    
C90   C107  A    
H26   O65   S    
C170  N3    A    
C81   H111  S    
C92   C109  A    
C98   C114  A    
C20   C175  A    
C43   H102  S    
C118  C153  S    
Cu6   Cu7   S    
Cu4   O39   S    
C131  C140  T    
C8    C168  A    
C44   H2    S    
C158  O35   A    
C129  N5    S    
C80   H108  S    
C61   H62   S    
C71   H87   S    
C86   H14   S    
C94   O79   S    
C93   C110  A    
C21   C48   A    
C82   H4    S    
C62   H64   S    
Cu12  O36   S    
C59   C60   S    
C70   H85   S    
C11   C167  A    
C17   C30   A    
C96   C114  A    
Cu8   O27   S    
C133  O6    A    
C3    O57   S    
C59   O83   S    
C21   C32   A    
C161  O36   A    
C171  O50   S    
C128  N6    S    
C47   H17   S    
C176  O55   S    
C137  C146  T    
C81   O94   S    
C148  O9    A    
C112  C120  A    
C4    C23   A    
Cu3   Cu12  S    
C122  O89   A    
C6    C21   A    
C164  O41   A    
C61   O84   S    
C17   C43   A    
C57   C102  A    
C18   C44   A    
C51   H21   S    
C111  C130  S    
C109  O94   S    
C11   C27   A    
Cu2   O19   S    
C106  O91   S    
C55   H49   S    
C122  C136  S    
H37   O76   S    
C5    C25   A    
C172  O51   S    
C74   H95   S    
C84   H9    S    
C105  C118  A    
C66   H75   S    
C95   C166  A    
C133  O2    A    
C36   C50   A    
C39   C47   A    
C104  C117  A    
C102  O86   S    
C161  O40   A    
C167  O46   S    
C78   O93   S    
C56   H52   S    
C72   C73   S    
C1    C131  S    
C46   C125  A    
C173  O52   S    
Cu2   O24   S    
Cu3   O40   S    
C7    C22   A    
C147  C164  S    
C2    C96   A    
C103  C116  A    
C19   C174  A    
C78   H107  S    
C100  O45   A    
Cu11  O17   S    
C92   O76   S    
C75   H98   S    
C72   H90   S    
C13   C97   A    
C169  O48   S    
C20   C47   A    
C139  C157  S    
C163  O42   A    
Cu6   O3    S    
C18   C31   A    
C19   C30   A    
C143  C161  S    
C109  C120  A    
C50   H20   S    
C103  O87   S    
C82   H3    S    
C68   C103  A    
C55   H48   S    
C74   O91   S    
C148  O11   A    
C85   C86   S    
C34   C51   A    
Cu1   O1    S    
C65   O86   S    
C113  C148  S    
C89   O12   A    
C14   C173  A    
Cu11  O35   S    
C52   H41   S    
Cu9   Cu11  S    
C110  O95   S    
C67   H79   S    
C108  O93   S    
C58   H54   S    
C4    O58   S    
C82   H5    S    
C26   C33   A    
C140  C158  S    
C69   H82   S    
C6    O60   S    
C141  C159  S    
C83   C84   S    
Cu12  O42   S    
C9    C36   A    
C159  O33   A    
C107  C118  A    
C38   C48   A    
Cu11  O30   S    
C53   H42   S    
C125  N1    S    
C135  C143  T    
C152  O18   A    
C83   H7    S    
C174  N5    A    
C100  C134  S    
C155  O8    A    
Cu3   O38   S    
C46   C101  A    
C13   O64   S    
Cu4   O43   S    
C151  O15   A    
H31   O71   S    
C107  O92   S    
C24   C123  A    
C15   C170  A    
C59   H56   S    
Cu1   O23   S    
C70   O88   S    
C29   C30   A    
C153  O19   A    
H28   O68   S    
C39   H58   S    
C13   C121  A    
C85   H12   S    
C63   H68   S    
C87   C105  A    
C85   O96   S    
C24   O65   S    
H24   O64   S    
Cu1   O12   S    
C8    C34   A    
Cu7   O8    S    
Cu9   O28   S    
C96   O81   S    
C66   H77   S    
C80   H109  S    
Cu4   O26   S    
Cu3   O22   S    
Cu9   O15   S    
C175  N6    A    
C60   H61   S    
C54   H46   S    
C14   C29   A    
H23   O63   S    
Cu6   O89   S    
C52   C53   S    
C73   H93   S    
C132  C141  T    
C54   C55   S    
Cu5   O78   S    
Cu8   O16   S    
C65   H73   S    
C110  C119  A    
C19   C45   A    
C5    N8    A    
C6    N7    A    
C157  O27   A    
C93   C128  A    
C138  C144  S    
C54   O81   S    
C16   C171  A    
C97   O82   S    
C84   H8    S    
Cu1   Cu5   S    
C94   C112  A    
C56   C58   S    
C61   C62   S    
C53   H44   S    
C77   H105  S    
C63   C64   S    
C156  O24   A    
C170  O49   S    
C152  O20   A    
C60   H59   S    
C173  N4    A    
C75   H99   S    
C101  O85   S    
C76   H100  S    
C5    O59   S    
C149  O13   A    
C79   O71   S    
C86   H15   S    
C116  C151  S    
C112  O96   S    
C25   C33   A    
C62   H65   S    
C16   C42   A    
C160  O30   A    
C111  O78   A    
C77   H104  S    
C162  O37   A    
Cu10  O31   S    
Cu11  O13   S    
C122  O7    A    
H29   O69   S    
C12   C28   A    
C83   O95   S    
C76   O92   S    
C153  O21   A    
C99   C115  A    
C95   O80   S    
C163  O38   A    
H35   O75   S    
C120  C156  S    
Cu7   O6    S    
C102  C115  A    
C155  O4    A    
C52   H40   S    
C90   C127  A    
C70   C71   S    
C64   H71   S    
C7    O61   S    
C74   H96   S    
C108  C119  A    
C66   H76   S    
C130  C139  T    
Cu1   O34   S    
C157  O31   A    
H32   O72   S    
C40   C45   A    
C121  N4    S    
C91   C128  A    
C57   O69   S    
C15   C41   A    
C81   H112  S    
C67   H78   S    
C23   C50   A    
C84   H10   S    
C11   C38   A    
C126  N8    S    
C134  C142  T    
C156  O26   A    
C172  N3    A    
H39   O79   S    
C61   H63   S    
C127  N7    S    
C75   H97   S    
C71   H88   S    
C59   H57   S    
C72   O90   S    
C91   O75   S    
C119  C154  S    
H34   O74   S    
C106  C117  A    
C168  N1    A    
C160  O32   A    
C41   C44   A    
Cu6   O4    S    
Cu12  O25   S    
C42   C43   A    
C38   H47   S    
C162  O43   A    
C9    C27   A    
Cu4   O21   S    
Cu10  O29   S    
C1    O1    A    
Cu5   O45   S    
C27   C32   A    
C91   C108  A    
C28   C31   A    
Cu2   Cu4   S    
C40   H69   S    
C67   O87   S    
Cu2   O37   S    
Cu12  O18   S    
C175  O54   S    
C23   C32   A    
C12   C39   A    
C92   C129  A    
Cu9   O32   S    
C57   C124  A    
C150  O16   A    
C15   C28   A    
C176  N5    A    
C3    N6    A    
Cu8   Cu10  S    
C78   C80   S    
C55   H50   S    
C58   H55   S    
C124  N2    S    
Cu3   O20   S    
C69   H81   S    
C101  C116  A    
C41   H80   S    
C114  C149  S    
C104  O88   S    
Cu5   O67   S    
C56   H51   S    
C87   C127  A    
C81   C82   S    
C90   O74   S    
C135  C155  S    
Cu8   O33   S    
C89   C132  S    
C10   C37   A    
C144  O5    A    
C167  N2    A    
H33   O73   S    
C78   H106  S    
C145  C162  S    
C71   H86   S    
C37   C49   A    
C164  O39   A    
C3    C18   A    
C72   H89   S    
Cu8   O9    S    
C88   C126  A    
C85   H11   S    
C63   H67   S    
C49   H19   S    
C56   O82   S    
Cu6   O2    S    
Cu7   O7    S    
C151  O17   A    
C136  C145  T    
C17   C176  A    
C80   H110  S    
C10   C26   A    
C168  O47   S    
C158  O28   A    
Cu9   O10   S    
C35   C99   A    
C89   O56   A    
C64   H70   S    
C99   O84   S    
C73   H92   S    
C166  O62   S    
C100  O23   A    
C94   C129  A    
C74   C75   S    
C174  O53   S    
C76   C77   S    
C150  O14   A    
C35   O66   S    
C16   C29   A    
C14   C40   A    
Cu10  O14   S    
C67   C69   S    
C52   O80   S    
C58   H53   S    
C123  N3    S    
C169  N2    A    
C25   C51   A    
C36   H25   S    
C69   H83   S    
C88   C106  A    
C171  N4    A    
C70   H84   S    
C138  C147  T    
C48   H18   S    
H30   O70   S    
C76   H101  S    
C53   H43   S    
H38   O77   S    
C79   C126  A    
C7    N8    A    
C60   H60   S    
C22   C49   A    
C79   C104  A    
C154  O25   A    
C97   C113  A    
C86   H16   S    
Cu10  O11   S    
H22   O62   S    
H27   O66   S    
C1    O67   A    
C62   H66   S    
C22   C33   A    
C34   H1    S    
C165  O44   S    
C142  C160  S    
C77   H103  S    
C146  C163  S    
C111  O34   A    
C83   H6    S    
C42   H91   S    
C63   O85   S    
C149  O10   A    
C87   O72   S    
C95   C113  A    
C10   C165  A    
C93   O77   S    
C68   C125  A    
C115  C150  S    
C117  C152  S    
Cu7   O5    S    
C37   H36   S    
C4    N7    A    
C165  N1    A    
C45   H13   S    
C65   C66   S    
C68   O70   S    
C105  O90   S    
C54   H45   S    
C98   O83   S    
C64   H72   S    
C20   C31   A    
