data_mof_unit_49219.cif
_audit_creation_date              2012-12-11T14:58:20-0500
_audit_creation_method            fapswitch 2.2
_symmetry_space_group_name_H-M    P1
_symmetry_Int_Tables_number       1
_space_group_crystal_system       triclinic
_cell_length_a                    11.024153
_cell_length_b                    10.960761
_cell_length_c                    18.744337
_cell_angle_alpha                 90.137848
_cell_angle_beta                  90.339129
_cell_angle_gamma                 59.618796
_cell_volume                      1953.8798677

loop_
_atom_site_label
_atom_site_type_symbol
_atom_type_description
_atom_site_fract_x
_atom_site_fract_y
_atom_site_fract_z
_atom_type_partial_charge
C1    C     C_R   0.359167 0.772557 0.397964 0.544015
C2    C     C_R   0.604566 0.095438 0.176009 0.026807
C3    C     C_R   0.355711 0.319100 0.166280 0.007767
C4    C     C_R   0.464007 0.219315 0.279605 -0.148660
C5    C     C_R   0.471802 0.213606 0.206422 -0.026989
C6    C     C_R   0.076246 0.706115 0.283381 -0.073547
C7    C     C_R   0.958835 0.823947 0.312473 -0.096289
C8    C     C_R   0.610373 0.973632 0.149545 -0.036180
C9    C     C_R   0.728469 0.872005 0.112687 0.069914
C10   C     C_R   0.244834 0.433970 0.201508 -0.154581
C11   C     C_R   0.241526 0.443893 0.275563 -0.034673
C12   C     C_R   0.383307 0.352532 0.389065 0.545621
C13   C     C_R   0.881246 0.806416 0.365830 -0.108462
C14   C     C_R   0.921513 0.671036 0.390569 -0.110926
C15   C     C_R   0.039423 0.552758 0.362023 -0.049498
C16   C     C_R   0.118464 0.569117 0.308218 0.063759
C17   C     C_R   0.354027 0.334603 0.315116 -0.005146
C18   C     C_R   0.955086 0.297844 0.308386 -0.157467
C19   C     C_R   0.984507 0.289737 0.236178 -0.131835
C20   C     C_R   0.875239 0.335839 0.185942 0.032135
C21   C     C_R   0.735447 0.404546 0.207171 -0.160492
C22   C     C_R   0.705961 0.410813 0.279311 -0.134161
C23   C     C_R   0.778059 0.378263 0.403367 0.530923
C24   C     C_R   0.815950 0.356299 0.329546 0.044312
C25   C     C_R   0.472622 0.768804 0.285386 -0.135306
C26   C     C_R   0.460516 0.789378 0.212162 -0.169405
C27   C     C_R   0.328337 0.878113 0.182732 0.021455
C28   C     C_R   0.210070 0.948195 0.227142 -0.143467
C29   C     C_R   0.220847 0.923485 0.299328 -0.149831
C30   C     C_R   0.351161 0.829696 0.328115 0.033330
C31   C     C_R   0.494415 0.268425 0.721943 -0.121203
C32   C     C_R   0.474012 0.256367 0.794143 0.258182
C33   C     C_R   0.340376 0.346481 0.824560 0.061045
C34   C     C_R   0.345868 0.767265 0.604917 0.540631
C35   C     C_R   0.247609 0.472470 0.788538 0.013256
C36   C     C_R   0.275279 0.489361 0.717423 -0.152313
C37   C     C_R   0.389840 0.378587 0.681770 -0.044839
C38   C     C_R   0.888473 0.414038 0.711853 0.264346
C39   C     C_R   0.937222 0.384219 0.781236 -0.100967
C40   C     C_R   0.924511 0.283816 0.820859 -0.014331
C41   C     C_R   0.881232 0.197797 0.787476 -0.133690
C42   C     C_R   0.847436 0.215435 0.715088 -0.186184
C43   C     C_R   0.841625 0.329304 0.678067 0.033840
C44   C     C_R   0.194408 0.871301 0.709101 -0.148460
C45   C     C_R   0.409196 0.381160 0.604467 0.575572
C46   C     C_R   0.181566 0.883796 0.782233 -0.135818
C47   C     C_R   0.300116 0.840401 0.825856 0.057347
C48   C     C_R   0.434169 0.774927 0.795602 0.066063
C49   C     C_R   0.447245 0.763235 0.722154 -0.118448
C50   C     C_R   0.327351 0.811788 0.678599 0.000559
C51   C     C_R   0.911496 0.316488 0.111892 0.563389
C52   C     C_R   0.328673 0.292353 0.093234 0.550630
C53   C     C_R   0.304223 0.904370 0.106879 0.556866
C54   C     C_R   0.949397 0.280027 0.897377 0.575955
C55   C     C_R   0.302135 0.295233 0.889063 0.567537
C56   C     C_R   0.766910 0.375203 0.609771 0.550285
C57   C     C_R   0.276367 0.891927 0.898629 0.575032
C58   C     C_R   0.850106 0.880792 0.111582 -0.094129
C59   C     C_R   0.851637 0.992034 0.146689 -0.131477
C60   C     C_R   0.729582 0.098699 0.178786 -0.120936
Cr1   Cr    Cr6+3 0.601770 0.606860 0.505860 0.999347
Cr2   Cr    Cr6+3 0.291380 0.601660 0.495070 0.999376
Cr3   Cr    Cr6+3 0.606880 0.291510 0.499120 0.996213
Cr4   Cr    Cr6+3 0.062440 0.063090 0.008210 1.016549
Cr5   Cr    Cr6+3 0.062880 0.375170 0.998920 1.070971
Cr6   Cr    Cr6+3 0.374700 0.061720 0.992470 1.042757
H1    H     H_    0.551554 0.135279 0.308877 0.145754
H2    H     H_    0.790149 0.897773 0.388139 0.110742
H3    H     H_    0.861340 0.658123 0.432066 0.123470
H4    H     H_    0.069876 0.448861 0.382329 0.096266
H5    H     H_    0.039604 0.258832 0.347248 0.095527
H6    H     H_    0.092563 0.245526 0.219198 0.118149
H7    H     H_    0.650772 0.445524 0.168270 0.128123
H8    H     H_    0.597417 0.458853 0.296199 0.124662
H9    H     H_    0.575264 0.697113 0.307789 0.152528
H10   H     H_    0.552429 0.733805 0.179055 0.144525
H11   H     H_    0.107430 0.019371 0.205580 0.126419
H12   H     H_    0.127145 0.971911 0.331952 0.121595
H13   H     H_    0.592407 0.192900 0.697408 0.123737
H14   H     H_    0.206260 0.586751 0.689553 0.151124
H15   H     H_    0.969158 0.452130 0.806671 0.181214
H16   H     H_    0.868286 0.121353 0.817686 0.161488
H17   H     H_    0.815213 0.147600 0.689792 0.119326
H18   H     H_    0.101213 0.903872 0.676704 0.134570
H19   H     H_    0.928128 0.929036 0.293849 0.107204
H20   H     H_    0.078216 0.928668 0.804824 0.147988
H21   H     H_    0.551932 0.708103 0.699723 0.193059
H22   H     H_    0.942873 0.801932 0.083916 0.136547
H23   H     H_    0.946891 0.995812 0.148385 0.152276
H24   H     H_    0.733043 0.181157 0.207342 0.127823
H25   H     H_    0.134903 0.721718 0.241826 0.113525
H26   H     H_    0.518784 0.965216 0.153764 0.154258
H27   H     H_    0.155824 0.513764 0.171264 0.143583
O1    O     O_R   0.748800 0.497470 0.428000 -0.539026
O2    O     O_R   0.300070 0.471040 0.567100 -0.519362
O3    O     O_R   0.491670 0.258900 0.574910 -0.518806
O4    O     O_R   0.718780 0.304180 0.577850 -0.536412
O5    O     O_3   0.500010 0.500010 0.500020 -0.270254
O6    O     O_R   0.186690 0.923650 0.086970 -0.534170
O7    O     O_R   0.957250 0.194250 0.084630 -0.519867
O8    O     O_R   0.934970 0.407490 0.085330 -0.475453
O9    O     O_R   0.203780 0.365190 0.067090 -0.502079
O10   O     O_R   0.417600 0.174890 0.067840 -0.513285
O11   O     O_R   0.375320 0.946260 0.070860 -0.496379
O12   O     O_R   0.476420 0.724060 0.429470 -0.510297
O13   O     O_R   0.160600 0.919630 0.926660 -0.518040
O14   O     O_R   0.933060 0.190520 0.936020 -0.490088
O15   O     O_R   0.908880 0.403460 0.925020 -0.451299
O16   O     O_R   0.179600 0.361450 0.918490 -0.501875
O17   O     O_R   0.391510 0.170860 0.907530 -0.488392
O18   O     O_R   0.351130 0.942530 0.922260 -0.480951
O19   O     O_3   0.166667 0.166667 0.999870 -0.299467
O20   O     O_R   0.264580 0.744340 0.416750 -0.505516
O21   O     O_R   0.309380 0.472470 0.418200 -0.489608
O22   O     O_R   0.501710 0.260430 0.414300 -0.526635
O23   O     O_R   0.728090 0.305600 0.428960 -0.501971
O24   O     O_R   0.738760 0.495930 0.588610 -0.468715
O25   O     O_R   0.467110 0.722640 0.578360 -0.504547
O26   O     O_R   0.254530 0.742800 0.577360 -0.537088
I1    I     I_    0.717175 0.718469 0.051000 -0.311647
O27   O     O_3   0.587657 0.172501 0.838148 -0.535155
C61   C     C_3   0.650367 0.028495 0.819494 -0.004610
H28   H     H_    0.725051 0.003411 0.774737 0.118193
H29   H     H_    0.570961 0.998236 0.804467 0.157470
C62   C     C_3   0.731874 0.941371 0.884095 -0.305665
H30   H     H_    0.660773 0.967801 0.930514 0.199203
H31   H     H_    0.778312 0.827654 0.872181 0.170411
H32   H     H_    0.817261 0.962965 0.898155 0.165768
I2    I     I_    0.078708 0.645211 0.840934 -0.454291
O28   O     O_3   0.855067 0.544658 0.684497 -0.535585
C63   C     C_3   0.975462 0.543574 0.658917 -0.005235
H33   H     H_    0.074307 0.438414 0.661586 0.123568
H34   H     H_    0.988267 0.620711 0.691333 0.166898
C64   C     C_3   0.950949 0.595496 0.582016 -0.344626
H35   H     H_    0.845715 0.691997 0.576255 0.155576
H36   H     H_    0.031445 0.622238 0.566109 0.125595
H37   H     H_    0.957999 0.511757 0.545891 0.152481
I3    I     I_    0.619619 0.674482 0.857231 -0.300323

loop_
_geom_bond_atom_site_label_1
_geom_bond_atom_site_label_2
_ccdc_geom_bond_type
C34   O25   A    
C52   O10   A    
C33   C55   S    
C41   C42   A    
C49   H21   S    
Cr1   O5    S    
Cr5   O8    S    
C63   C64   S    
C64   H37   S    
C57   O18   A    
C53   O6    A    
C52   O9    A    
C26   C27   A    
C54   O14   A    
C18   C24   A    
C38   O28   S    
C28   C29   A    
Cr2   O21   S    
Cr3   O5    S    
C59   H23   S    
C38   C39   A    
C2    C60   A    
Cr4   O19   S    
C53   O11   A    
C6    H25   S    
C21   H7    S    
C34   O26   A    
C18   C19   A    
C56   O24   A    
C23   O23   A    
Cr2   O5    S    
Cr4   O6    S    
C11   C17   A    
C29   H12   S    
C47   C48   A    
Cr2   O2    S    
C8    C9    A    
C12   C17   S    
C62   H32   S    
C26   H10   S    
C23   C24   S    
C8    H26   S    
Cr6   O18   S    
Cr1   O12   S    
C35   I2    S    
Cr5   O15   S    
C12   O22   A    
Cr3   O22   S    
C57   O13   A    
C59   C60   A    
C13   C14   A    
C55   O16   A    
C19   H6    S    
C1    O20   A    
Cr5   O9    S    
Cr6   O10   S    
C44   C46   A    
C12   O21   A    
C34   C50   S    
Cr1   O24   S    
Cr6   O11   S    
C39   H15   S    
Cr2   O20   S    
C36   H14   S    
C39   C40   A    
Cr1   O1    S    
C64   H36   S    
C10   H27   S    
C44   H18   S    
C58   C59   A    
Cr3   O3    S    
C31   C37   A    
C25   H9    S    
C35   C36   A    
Cr5   O19   S    
C29   C30   A    
C18   H5    S    
C47   C57   S    
C11   C16   S    
C31   C32   A    
C7    C13   A    
O27   C61   S    
Cr6   O17   S    
C31   H13   S    
C28   H11   S    
Cr5   O16   S    
Cr2   O26   S    
C64   H35   S    
Cr3   O23   S    
C48   C49   A    
C40   C54   S    
C55   O17   A    
C62   H30   S    
C14   H3    S    
C22   C24   A    
C2    C5    S    
C51   O8    A    
C42   C43   A    
C4    C17   A    
C61   H29   S    
C63   H33   S    
C45   O2    A    
C3    C5    A    
Cr4   O14   S    
C44   C50   A    
C25   C30   A    
C15   H4    S    
C46   C47   A    
C9    C58   A    
Cr1   O25   S    
C32   O27   S    
C2    C8    A    
C42   H17   S    
C4    C5    A    
C63   H34   S    
C58   H22   S    
C54   O15   A    
C4    H1    S    
C3    C52   S    
C27   C53   S    
Cr4   O13   S    
C6    C7    A    
C60   H24   S    
C20   C51   S    
C23   O1    A    
C48   I3    S    
C51   O7    A    
C32   C33   A    
C19   C20   A    
O28   C63   S    
C25   C26   A    
C38   C43   A    
Cr3   O4    S    
C3    C10   A    
C7    H19   S    
C56   O4    A    
C61   C62   S    
C41   H16   S    
C1    C30   S    
C33   C35   A    
C10   C11   A    
C6    C16   A    
C43   C56   S    
Cr4   O7    S    
C20   C21   A    
C36   C37   A    
C49   C50   A    
C27   C28   A    
C62   H31   S    
C9    I1    S    
C22   H8    S    
C14   C15   A    
C40   C41   A    
Cr6   O19   S    
C61   H28   S    
C21   C22   A    
C45   O3    A    
C37   C45   S    
C15   C16   A    
C1    O12   A    
C46   H20   S    
C13   H2    S    
