data_mof_unit_55407.cif
_audit_creation_date              2013-03-05T15:45:48-0500
_audit_creation_method            fapswitch 2.2
_symmetry_space_group_name_H-M    P1
_symmetry_Int_Tables_number       1
_space_group_crystal_system       triclinic
_cell_length_a                    9.876794
_cell_length_b                    11.072894
_cell_length_c                    15.631846
_cell_angle_alpha                 95.853871
_cell_angle_beta                  79.000802
_cell_angle_gamma                 111.272545
_cell_volume                      1562.82153537

loop_
_atom_site_label
_atom_site_type_symbol
_atom_site_description
_atom_site_fract_x
_atom_site_fract_y
_atom_site_fract_z
_atom_type_partial_charge
O1    O     O_R   0.426810 0.668300 0.492040 -0.503434
O2    O     O_R   0.573190 0.331700 0.507960 -0.498608
O3    O     O_R   0.658240 0.703130 0.517240 -0.583862
O4    O     O_R   0.341760 0.296870 0.482760 -0.575696
C1    C     C_R   0.556424 0.744992 0.505468 0.873905
C2    C     C_R   0.443949 0.255164 0.493691 0.881946
O5    O     O_R   0.319390 0.472820 0.610170 -0.548079
O6    O     O_R   0.680610 0.527180 0.389830 -0.552860
O7    O     O_R   0.550820 0.507640 0.635370 -0.556801
O8    O     O_R   0.449180 0.492360 0.364630 -0.567032
C3    C     C_R   0.411020 0.483764 0.663216 0.813809
C4    C     C_R   0.588410 0.513831 0.336584 0.824665
Cu1   Cu    Cu3+1 0.362980 0.479380 0.485080 1.097454
Cu2   Cu    Cu3+1 0.637020 0.520620 0.514920 1.100750
C5    C     C_R   0.354958 0.452249 0.755729 -0.055335
C6    C     C_R   0.639731 0.514465 0.241469 -0.076215
C7    C     C_R   0.161629 0.333381 0.868527 -0.073652
C8    C     C_R   0.835438 0.544221 0.117370 -0.061752
C9    C     C_R   0.206771 0.380222 0.784391 -0.155001
C10   C     C_R   0.789666 0.552338 0.206948 -0.133151
C11   C     C_R   0.455786 0.478636 0.813065 -0.091233
C12   C     C_R   0.536523 0.472694 0.184539 -0.090826
C13   C     C_R   0.416534 0.418966 0.893922 0.051125
C14   C     C_R   0.579056 0.454616 0.094222 0.049318
C15   C     C_R   0.265239 0.351661 0.923980 0.061699
C16   C     C_R   0.731801 0.496761 0.060215 0.051500
C17   C     C_R   0.523212 0.428615 0.946585 -0.121879
C18   C     C_R   0.474077 0.403392 0.036531 -0.118523
C19   C     C_R   0.323103 0.326479 0.064534 0.245735
C20   C     C_R   0.676306 0.458737 0.912616 0.239337
C21   C     C_R   0.219872 0.298722 0.006948 0.328863
C22   C     C_R   0.779699 0.489582 0.970116 0.330548
H1    H     H_    0.423178 0.458251 0.211453 0.204614
H2    H     H_    0.565349 0.546495 0.793314 0.191058
H3    H     H_    0.871964 0.591140 0.248880 0.212597
H4    H     H_    0.126347 0.357174 0.741317 0.207191
H5    H     H_    0.045667 0.279515 0.888917 0.208686
H6    H     H_    0.952733 0.576404 0.093129 0.208932
C23   C     C_2   0.581184 0.882633 0.517173 -0.334597
C24   C     C_2   0.420142 0.118202 0.479272 -0.319965
C25   C     C_2   0.501904 0.935397 0.482378 0.285736
C26   C     C_2   0.492360 0.062129 0.517214 0.267721
H7    H     H_    0.357892 0.069492 0.427927 0.193104
H8    H     H_    0.651275 0.935359 0.564118 0.184634
N1    N     N_2   0.842890 0.551600 0.537350 -0.306297
N2    N     N_2   0.157110 0.448400 0.462650 -0.315065
C27   C     C_2   0.925240 0.491596 0.490567 0.367092
C28   C     C_2   0.074454 0.507467 0.510107 0.361339
H9    H     H_    0.119640 0.390957 0.409967 0.252296
H10   H     H_    0.881012 0.609784 0.589642 0.250166
O9    O     O_3   0.074071 0.219989 0.029516 -0.687909
H11   H     H_    0.065196 0.160879 0.075242 0.385630
O10   O     O_3   0.928374 0.514634 0.940547 -0.703469
H12   H     H_    0.943262 0.477276 0.880857 0.375677
N3    N     N_R   0.277349 0.263634 0.146578 0.092264
O11   O     O_R   0.346404 0.192655 0.166117 -0.315796
O12   O     O_R   0.167998 0.278528 0.202397 -0.320494
N4    N     N_R   0.725926 0.445049 0.820913 0.092393
O13   O     O_R   0.670991 0.335266 0.779198 -0.264196
O14   O     O_R   0.824247 0.543059 0.778693 -0.324014
N5    N     N_R   0.555233 0.123139 0.593616 0.136924
O15   O     O_R   0.697086 0.164477 0.591365 -0.291585
O16   O     O_R   0.472191 0.152514 0.661425 -0.307103
N6    N     N_R   0.428528 0.869649 0.410295 0.135646
O17   O     O_R   0.286354 0.835757 0.417046 -0.313029
O18   O     O_R   0.502344 0.832723 0.341094 -0.332219
N7    N     N_R   0.123578 0.586528 0.584361 0.130495
O19   O     O_R   0.173594 0.712012 0.579411 -0.323467
O20   O     O_R   0.076309 0.536724 0.660921 -0.323366
N8    N     N_R   0.875192 0.409507 0.417577 0.127317
O21   O     O_R   0.933080 0.452332 0.339700 -0.363583
O22   O     O_R   0.818453 0.284757 0.426761 -0.312076

loop_
_geom_bond_atom_site_label_1
_geom_bond_atom_site_label_2
_geom_bond_distance
_ccdc_geom_bond_type
C15   C21   1.403282 A    
O5    Cu1   1.923335 S    
O5    C3    1.306754 A    
O7    Cu2   1.909285 S    
C27   N8    1.431785 S    
C16   C22   1.401405 A    
C23   H8    1.082504 S    
C13   C17   1.425002 A    
C14   C18   1.426815 A    
C25   C26   1.481606 S    
C27   C28   1.506336 S    
C8    C16   1.408916 A    
C1    C23   1.451151 S    
C6    C10   1.396661 A    
O6    C4    1.307804 A    
C7    C15   1.411387 A    
N6    O17   1.301143 A    
N3    O11   1.301380 A    
C24   C26   1.343118 D    
C8    H6    1.083136 S    
C19   C21   1.418012 A    
C7    H5    1.083015 S    
Cu1   Cu2   2.700643 S    
C17   C20   1.429468 A    
C20   C22   1.414903 A    
O7    C3    1.301981 A    
C26   N5    1.443035 S    
C2    C24   1.448386 S    
O2    C2    1.297117 A    
O3    Cu2   1.951908 S    
O8    C4    1.301439 A    
N1    H10   1.029082 S    
O1    C1    1.296689 A    
C20   N4    1.435105 S    
O4    C2    1.296632 A    
C18   C19   1.430348 A    
C7    C9    1.394685 A    
C14   C16   1.417769 A    
Cu2   N1    2.028905 S    
C8    C10   1.391206 A    
C9    H4    1.082311 S    
N3    O12   1.302036 A    
C11   C13   1.407792 A    
N5    O15   1.301091 A    
O2    Cu2   1.951438 S    
C12   C14   1.409546 A    
N8    O21   1.299676 A    
O1    Cu1   1.951436 S    
O4    Cu1   1.951910 S    
N7    O20   1.299600 A    
N4    O14   1.301234 A    
N7    O19   1.299981 A    
N2    C28   1.304584 D    
C4    C6    1.476348 S    
C22   O10   1.385086 S    
C5    C11   1.398733 A    
C13   C15   1.415828 A    
C23   C25   1.345226 D    
N1    C27   1.305303 D    
C21   O9    1.384245 S    
C17   C18   1.418383 A    
N5    O16   1.301378 A    
C12   H1    1.076992 S    
Cu1   N2    2.028905 S    
O6    Cu2   1.923333 S    
C11   H2    1.077389 S    
C19   N3    1.437351 S    
C25   N6    1.444411 S    
C28   N7    1.431253 S    
N4    O13   1.300786 A    
C5    C9    1.398086 A    
C10   H3    1.080459 S    
C3    C5    1.475424 S    
N8    O22   1.300321 A    
C24   H7    1.082820 S    
N2    H9    1.028772 S    
O9    H11   0.988366 S    
O10   H12   0.988129 S    
C6    C12   1.401808 A    
O3    C1    1.298555 A    
O8    Cu1   1.909282 S    
N6    O18   1.301541 A    
