data_mof_unit_65698.cif
_audit_creation_date              2012-12-10T17:06:40-0500
_audit_creation_method            fapswitch 2.2
_symmetry_space_group_name_H-M    P1
_symmetry_Int_Tables_number       1
_space_group_crystal_system       triclinic
_cell_length_a                    14.155377
_cell_length_b                    10.685369
_cell_length_c                    10.034769
_cell_angle_alpha                 88.631754
_cell_angle_beta                  90.078329
_cell_angle_gamma                 90.13315
_cell_volume                      1517.37509875

loop_
_atom_site_label
_atom_site_type_symbol
_atom_type_description
_atom_site_fract_x
_atom_site_fract_y
_atom_site_fract_z
_atom_type_partial_charge
C1    C     C_R   0.493111 0.262765 0.501798 0.795279
C2    C     C_R   0.504388 0.737640 0.498186 0.799098
C3    C     C_R   0.670798 0.500167 0.500068 0.856533
C4    C     C_1   0.227699 0.500498 0.499841 -0.126036
C5    C     C_1   0.142454 0.500822 0.499976 0.030270
C6    C     C_1   0.042574 0.501125 0.500214 0.033499
C7    C     C_1   0.957338 0.501213 0.500330 0.023879
C8    C     C_1   0.857476 0.501048 0.500289 -0.015668
C9    C     C_3   0.631872 0.878298 0.654060 0.188788
C10   C     C_3   0.705999 0.965371 0.710985 -0.775868
C11   C     C_3   0.719660 0.617905 0.942150 -0.000408
C12   C     C_1   0.772246 0.500698 0.500221 -0.185800
C13   C     C_3   0.807906 0.625972 0.855991 -0.753349
C14   C     C_2   0.452299 0.933118 0.410504 0.604397
C15   C     C_2   0.513972 0.871466 0.489968 0.228276
C16   C     C_2   0.457584 0.067855 0.398645 -0.312839
C17   C     C_2   0.470013 0.132829 0.509048 0.470739
C18   C     C_2   0.561626 0.560672 0.924110 0.615047
C19   C     C_2   0.543515 0.582121 0.070979 -0.014627
C20   C     C_R   0.329184 0.500155 0.499942 0.883583
F1    F     F_    0.382525 0.872985 0.343460 -0.649613
F2    F     F_    0.458543 0.078310 0.632421 -0.628135
F3    F     F_    0.414700 0.485137 0.904622 -0.515373
F4    F     F_    0.491632 0.386234 0.099540 -0.515636
H1    H     H_    0.456006 0.111903 0.299967 0.185023
H2    H     H_    0.804294 0.708812 0.787343 0.245993
H3    H     H_    0.871417 0.634343 0.920259 0.219068
H4    H     H_    0.814354 0.540175 0.796425 0.259726
H5    H     H_    0.571059 0.666389 0.115104 0.056246
H6    H     H_    0.666592 0.787900 0.631653 0.147862
H7    H     H_    0.576026 0.864044 0.731093 0.205761
H8    H     H_    0.673960 0.057728 0.731546 0.281592
H9    H     H_    0.734462 0.924592 0.805553 0.207982
H10   H     H_    0.764851 0.978737 0.638922 0.248399
H11   H     H_    0.726239 0.532566 0.007763 0.154154
H12   H     H_    0.716650 0.702696 0.004085 0.156369
N1    N     N_2   0.500930 0.501330 0.852150 0.170812
N2    N     N_2   0.500950 0.501360 0.147810 0.191216
O1    O     O_R   0.499990 0.319060 0.613040 -0.549090
O2    O     O_3   0.639310 0.613238 0.858712 -0.658525
O3    O     O_R   0.500010 0.319100 0.386900 -0.597360
O4    O     O_R   0.373700 0.499980 0.613090 -0.546530
O5    O     O_R   0.373730 0.500020 0.386960 -0.561924
O6    O     O_R   0.499990 0.680900 0.613100 -0.621848
O7    O     O_R   0.500010 0.680940 0.386960 -0.595481
O8    O     O_R   0.626270 0.499980 0.613040 -0.573516
O9    O     O_R   0.626300 0.500020 0.386910 -0.614007
O10   O     O_3   0.594212 0.933851 0.536608 -0.648690
Zn1   Zn    Zn3+2 0.499980 0.499970 0.650990 1.118868
Zn2   Zn    Zn3+2 0.500020 0.500030 0.349010 1.081867

loop_
_geom_bond_atom_site_label_1
_geom_bond_atom_site_label_2
_ccdc_geom_bond_type
O6    Zn1   S    
F4    N2    S    
C13   H4    S    
C15   O10   S    
C6    C7    T    
N2    Zn2   S    
C19   N2    D    
O9    Zn2   S    
N1    Zn1   S    
C9    C10   S    
C3    O8    A    
C20   O4    A    
C17   F2    S    
C8    C12   T    
C11   H11   S    
C7    C8    S    
O5    Zn2   S    
C2    C15   S    
C11   C13   S    
O8    Zn1   S    
C11   O2    S    
O7    Zn2   S    
C9    H6    S    
C14   F1    S    
C3    O9    A    
C11   H12   S    
O1    Zn1   S    
C18   N1    D    
C10   H9    S    
C2    O7    A    
C5    C6    S    
C14   C16   S    
C13   H2    S    
C16   C17   D    
C1    O1    A    
O4    Zn1   S    
C4    C20   S    
C10   H8    S    
O3    Zn2   S    
C20   O5    A    
C9    O10   S    
C10   H10   S    
C18   C19   S    
C1    O3    A    
C16   H1    S    
C9    H7    S    
C14   C15   D    
C13   H3    S    
C18   O2    S    
C3    C12   S    
F3    N1    S    
C1    C17   S    
C2    O6    A    
C4    C5    T    
C19   H5    S    
