data_mof_unit_13618.cif
_audit_creation_date              2012-12-10T18:37:18-0500
_audit_creation_method            fapswitch 2.2
_symmetry_space_group_name_H-M    P1
_symmetry_Int_Tables_number       1
_space_group_crystal_system       triclinic
_cell_length_a                    15.160757
_cell_length_b                    13.802378
_cell_length_c                    10.74215
_cell_angle_alpha                 89.726446
_cell_angle_beta                  89.403682
_cell_angle_gamma                 90.095016
_cell_volume                      2247.69257497

loop_
_atom_site_label
_atom_site_type_symbol
_atom_type_description
_atom_site_fract_x
_atom_site_fract_y
_atom_site_fract_z
_atom_type_partial_charge
C1    C     C_R   0.329856 0.499997 0.499085 0.760618
C2    C     C_3   0.581102 0.519498 0.923696 -0.469591
C3    C     C_R   0.096032 0.584299 0.536725 -0.170654
C4    C     C_R   0.095341 0.415622 0.474013 -0.169828
C5    C     C_R   0.187630 0.584505 0.532809 -0.194920
C6    C     C_R   0.186987 0.415667 0.471088 -0.206068
C7    C     C_R   0.233608 0.500060 0.500742 -0.022256
C8    C     C_R   0.049271 0.499928 0.506973 0.159522
C9    C     C_R   0.905431 0.421533 0.555970 -0.245678
C10   C     C_R   0.907207 0.578630 0.455277 -0.247228
C11   C     C_R   0.813588 0.420714 0.554969 0.400443
C12   C     C_R   0.815562 0.577556 0.448411 0.418486
C13   C     C_R   0.767410 0.499401 0.501424 -0.261258
C14   C     C_R   0.952527 0.500431 0.507291 -0.045299
C15   C     C_R   0.548732 0.106500 0.585950 -0.382970
C16   C     C_R   0.573555 0.893623 0.458195 -0.386165
C17   C     C_R   0.497783 0.500016 0.259630 0.771109
C18   C     C_R   0.547532 0.208400 0.585784 0.071238
C19   C     C_R   0.572090 0.791717 0.458014 0.054777
C20   C     C_R   0.451790 0.210130 0.413693 -0.033154
C21   C     C_R   0.427705 0.790691 0.542379 -0.034902
C22   C     C_R   0.452432 0.107972 0.408269 0.418171
C23   C     C_R   0.425799 0.893047 0.543119 0.391276
C24   C     C_R   0.500340 0.054667 0.497429 0.051377
C25   C     C_R   0.499658 0.945882 0.499496 0.054637
C26   C     C_R   0.670400 0.499903 0.500298 0.834075
C27   C     C_R   0.491352 0.499552 0.739756 0.730682
C28   C     C_3   0.418243 0.567243 0.075684 -0.396215
C29   C     C_3   0.475525 0.394912 0.074504 -0.408919
C30   C     C_3   0.426188 0.581976 0.932671 -0.045533
C31   C     C_3   0.457559 0.395281 0.932890 -0.036297
C32   C     C_3   0.582067 0.533241 0.065740 -0.421143
C33   C     C_3   0.493234 0.499299 0.121913 0.126176
C34   C     C_3   0.485357 0.498316 0.877912 0.121633
Cu1   Cu    Cu3+1 0.499990 0.596430 0.500000 0.929217
Cu2   Cu    Cu3+1 0.499990 0.403570 0.500000 0.924595
H1    H     H_    0.422268 0.639299 0.121353 0.161593
H2    H     H_    0.534015 0.348574 0.093373 0.168164
H3    H     H_    0.586338 0.068301 0.655852 0.160943
H4    H     H_    0.631682 0.931524 0.424286 0.167294
H5    H     H_    0.584182 0.247329 0.655140 0.145072
H6    H     H_    0.629070 0.753388 0.423597 0.182460
H7    H     H_    0.412996 0.250754 0.347611 0.131667
H8    H     H_    0.370736 0.751204 0.576476 0.133410
H9    H     H_    0.353184 0.535256 0.101706 0.158309
H10   H     H_    0.419671 0.362198 0.128431 0.155922
H11   H     H_    0.463936 0.650567 0.917472 0.161620
H12   H     H_    0.501666 0.339654 0.890811 0.143904
H13   H     H_    0.592876 0.610998 0.087579 0.171039
H14   H     H_    0.637364 0.490789 0.105677 0.159650
H15   H     H_    0.609196 0.585508 0.878168 0.178557
H16   H     H_    0.625279 0.458428 0.899405 0.165929
H17   H     H_    0.061764 0.649853 0.563647 0.134117
H18   H     H_    0.060496 0.350208 0.448544 0.134752
H19   H     H_    0.222424 0.650465 0.555624 0.145798
H20   H     H_    0.221292 0.349991 0.444689 0.151731
H21   H     H_    0.939818 0.360631 0.596876 0.157015
H22   H     H_    0.943093 0.639340 0.415194 0.154454
N1    N     N_R   0.500020 0.258690 0.500000 -0.197560
N2    N     N_R   0.500020 0.741310 0.500000 -0.192934
O1    O     O_R   0.371450 0.581430 0.500010 -0.596469
O2    O     O_R   0.371450 0.418570 0.500010 -0.592545
O3    O     O_R   0.499980 0.581440 0.317690 -0.587542
O4    O     O_R   0.499980 0.418560 0.317690 -0.594480
O5    O     O_R   0.628540 0.581440 0.499990 -0.558691
O6    O     O_R   0.628540 0.418560 0.499990 -0.539982
O7    O     O_R   0.500010 0.581440 0.682310 -0.586147
O8    O     O_R   0.500010 0.418560 0.682310 -0.612586
O9    O     O_3   0.770567 0.339781 0.601669 -0.588240
C35   C     C_3   0.748543 0.354299 0.728458 0.040460
H23   H     H_    0.678795 0.377882 0.733809 0.158146
H24   H     H_    0.790169 0.409884 0.775554 0.119773
C36   C     C_3   0.758516 0.258478 0.798948 -0.327335
H25   H     H_    0.722420 0.200094 0.749939 0.221642
H26   H     H_    0.829474 0.238494 0.801275 0.218064
C37   C     C_3   0.722983 0.265719 0.932067 -0.953735
H27   H     H_    0.756611 0.325062 0.982620 0.258166
H28   H     H_    0.734795 0.196415 0.982020 0.263423
H29   H     H_    0.650908 0.279506 0.931571 0.247164
O10   O     O_3   0.774142 0.654482 0.390496 -0.614381
C38   C     C_3   0.753229 0.629108 0.266610 0.064941
H30   H     H_    0.693112 0.670039 0.240920 0.154333
H31   H     H_    0.736990 0.550771 0.255486 0.108556
C39   C     C_3   0.827947 0.658134 0.176675 -0.356787
H32   H     H_    0.843630 0.736191 0.188797 0.227235
H33   H     H_    0.887948 0.615192 0.197381 0.213758
C40   C     C_3   0.802465 0.640325 0.041566 -0.931036
H34   H     H_    0.787869 0.562337 0.026828 0.254550
H35   H     H_    0.857977 0.661699 0.978985 0.260224
H36   H     H_    0.743691 0.684057 0.016901 0.253318
O11   O     O_3   0.402509 0.061389 0.319576 -0.602832
C41   C     C_3   0.456527 0.037336 0.215844 0.064336
H37   H     H_    0.426853 0.972774 0.171117 0.172808
H38   H     H_    0.524968 0.016278 0.241930 0.126071
C42   C     C_3   0.459003 0.120581 0.120773 -0.381306
H39   H     H_    0.390524 0.142592 0.098396 0.223855
H40   H     H_    0.493643 0.183719 0.161160 0.204686
C43   C     C_3   0.507166 0.091407 0.001224 -0.945734
H41   H     H_    0.577104 0.073884 0.021173 0.262542
H42   H     H_    0.505478 0.152321 0.933366 0.251884
H43   H     H_    0.475016 0.027348 0.958871 0.252753
O12   O     O_3   0.349878 0.940345 0.580380 -0.597138
C44   C     C_3   0.353514 0.955757 0.709992 0.025611
H44   H     H_    0.407537 0.007494 0.732119 0.153659
H45   H     H_    0.364455 0.886394 0.761107 0.125163
C45   C     C_3   0.265871 0.998714 0.753934 -0.295113
H46   H     H_    0.252698 0.066701 0.701458 0.229343
H47   H     H_    0.211807 0.946504 0.734941 0.221113
C46   C     C_3   0.266919 0.020916 0.892877 -0.955669
H48   H     H_    0.282114 0.954512 0.947401 0.262730
H49   H     H_    0.201281 0.048383 0.922719 0.259046
H50   H     H_    0.317005 0.077430 0.912197 0.263986
C47   C     C_3   0.335890 0.600719 0.869851 -0.433974
C48   C     C_3   0.292794 0.694424 0.917929 -0.360623
C49   C     C_3   0.212417 0.722098 0.841306 -0.847037
H51   H     H_    0.233058 0.741539 0.744956 0.245457
H52   H     H_    0.164485 0.661187 0.838779 0.259193
H53   H     H_    0.179611 0.785998 0.883669 0.246443
H54   H     H_    0.271655 0.684388 0.016518 0.225128
H55   H     H_    0.340848 0.755249 0.913673 0.205068
H56   H     H_    0.345520 0.607956 0.767715 0.210718
H57   H     H_    0.289021 0.540684 0.886163 0.209433
C50   C     C_3   0.361566 0.357804 0.913949 -0.449806
C51   C     C_3   0.331705 0.346916 0.779255 -0.293424
C52   C     C_3   0.239384 0.302924 0.773632 -0.871725
H58   H     H_    0.237090 0.232372 0.823582 0.258074
H59   H     H_    0.190376 0.352911 0.816135 0.254970
H60   H     H_    0.221375 0.290310 0.675238 0.252770
H61   H     H_    0.329573 0.418925 0.734038 0.217729
H62   H     H_    0.377976 0.298665 0.728133 0.246845
H63   H     H_    0.357933 0.284136 0.956352 0.200476
H64   H     H_    0.313604 0.401755 0.967610 0.205829

loop_
_geom_bond_atom_site_label_1
_geom_bond_atom_site_label_2
_ccdc_geom_bond_type
C15   C18   A    
C40   H34   S    
C50   H64   S    
C11   C13   A    
C36   H25   S    
Cu1   Cu2   S    
C39   C40   S    
C4    C8    A    
Cu2   N1    S    
C1    O2    A    
C38   C39   S    
C48   C49   S    
C42   C43   S    
C50   C51   S    
C37   H28   S    
C10   H22   S    
C39   H33   S    
C46   H49   S    
C17   O4    A    
Cu2   O6    S    
C23   O12   S    
C45   H46   S    
Cu1   O5    S    
C49   H51   S    
C29   C33   S    
C2    C32   S    
C27   O8    A    
C39   H32   S    
C47   H57   S    
C42   H39   S    
C49   H52   S    
C29   H2    S    
C52   H60   S    
C22   O11   S    
C37   H29   S    
C35   H23   S    
C48   H54   S    
C19   H6    S    
C4    H18   S    
C2    C34   S    
C36   H26   S    
O9    C35   S    
C17   C33   S    
Cu2   O2    S    
C10   C12   A    
C38   H31   S    
C38   H30   S    
C27   C34   S    
C28   H9    S    
C30   C34   S    
C26   O6    A    
C30   H11   S    
C37   H27   S    
C21   N2    A    
Cu1   O1    S    
C3    C8    A    
C10   C14   A    
C18   H5    S    
O11   C41   S    
C5    C7    A    
C41   C42   S    
Cu1   N2    S    
C9    C14   A    
C21   H8    S    
Cu1   O7    S    
C49   H53   S    
C32   H14   S    
C35   C36   S    
C41   H38   S    
C31   C34   S    
C51   H62   S    
C44   H45   S    
C24   C25   S    
C20   N1    A    
C9    C11   A    
C15   H3    S    
C2    H16   S    
C16   H4    S    
C4    C6    A    
C15   C24   A    
C20   C22   A    
C28   C33   S    
C43   H42   S    
C31   H12   S    
C21   C23   A    
C11   O9    S    
C36   C37   S    
C22   C24   A    
C13   C26   S    
C46   H50   S    
C20   H7    S    
C47   C48   S    
C16   C25   A    
C42   H40   S    
C8    C14   S    
C50   H63   S    
C1    C7    S    
C26   O5    A    
C5    H19   S    
C6    H20   S    
O10   C38   S    
C3    C5    A    
C1    O1    A    
C35   H24   S    
Cu2   O8    S    
C6    C7    A    
C19   N2    A    
C43   H43   S    
C29   H10   S    
C32   C33   S    
C40   H35   S    
C31   C50   S    
C29   C31   S    
C46   H48   S    
C17   O3    A    
C3    H17   S    
C52   H58   S    
C45   H47   S    
C28   H1    S    
C16   C19   A    
C12   O10   S    
C28   C30   S    
C41   H37   S    
C51   H61   S    
C44   C45   S    
C9    H21   S    
C23   C25   A    
O12   C44   S    
C32   H13   S    
C27   O7    A    
C2    H15   S    
C18   N1    A    
C47   H56   S    
C12   C13   A    
C43   H41   S    
C40   H36   S    
C44   H44   S    
C52   H59   S    
Cu1   O3    S    
Cu2   O4    S    
C45   C46   S    
C48   H55   S    
C51   C52   S    
C30   C47   S    
