data_mof_unit_26207.cif
_audit_creation_date              2012-12-10T17:37:19-0500
_audit_creation_method            fapswitch 2.2
_symmetry_space_group_name_H-M    P1
_symmetry_Int_Tables_number       1
_space_group_crystal_system       triclinic
_cell_length_a                    12.358672
_cell_length_b                    13.143194
_cell_length_c                    15.84383
_cell_angle_alpha                 76.993205
_cell_angle_beta                  101.467164
_cell_angle_gamma                 116.671475
_cell_volume                      2226.53499148

loop_
_atom_site_label
_atom_site_type_symbol
_atom_type_description
_atom_site_fract_x
_atom_site_fract_y
_atom_site_fract_z
_atom_type_partial_charge
C1    C     C_R   0.855047 0.286104 0.509435 0.768115
C2    C     C_3   0.998142 0.497925 0.917420 0.196439
C3    C     C_3   0.103066 0.581824 0.028653 -0.159544
C4    C     C_3   0.998345 0.498452 0.082726 0.195655
C5    C     C_3   0.008546 0.600814 0.954273 -0.159527
C6    C     C_3   0.903796 0.517428 0.009870 -0.160477
C7    C     C_1   0.998499 0.498115 0.825638 -0.079668
C8    C     C_1   0.998894 0.499085 0.174490 -0.085950
C9    C     C_R   0.275404 0.044745 0.421951 0.063506
C10   C     C_R   0.227241 0.840590 0.482243 -0.105296
C11   C     C_R   0.811304 0.088129 0.585242 -0.203417
C12   C     C_R   0.999633 0.499409 0.660071 0.816192
C13   C     C_R   0.727471 0.978337 0.615436 -0.159743
C14   C     C_R   0.604597 0.941758 0.584048 -0.179011
C15   C     C_R   0.563776 0.012791 0.517439 0.099864
C16   C     C_R   0.650743 0.121739 0.483451 0.077938
C17   C     C_R   0.438420 0.981945 0.486857 0.038245
C18   C     C_R   0.400747 0.064379 0.431760 0.129030
C19   C     C_R   0.490103 0.159215 0.386468 -0.234046
C20   C     C_R   0.612862 0.187197 0.411419 -0.207389
C21   C     C_R   0.351052 0.869497 0.505158 -0.303778
C22   C     C_R   0.188028 0.931148 0.452675 0.044848
C23   C     C_R   0.144997 0.714949 0.490291 0.793283
C24   C     C_R   0.773207 0.162379 0.521869 -0.114767
C25   C     C_R   0.337356 0.316590 0.633919 -0.314688
C26   C     C_R   0.753248 0.646644 0.380857 0.275548
C27   C     C_R   0.663027 0.687155 0.368461 -0.244803
C28   C     C_R   0.568298 0.636292 0.418815 -0.232387
C29   C     C_R   0.556975 0.539966 0.482025 -0.007049
C30   C     C_R   0.655278 0.506150 0.500127 0.214965
C31   C     C_R   0.450784 0.476776 0.527166 -0.036867
C32   C     C_R   0.444307 0.380551 0.591970 0.119419
C33   C     C_R   0.543885 0.349980 0.613516 0.024415
C34   C     C_R   0.000054 0.500177 0.339956 0.825041
C35   C     C_R   0.647158 0.414701 0.568316 -0.189543
C36   C     C_R   0.347691 0.503260 0.507964 0.015768
C37   C     C_R   0.240008 0.346909 0.611679 0.071494
C38   C     C_3   0.987911 0.395527 0.045896 -0.161139
C39   C     C_3   0.893367 0.414509 0.971461 -0.159016
C40   C     C_1   0.999078 0.498634 0.749965 -0.193331
C41   C     C_1   0.999479 0.499662 0.250134 -0.192605
C42   C     C_3   0.092654 0.478925 0.990294 -0.157858
Cu1   Cu    Cu3+1 0.098270 0.475420 0.519690 0.920897
Cu2   Cu    Cu3+1 0.901730 0.524580 0.480310 0.903056
H1    H     H_    0.807353 0.345864 0.946500 0.128378
H2    H     H_    0.379398 0.801402 0.533245 0.168516
H3    H     H_    0.904667 0.117360 0.615482 0.148379
H4    H     H_    0.543270 0.859569 0.615568 0.128510
H5    H     H_    0.756912 0.923317 0.666821 0.139565
H6    H     H_    0.677869 0.261060 0.373870 0.164668
H7    H     H_    0.158383 0.296911 0.643993 0.120269
H8    H     H_    0.326733 0.242573 0.683732 0.127186
H9    H     H_    0.343425 0.572687 0.458535 0.125871
H10   H     H_    0.979510 0.311312 0.084925 0.125108
H11   H     H_    0.503542 0.673389 0.404380 0.140273
H12   H     H_    0.661100 0.756380 0.317314 0.144543
H13   H     H_    0.720754 0.391621 0.587559 0.210542
H14   H     H_    0.826338 0.533292 0.019316 0.126162
H15   H     H_    0.017002 0.685068 0.915299 0.125618
H16   H     H_    0.189128 0.650493 0.053495 0.126529
H17   H     H_    0.170167 0.463101 0.980916 0.127575
H18   H     H_    0.468141 0.208974 0.328199 0.144129
N1    N     N_R   0.246280 0.438200 0.549540 -0.184360
N2    N     N_R   0.754330 0.561180 0.450980 -0.213389
O1    O     O_R   0.972510 0.318130 0.524770 -0.583231
O2    O     O_R   0.806530 0.359650 0.491510 -0.598835
O3    O     O_R   0.082970 0.479240 0.637550 -0.569769
O4    O     O_R   0.916990 0.520750 0.604290 -0.592878
O5    O     O_R   0.193470 0.640350 0.508490 -0.581862
O6    O     O_R   0.027490 0.681870 0.475230 -0.597155
O7    O     O_R   0.083010 0.479250 0.395710 -0.573627
O8    O     O_R   0.917030 0.520760 0.362450 -0.605044
C43   C     C_3   0.537199 0.246744 0.684055 -0.402438
C44   C     C_3   0.649140 0.219318 0.703855 -0.357119
C45   C     C_3   0.628687 0.112751 0.773009 -0.845378
H19   H     H_    0.611828 0.126741 0.834850 0.245526
H20   H     H_    0.549699 0.036423 0.750131 0.256365
H21   H     H_    0.710936 0.095323 0.785601 0.243564
H22   H     H_    0.666918 0.202083 0.643851 0.233444
H23   H     H_    0.730232 0.293383 0.727895 0.215048
H24   H     H_    0.521496 0.262313 0.745763 0.197570
H25   H     H_    0.457558 0.168964 0.663620 0.204583
C46   C     C_3   0.838447 0.689938 0.309889 -0.369217
C47   C     C_3   0.849011 0.802616 0.248689 -0.459474
C48   C     C_3   0.952999 0.847065 0.192429 -0.849955
H26   H     H_    0.041721 0.869016 0.234086 0.250370
H27   H     H_    0.939159 0.780856 0.153430 0.258200
H28   H     H_    0.955804 0.925966 0.147217 0.243340
H29   H     H_    0.763102 0.787128 0.204364 0.226951
H30   H     H_    0.866586 0.870411 0.287373 0.221682
H31   H     H_    0.931539 0.705990 0.338896 0.247018
H32   H     H_    0.805559 0.621645 0.268430 0.207040
C49   C     C_3   0.056777 0.908366 0.459956 -0.398237
C50   C     C_3   0.032642 0.881242 0.555731 -0.321061
C51   C     C_3   0.898511 0.844210 0.563305 -0.821837
H33   H     H_    0.868946 0.911786 0.526804 0.257688
H34   H     H_    0.841371 0.762396 0.537028 0.271657
H35   H     H_    0.885015 0.830125 0.632920 0.228272
H36   H     H_    0.058607 0.811259 0.592031 0.226538
H37   H     H_    0.088734 0.959486 0.587003 0.201912
H38   H     H_    0.031856 0.979942 0.428582 0.172341
H39   H     H_    0.990891 0.839852 0.423435 0.226591
C52   C     C_3   0.228415 0.139269 0.389003 -0.420874
C53   C     C_3   0.312882 0.266024 0.359811 -0.384283
C54   C     C_3   0.245210 0.342239 0.347182 -0.806673
H40   H     H_    0.170034 0.319150 0.293186 0.245574
H41   H     H_    0.205964 0.331479 0.407455 0.273470
H42   H     H_    0.309130 0.434056 0.330582 0.241083
H43   H     H_    0.393201 0.297016 0.409177 0.244869
H44   H     H_    0.340448 0.276448 0.294845 0.214394
H45   H     H_    0.156431 0.111422 0.333601 0.194091
H46   H     H_    0.186503 0.141380 0.444171 0.213873

loop_
_geom_bond_atom_site_label_1
_geom_bond_atom_site_label_2
_ccdc_geom_bond_type
C3    C42   S    
C26   C46   S    
C30   N2    A    
C43   C44   S    
C23   O5    A    
Cu2   O2    S    
C51   H33   S    
C4    C8    S    
C51   H35   S    
Cu1   N1    S    
C53   H43   S    
C48   H26   S    
Cu2   N2    S    
C46   H32   S    
C12   O4    A    
C26   C27   A    
C49   C50   S    
C30   C35   A    
C46   C47   S    
C28   C29   A    
C38   C42   S    
C5    C6    S    
C37   H7    S    
C9    C22   A    
C19   H18   S    
C15   C16   A    
C11   C24   A    
C52   H45   S    
C18   C19   A    
C26   N2    A    
C20   H6    S    
C36   H9    S    
C2    C7    S    
C25   C37   A    
C11   H3    S    
C2    C39   S    
C19   C20   A    
C1    O1    A    
C7    C40   T    
Cu2   O6    S    
C36   N1    A    
Cu1   O1    S    
C39   H1    S    
C3    H16   S    
C25   C32   A    
C16   C24   A    
C44   H23   S    
C13   C14   A    
C23   O6    A    
C34   C41   S    
C47   H30   S    
C43   H24   S    
C53   C54   S    
C37   N1    A    
C28   H11   S    
C1    O2    A    
C48   H27   S    
C10   C21   A    
C54   H42   S    
C44   C45   S    
C5    H15   S    
C47   C48   S    
C4    C6    S    
C49   H38   S    
C27   H12   S    
C14   H4    S    
C12   O3    A    
C10   C22   A    
C52   H46   S    
C12   C40   S    
C45   H19   S    
C29   C30   A    
C54   H41   S    
C31   C32   A    
C38   H10   S    
C50   H37   S    
C16   C20   A    
C14   C15   A    
C17   C18   A    
C8    C41   T    
C45   H20   S    
C42   H17   S    
C13   H5    S    
C33   C43   S    
C4    C38   S    
C44   H22   S    
Cu1   Cu2   S    
C22   C49   S    
Cu2   O4    S    
C2    C5    S    
C47   H29   S    
C3    C4    S    
C34   O8    A    
C43   H25   S    
C52   C53   S    
C21   H2    S    
C48   H28   S    
C15   C17   A    
Cu1   O7    S    
C6    C39   S    
C3    C5    S    
C49   H39   S    
C51   H34   S    
C10   C23   S    
C46   H31   S    
C54   H40   S    
C35   H13   S    
C32   C33   A    
C25   H8    S    
C29   C31   A    
C53   H44   S    
C11   C13   A    
C38   C39   S    
C50   H36   S    
C2    C42   S    
C9    C52   S    
C33   C35   A    
Cu2   O8    S    
C6    H14   S    
C50   C51   S    
C45   H21   S    
C17   C21   A    
C9    C18   A    
C1    C24   S    
Cu1   O3    S    
C27   C28   A    
C31   C36   A    
Cu1   O5    S    
C34   O7    A    
