data_mof_unit_18119.cif
_audit_creation_date              2012-12-10T18:47:44-0500
_audit_creation_method            fapswitch 2.2
_symmetry_space_group_name_H-M    P1
_symmetry_Int_Tables_number       1
_space_group_crystal_system       triclinic
_cell_length_a                    9.902665
_cell_length_b                    10.673862
_cell_length_c                    15.619759
_cell_angle_alpha                 90.419083
_cell_angle_beta                  69.230721
_cell_angle_gamma                 89.015626
_cell_volume                      1543.32808178

loop_
_atom_site_label
_atom_site_type_symbol
_atom_type_description
_atom_site_fract_x
_atom_site_fract_y
_atom_site_fract_z
_atom_type_partial_charge
C1    C     C_R   0.498891 0.739867 0.500639 0.864097
C2    C     C_R   0.408834 0.936936 0.463828 -0.198251
C3    C     C_R   0.502182 0.127605 0.498719 -0.008927
C4    C     C_R   0.497821 0.872395 0.501275 -0.008974
C5    C     C_R   0.957639 0.408305 0.453706 0.246005
C6    C     C_R   0.042353 0.591686 0.546305 0.246049
C7    C     C_R   0.100141 0.408569 0.455037 -0.135619
C8    C     C_R   0.899831 0.591394 0.545006 -0.135506
C9    C     C_R   0.411187 0.509562 0.674698 0.880831
C10   C     C_R   0.588810 0.490341 0.325314 0.880904
C11   C     C_R   0.361146 0.532596 0.773518 -0.079454
C12   C     C_R   0.501110 0.260133 0.499359 0.863996
C13   C     C_R   0.638822 0.466870 0.226542 -0.079433
C14   C     C_R   0.171204 0.559390 0.920856 -0.218752
C15   C     C_R   0.828664 0.439559 0.079211 -0.218687
C16   C     C_R   0.213702 0.539933 0.826603 -0.253462
C17   C     C_R   0.786250 0.459510 0.173417 -0.253529
C18   C     C_R   0.463487 0.552496 0.815760 0.138499
C19   C     C_R   0.536453 0.446423 0.184410 0.138608
C20   C     C_R   0.421749 0.531575 0.909869 0.075759
C21   C     C_R   0.578044 0.466918 0.090261 0.075781
C22   C     C_R   0.273716 0.548320 0.963611 0.144085
C23   C     C_R   0.333889 0.539831 0.099821 -0.221222
C24   C     C_R   0.726068 0.450205 0.036492 0.144085
C25   C     C_R   0.522697 0.498497 0.951833 0.063785
C26   C     C_R   0.476999 0.499740 0.048311 0.063778
C27   C     C_3   0.404982 0.367575 0.231610 -0.896179
C28   C     C_3   0.595208 0.631179 0.768770 -0.895904
C29   C     C_3   0.920459 0.304322 0.401340 -0.849417
C30   C     C_3   0.079535 0.695669 0.598670 -0.849427
C31   C     C_R   0.665762 0.458301 0.900320 -0.221295
C32   C     C_R   0.231915 0.557545 0.058413 -0.238242
C33   C     C_R   0.767786 0.440692 0.941703 -0.238236
C34   C     C_R   0.588908 0.934708 0.537527 -0.187545
C35   C     C_R   0.411098 0.065293 0.462465 -0.187583
C36   C     C_R   0.591171 0.063064 0.536165 -0.198274
H1    H     H_    0.120854 0.579980 0.100481 0.150244
H2    H     H_    0.342976 0.115603 0.432610 0.144092
H3    H     H_    0.660007 0.111603 0.565546 0.149165
H4    H     H_    0.339996 0.888397 0.434449 0.149189
H5    H     H_    0.176883 0.334852 0.420482 0.145016
H6    H     H_    0.823044 0.665049 0.579631 0.145015
H7    H     H_    0.313224 0.426041 0.276113 0.248547
H8    H     H_    0.369717 0.316874 0.181056 0.239303
H9    H     H_    0.431629 0.294701 0.273904 0.233929
H10   H     H_    0.630519 0.681516 0.819451 0.239312
H11   H     H_    0.686871 0.572676 0.724186 0.248630
H12   H     H_    0.878842 0.418253 0.899626 0.150341
H13   H     H_    0.568809 0.704361 0.726595 0.233926
H14   H     H_    0.019391 0.257840 0.352561 0.197276
H15   H     H_    0.860066 0.231799 0.449375 0.245685
H16   H     H_    0.858301 0.340165 0.360092 0.266937
H17   H     H_    0.980607 0.742165 0.647442 0.197251
H18   H     H_    0.141682 0.659825 0.639924 0.266905
H19   H     H_    0.139941 0.768186 0.550633 0.245692
H20   H     H_    0.867571 0.463593 0.204859 0.165977
H21   H     H_    0.132431 0.536236 0.795104 0.166063
H22   H     H_    0.058711 0.578980 0.960032 0.149241
H23   H     H_    0.941156 0.419988 0.040027 0.149219
H24   H     H_    0.298890 0.558168 0.172450 0.169740
H25   H     H_    0.700692 0.439908 0.827697 0.169701
H26   H     H_    0.657030 0.884398 0.567382 0.144092
N1    N     N_R   0.142780 0.500030 0.500020 -0.094194
N2    N     N_R   0.857220 0.499970 0.499980 -0.094218
O1    O     O_R   0.385370 0.683250 0.500010 -0.622333
O2    O     O_R   0.614630 0.316750 0.499990 -0.622355
O3    O     O_R   0.614700 0.683220 0.500000 -0.623793
O4    O     O_R   0.385300 0.316780 0.500000 -0.623827
O5    O     O_R   0.319830 0.500020 0.632250 -0.624217
O6    O     O_R   0.680170 0.499980 0.367750 -0.624217
O7    O     O_R   0.549160 0.499990 0.632240 -0.603714
O8    O     O_R   0.450840 0.500010 0.367760 -0.603666
Zn1   Zn    Zn3+2 0.346870 0.500020 0.500000 0.936859
Zn2   Zn    Zn3+2 0.653130 0.499980 0.500000 0.936844

loop_
_geom_bond_atom_site_label_1
_geom_bond_atom_site_label_2
_ccdc_geom_bond_type
C2    C35   A    
C25   C31   A    
O7    Zn2   S    
C2    C4    A    
C21   C26   A    
C31   C33   A    
C11   C18   A    
O5    Zn1   S    
C14   C16   A    
C3    C35   A    
C6    N1    A    
C19   C27   S    
C30   H19   S    
C31   H25   S    
C28   H13   S    
C1    O1    A    
C24   C33   A    
C13   C17   A    
C29   H14   S    
C1    C4    S    
C28   H10   S    
C23   C32   A    
C27   H9    S    
C2    H4    S    
O4    Zn1   S    
C5    C7    A    
C18   C28   S    
C28   H11   S    
O3    Zn2   S    
C32   H1    S    
C12   O4    A    
C17   H20   S    
C7    N1    A    
C22   C32   A    
C3    C36   A    
C8    N2    A    
C6    C8    A    
C10   O6    A    
C9    O5    A    
C15   C24   A    
C6    C30   S    
C8    H6    S    
C34   C36   A    
C16   H21   S    
C7    H5    S    
C29   H15   S    
C23   H24   S    
C14   H22   S    
C30   H17   S    
C4    C34   A    
C30   H18   S    
C23   C26   A    
C20   C25   A    
C13   C19   A    
O2    Zn2   S    
C5    C29   S    
C27   H7    S    
C34   H26   S    
C35   H2    S    
O1    Zn1   S    
C18   C20   A    
C14   C22   A    
C11   C16   A    
C21   C24   A    
C12   O2    A    
C15   C17   A    
C33   H12   S    
C9    C11   S    
O6    Zn2   S    
N2    Zn2   S    
C3    C12   S    
N1    Zn1   S    
C1    O3    A    
C25   C26   A    
C15   H23   S    
C27   H8    S    
C29   H16   S    
C36   H3    S    
C9    O7    A    
C5    N2    A    
C20   C22   A    
O8    Zn1   S    
C19   C21   A    
C10   C13   S    
C10   O8    A    
