data_mof_unit_66423.cif
_audit_creation_date              2012-12-10T18:08:20-0500
_audit_creation_method            fapswitch 2.2
_symmetry_space_group_name_H-M    P1
_symmetry_Int_Tables_number       1
_space_group_crystal_system       triclinic
_cell_length_a                    18.692523
_cell_length_b                    18.706848
_cell_length_c                    18.735945
_cell_angle_alpha                 109.462335
_cell_angle_beta                  109.503965
_cell_angle_gamma                 109.344244
_cell_volume                      5049.78668125

loop_
_atom_site_label
_atom_site_type_symbol
_atom_type_description
_atom_site_fract_x
_atom_site_fract_y
_atom_site_fract_z
_atom_type_partial_charge
C1    C     C_R   0.379885 0.500254 0.379813 0.875429
C2    C     C_R   0.314008 0.500950 0.313948 -0.043933
C3    C     C_R   0.321568 0.241752 0.499305 -0.184400
C4    C     C_R   0.619861 0.619905 0.499854 0.883387
C5    C     C_R   0.258323 0.178515 0.500659 -0.185027
C6    C     C_R   0.186392 0.186423 0.500016 -0.011326
C7    C     C_R   0.177785 0.257643 0.499400 -0.184129
C8    C     C_R   0.242415 0.322261 0.500812 -0.183619
C9    C     C_R   0.313654 0.313664 0.500069 -0.010051
C10   C     C_R   0.756761 0.497213 0.676958 -0.189348
C11   C     C_R   0.821399 0.498571 0.741620 -0.191640
C12   C     C_R   0.819833 0.816983 0.574810 0.089110
C13   C     C_R   0.813631 0.499837 0.813575 -0.004079
C14   C     C_R   0.742568 0.500969 0.822176 -0.188144
C15   C     C_R   0.679294 0.502266 0.758829 -0.183422
C16   C     C_R   0.620301 0.499976 0.620179 0.856628
C17   C     C_R   0.686373 0.499756 0.686221 -0.008943
C18   C     C_R   0.999045 0.878919 0.379990 0.869197
C19   C     C_R   0.879988 0.879789 0.499696 0.880212
C20   C     C_R   0.999815 0.120249 0.620286 0.874780
C21   C     C_R   0.120249 0.120289 0.499999 0.862847
C22   C     C_R   0.998781 0.620320 0.119095 0.882141
C23   C     C_3   0.874331 0.870013 0.671900 -0.540277
C24   C     C_R   0.120130 0.500523 0.120621 0.885978
C25   C     C_R   0.999662 0.379996 0.879672 0.868837
C26   C     C_R   0.879769 0.499996 0.879802 0.849202
C27   C     C_R   0.006805 0.826084 0.247791 -0.246861
C28   C     C_R   0.379774 0.379766 0.500023 0.858687
C29   C     C_R   0.006588 0.763217 0.182136 0.117840
C30   C     C_R   0.997506 0.686396 0.184336 -0.088432
C31   C     C_R   0.986937 0.671911 0.249590 -0.210943
C32   C     C_R   0.987970 0.734826 0.315271 0.095058
C33   C     C_R   0.998489 0.812308 0.314052 -0.077071
C34   C     C_3   0.801893 0.799654 0.672132 -0.105407
C35   C     C_R   0.920891 0.187017 0.670207 -0.222299
C36   C     C_R   0.919670 0.250828 0.733781 0.107208
C37   C     C_R   0.998404 0.313949 0.812439 -0.018350
C38   C     C_R   0.076734 0.313894 0.827669 -0.231470
C39   C     C_R   0.077005 0.249355 0.764845 -0.182852
C40   C     C_R   0.756412 0.756475 0.574871 0.115100
C41   C     C_R   0.999240 0.186380 0.686218 -0.045097
C42   C     C_R   0.684062 0.684919 0.498118 -0.108758
C43   C     C_R   0.676205 0.677108 0.418139 -0.212382
C44   C     C_R   0.740749 0.742088 0.418096 -0.221861
C45   C     C_R   0.248536 0.422562 0.237091 -0.182393
C46   C     C_R   0.814102 0.812996 0.498000 -0.086797
C47   C     C_3   0.194992 0.675327 0.310910 -0.767438
C48   C     C_R   0.183889 0.422961 0.174442 -0.244441
C49   C     C_R   0.186113 0.501922 0.188147 -0.038194
C50   C     C_R   0.251876 0.581217 0.265282 0.216284
C51   C     C_R   0.316011 0.580022 0.328383 -0.255752
H1    H     H_    0.620289 0.622057 0.356573 0.160107
H2    H     H_    0.624397 0.503855 0.765587 0.145014
H3    H     H_    0.013888 0.886001 0.247741 0.146186
H4    H     H_    0.734107 0.736483 0.356488 0.158813
H5    H     H_    0.979219 0.612102 0.250234 0.168467
H6    H     H_    0.861036 0.137576 0.608895 0.145805
H7    H     H_    0.137096 0.362949 0.888654 0.147019
H8    H     H_    0.137838 0.249225 0.776982 0.155488
H9    H     H_    0.937451 0.870302 0.696216 0.204397
H10   H     H_    0.879750 0.935531 0.697797 0.200888
H11   H     H_    0.822353 0.759745 0.697641 0.162760
H12   H     H_    0.367211 0.640465 0.388387 0.148558
H13   H     H_    0.246863 0.361251 0.226279 0.155379
H14   H     H_    0.132994 0.362139 0.114713 0.152493
H15   H     H_    0.953333 0.730569 0.055225 0.174215
H16   H     H_    0.023687 0.837885 0.123433 0.177139
H17   H     H_    0.923279 0.725063 0.382586 0.178313
H18   H     H_    0.032236 0.762832 0.441194 0.208986
H19   H     H_    0.846981 0.308951 0.714638 0.168473
H20   H     H_    0.787396 0.199494 0.658757 0.179048
H21   H     H_    0.736091 0.869266 0.682055 0.202327
H22   H     H_    0.795155 0.873647 0.775251 0.191666
H23   H     H_    0.377111 0.235503 0.499092 0.144468
H24   H     H_    0.315131 0.715275 0.317086 0.222727
H25   H     H_    0.217696 0.683395 0.377451 0.234014
H26   H     H_    0.127129 0.619387 0.266208 0.231866
H27   H     H_    0.194499 0.735411 0.313734 0.245553
H28   H     H_    0.264567 0.122977 0.500761 0.144229
H29   H     H_    0.122066 0.263715 0.499268 0.144249
H30   H     H_    0.236325 0.377955 0.501026 0.144551
H31   H     H_    0.762208 0.495666 0.620728 0.143736
H32   H     H_    0.876480 0.497269 0.735082 0.140668
H33   H     H_    0.737052 0.502299 0.878321 0.142237
N1    N     N_3   0.013554 0.775893 0.112590 -0.427959
N2    N     N_3   0.975646 0.717485 0.380531 -0.459583
N3    N     N_3   0.839930 0.252922 0.718902 -0.439835
N4    N     N_3   0.753249 0.831932 0.707937 -0.419230
N5    N     N_2   0.253034 0.661427 0.279801 -0.299877
O1    O     O_R   0.408340 0.551690 0.460080 -0.625388
O2    O     O_R   0.051700 0.643420 0.091650 -0.586580
O3    O     O_R   0.039910 0.448390 0.091720 -0.631830
O4    O     O_R   0.408400 0.448280 0.356690 -0.626313
O5    O     O_R   0.143340 0.551810 0.091690 -0.602665
O6    O     O_R   0.948300 0.356760 0.908530 -0.601216
O7    O     O_R   0.051730 0.460180 0.908500 -0.631993
O8    O     O_R   0.856660 0.448370 0.908490 -0.617642
O9    O     O_R   0.960090 0.551790 0.908450 -0.624470
O10   O     O_R   0.591580 0.643330 0.551700 -0.603494
O11   O     O_R   0.591640 0.539920 0.448310 -0.626750
O12   O     O_R   0.948260 0.908480 0.356680 -0.620482
O13   O     O_R   0.591600 0.551720 0.643310 -0.619345
O14   O     O_R   0.591660 0.448310 0.539920 -0.624344
O15   O     O_R   0.408360 0.460080 0.551690 -0.623430
O16   O     O_R   0.408420 0.356670 0.448300 -0.622703
O17   O     O_R   0.051710 0.908420 0.460050 -0.632426
O18   O     O_R   0.960120 0.908380 0.551680 -0.623134
O19   O     O_R   0.856660 0.908440 0.448310 -0.625100
O20   O     O_R   0.051740 0.091590 0.643330 -0.624025
O21   O     O_R   0.948290 0.091650 0.539960 -0.625663
O22   O     O_R   0.143330 0.091630 0.551690 -0.621652
O23   O     O_R   0.039880 0.091690 0.448320 -0.622296
O24   O     O_R   0.948270 0.540000 0.091680 -0.636069
Zn1   Zn    Zn3+2 0.499960 0.569050 0.569040 0.963473
Zn2   Zn    Zn3+2 0.500040 0.430950 0.430960 0.951004
Zn3   Zn    Zn3+2 0.069080 0.999990 0.569020 0.942975
Zn4   Zn    Zn3+2 0.930920 0.000070 0.430980 0.949955
Zn5   Zn    Zn3+2 0.930940 0.431040 0.000110 0.961785
Zn6   Zn    Zn3+2 0.069060 0.569140 0.000070 0.973673

loop_
_geom_bond_atom_site_label_1
_geom_bond_atom_site_label_2
_ccdc_geom_bond_type
C1    O1    A    
C27   C29   A    
H17   N2    S    
O7    Zn6   S    
C35   C36   A    
C14   H33   S    
H15   N1    S    
C20   C41   S    
C27   H3    S    
C7    C8    A    
C39   C41   A    
C27   C33   A    
C12   C23   S    
C37   C38   A    
C34   C40   S    
C15   H2    S    
C36   C37   A    
C47   H25   S    
C5    C6    A    
C43   H1    S    
C10   C17   A    
C34   H11   S    
C1    C2    S    
O4    Zn2   S    
O8    Zn5   S    
C3    H23   S    
O3    Zn5   S    
C16   O14   A    
O20   Zn3   S    
C21   O22   A    
C38   H7    S    
C22   O24   A    
C8    C9    A    
C22   O2    A    
O22   Zn3   S    
C48   H14   S    
C5    H28   S    
C29   N1    S    
C25   C37   S    
C19   O19   A    
C40   C42   A    
H20   N3    S    
C39   H8    S    
C2    C45   A    
C13   C14   A    
C47   N5    S    
O11   Zn2   S    
O10   Zn1   S    
H19   N3    S    
C24   O3    A    
O21   Zn4   S    
H21   N4    S    
C44   C46   A    
C36   N3    S    
C23   H9    S    
H16   N1    S    
C8    H30   S    
O9    Zn6   S    
C51   H12   S    
C12   C46   A    
C10   C11   A    
C16   C17   S    
C11   H32   S    
C6    C21   S    
C10   H31   S    
C20   O20   A    
O17   Zn3   S    
C18   O12   A    
C38   C39   A    
C12   C40   A    
O14   Zn2   S    
C43   C44   A    
C18   O17   A    
H22   N4    S    
C29   C30   A    
O13   Zn1   S    
C24   O5    A    
O5    Zn6   S    
C28   O15   A    
C50   N5    S    
C31   C32   A    
C28   O16   A    
C23   C34   S    
C32   N2    S    
C50   C51   A    
C34   N4    S    
C3    C9    A    
C26   O9    A    
C20   O21   A    
C16   O13   A    
C48   C49   A    
C25   O6    A    
C4    O11   A    
C31   H5    S    
O15   Zn1   S    
C13   C26   S    
C42   C43   A    
C47   H26   S    
C21   O23   A    
C45   C48   A    
C24   C49   S    
C15   C17   A    
C22   C30   S    
O6    Zn5   S    
O19   Zn4   S    
O16   Zn2   S    
C3    C5    A    
C19   C46   S    
C6    C7    A    
C45   H13   S    
O23   Zn4   S    
C35   H6    S    
O12   Zn4   S    
C32   C33   A    
C11   C13   A    
C44   H4    S    
C30   C31   A    
C4    C42   S    
O2    Zn6   S    
O1    Zn1   S    
C35   C41   A    
C18   C33   S    
O18   Zn3   S    
C2    C51   A    
H24   N5    S    
C26   O8    A    
O24   Zn5   S    
C23   H10   S    
C25   O7    A    
C1    O4    A    
C49   C50   A    
C4    O10   A    
C14   C15   A    
C47   H27   S    
H18   N2    S    
C9    C28   S    
C7    H29   S    
C19   O18   A    
