data_mof_unit_50443.cif
_audit_creation_date              2012-12-10T21:00:48-0500
_audit_creation_method            fapswitch 2.2
_symmetry_space_group_name_H-M    P1
_symmetry_Int_Tables_number       1
_space_group_crystal_system       triclinic
_cell_length_a                    18.151404
_cell_length_b                    18.173738
_cell_length_c                    18.288091
_cell_angle_alpha                 119.944431
_cell_angle_beta                  90.01363
_cell_angle_gamma                 119.944207
_cell_volume                      4272.53770797

loop_
_atom_site_label
_atom_site_type_symbol
_atom_type_description
_atom_site_fract_x
_atom_site_fract_y
_atom_site_fract_z
_atom_type_partial_charge
C1    C     C_R   0.112200 0.220005 0.609639 0.501577
C2    C     C_3   0.450147 0.897038 0.947470 0.018985
C3    C     C_3   0.581547 0.655215 0.302197 0.011135
C4    C     C_3   0.605042 0.752321 0.391571 -0.278671
C5    C     C_3   0.688711 0.796263 0.461138 -0.487311
C6    C     C_3   0.344851 0.883860 0.797015 0.028408
C7    C     C_3   0.353542 0.953083 0.768421 -0.271434
C8    C     C_3   0.352470 0.907668 0.671878 -0.487070
C9    C     C_3   0.659532 0.999913 0.107543 0.008274
C10   C     C_3   0.748650 0.050811 0.174056 -0.254986
C11   C     C_3   0.762880 0.970117 0.162075 -0.488189
C12   C     C_3   0.423217 0.234510 0.340153 0.008667
C13   C     C_3   0.451989 0.032201 0.046229 -0.119657
C14   C     C_3   0.514955 0.254396 0.334219 -0.259347
C15   C     C_3   0.518533 0.165432 0.317789 -0.489151
C16   C     C_3   0.660641 0.765105 0.658681 0.003494
C17   C     C_3   0.707809 0.866637 0.752258 -0.263812
C18   C     C_3   0.797648 0.950205 0.758746 -0.468865
C19   C     C_3   0.548116 0.968335 0.953517 -0.162955
C20   C     C_3   0.420786 0.469276 0.456120 -0.122020
C21   C     C_3   0.579392 0.526618 0.544361 -0.160846
C22   C     C_3   0.458919 0.403539 0.425537 0.288428
C23   C     C_3   0.541257 0.592113 0.574475 0.273428
C24   C     C_3   0.551046 0.498769 0.449312 0.035909
C25   C     C_3   0.448977 0.497610 0.550828 0.054534
C26   C     C_3   0.514258 0.565862 0.480539 -0.174563
C27   C     C_R   0.887691 0.779936 0.390221 0.496617
C28   C     C_3   0.485208 0.430005 0.520119 -0.175119
C29   C     C_R   0.226568 0.191977 0.805786 -0.142542
C30   C     C_R   0.765301 0.802258 0.198326 -0.158628
C31   C     C_R   0.392763 0.780991 0.888178 0.496271
C32   C     C_R   0.607209 0.219039 0.112079 0.513948
C33   C     C_R   0.185634 0.153086 0.718422 -0.068236
C34   C     C_R   0.811813 0.853273 0.287483 -0.092339
C35   C     C_R   0.091681 0.097442 0.684013 0.012436
C36   C     C_R   0.904764 0.900551 0.315719 0.021170
C37   C     C_R   0.039408 0.080339 0.737643 -0.060227
C38   C     C_3   0.922589 0.404403 0.447543 -0.130396
C39   C     C_R   0.951624 0.900424 0.254597 -0.088197
C40   C     C_R   0.079591 0.119552 0.825416 0.287518
C41   C     C_R   0.905119 0.850641 0.163874 0.300027
C42   C     C_R   0.174030 0.174434 0.858761 -0.101354
C43   C     C_R   0.811582 0.800565 0.137241 -0.061873
C44   C     C_R   0.988703 0.943334 0.534298 -0.156897
C45   C     C_R   0.011471 0.056399 0.464656 -0.154869
C46   C     C_R   0.942807 0.892242 0.444816 0.017934
C47   C     C_R   0.057263 0.107643 0.554542 0.021779
C48   C     C_R   0.953385 0.949217 0.409300 -0.029136
C49   C     C_3   0.077105 0.595231 0.552381 -0.128448
C50   C     C_R   0.046200 0.050466 0.589980 -0.032488
C51   C     C_R   0.621753 0.546738 0.761620 -0.070297
C52   C     C_R   0.399141 0.472672 0.254533 -0.082506
C53   C     C_R   0.582950 0.509156 0.812171 0.301109
C54   C     C_R   0.441140 0.507670 0.203256 0.309717
C55   C     C_R   0.111466 0.501271 0.890297 0.514843
C56   C     C_R   0.888308 0.498595 0.109510 0.514064
C57   C     C_R   0.584516 0.577169 0.897140 0.058297
C58   C     C_R   0.420341 0.434508 0.111753 0.069123
C59   C     C_R   0.628337 0.682571 0.931741 -0.117347
C60   C     C_3   0.427289 0.965875 0.943595 0.286070
C61   C     C_R   0.363840 0.327971 0.074904 -0.126670
C62   C     C_R   0.668516 0.719632 0.881650 -0.101174
C63   C     C_R   0.325808 0.294233 0.127621 -0.116243
C64   C     C_R   0.664933 0.651721 0.796561 -0.102465
C65   C     C_R   0.342381 0.366457 0.216932 -0.114821
C66   C     C_R   0.590139 0.539305 0.007082 -0.168507
C67   C     C_R   0.411537 0.466641 0.997652 -0.151532
C68   C     C_R   0.551608 0.503013 0.058117 0.033477
C69   C     C_R   0.449663 0.501306 0.945298 0.034489
C70   C     C_R   0.462227 0.468277 0.055228 -0.000687
C71   C     C_3   0.572670 0.034209 0.056179 0.274471
C72   C     C_R   0.540133 0.538971 0.950357 -0.009804
C73   C     C_R   0.236815 0.854835 0.064175 -0.134776
C74   C     C_R   0.758774 0.143442 0.929540 -0.131191
C75   C     C_R   0.186106 0.765431 0.062788 -0.141947
C76   C     C_R   0.810943 0.233991 0.932879 -0.140699
C77   C     C_R   0.100026 0.682431 0.998762 0.060645
C78   C     C_R   0.896567 0.315850 0.998070 0.062208
C79   C     C_R   0.392254 0.499393 0.607754 0.527967
C80   C     C_R   0.607749 0.499785 0.392294 0.490669
C81   C     C_R   0.064781 0.690234 0.936220 0.291696
C82   C     C_3   0.524320 0.038118 0.949812 -0.160366
C83   C     C_R   0.929606 0.306078 0.060163 0.270946
C84   C     C_R   0.116725 0.779397 0.937192 -0.067754
C85   C     C_R   0.876396 0.215484 0.056847 -0.071807
C86   C     C_R   0.202314 0.861615 0.001232 -0.131707
C87   C     C_R   0.791593 0.134163 0.991330 -0.117856
C88   C     C_R   0.992899 0.583407 0.049033 -0.121807
C89   C     C_R   0.005850 0.415962 0.949829 -0.124290
C90   C     C_R   0.943905 0.496951 0.052157 0.036649
C91   C     C_R   0.055193 0.502606 0.947017 0.037510
C92   C     C_R   0.949902 0.411825 0.001449 0.012505
C93   C     C_3   0.475731 0.962931 0.050672 -0.165550
C94   C     C_R   0.048449 0.587344 0.997013 0.010254
C95   C     C_R   0.393861 0.499368 0.888120 0.517714
C96   C     C_R   0.606386 0.501028 0.112197 0.494807
C97   C     C_R   0.108911 0.500046 0.607588 0.505851
C98   C     C_R   0.891001 0.499859 0.392403 0.512368
C99   C     C_3   0.017972 0.431069 0.447589 -0.105021
C100  C     C_3   0.981739 0.568572 0.552341 -0.102176
C101  C     C_3   0.043195 0.526628 0.448796 -0.115856
C102  C     C_3   0.956527 0.473023 0.551145 -0.117757
C103  C     C_3   0.948650 0.499903 0.449502 0.061107
C104  C     C_3   0.549630 0.103065 0.052637 0.053078
C105  C     C_3   0.051080 0.499771 0.550440 0.061718
C106  C     C_3   0.053141 0.175554 0.962033 0.013854
C107  C     C_3   0.077829 0.151559 0.023553 -0.271695
C108  C     C_3   0.108053 0.238243 0.121940 -0.462935
C109  C     C_3   0.039182 0.906660 0.126125 0.017835
C110  C     C_3   0.079092 0.022047 0.171107 -0.287343
C111  C     C_3   0.181813 0.087301 0.202571 -0.469753
C112  C     C_3   0.600901 0.389216 0.803406 0.002591
C113  C     C_3   0.629500 0.338175 0.724954 -0.263047
C114  C     C_3   0.691156 0.314630 0.750510 -0.462607
Cl1   Cl    Cl    0.956913 0.588832 0.855034 -0.647435
Cl2   Cl    Cl    0.036248 0.406783 0.143578 -0.665412
H1    H     H_    0.077850 0.548510 0.405864 0.145513
H2    H     H_    0.023405 0.939008 0.279533 0.088515
H3    H     H_    0.786892 0.967399 0.710936 0.136507
H4    H     H_    0.981332 0.899531 0.561175 0.143855
H5    H     H_    0.018800 0.099943 0.437524 0.138166
H6    H     H_    0.695697 0.680404 0.757643 0.131311
H7    H     H_    0.311260 0.340034 0.257010 0.136043
H8    H     H_    0.618792 0.494586 0.695396 0.103494
H9    H     H_    0.411475 0.528057 0.323762 0.104791
H10   H     H_    0.630218 0.735513 0.997034 0.099118
H11   H     H_    0.351261 0.271338 0.005928 0.103274
H12   H     H_    0.033508 0.374483 0.405110 0.130100
H13   H     H_    0.921898 0.451172 0.594104 0.142150
H14   H     H_    0.966188 0.625146 0.594795 0.136494
H15   H     H_    0.701925 0.800923 0.908683 0.099690
H16   H     H_    0.283118 0.212029 0.099160 0.114875
H17   H     H_    0.659298 0.566555 0.010111 0.133213
H18   H     H_    0.342495 0.439862 0.995054 0.141285
H19   H     H_    0.241595 0.930858 0.002377 0.146087
H20   H     H_    0.751623 0.063755 0.988226 0.120154
H21   H     H_    0.302961 0.918765 0.113945 0.103845
H22   H     H_    0.693014 0.080339 0.878857 0.104485
H23   H     H_    0.213947 0.760614 0.111346 0.112592
H24   H     H_    0.206678 0.201981 0.924856 0.096466
H25   H     H_    0.784645 0.240534 0.884870 0.103471
H26   H     H_    0.090434 0.785509 0.888864 0.142450
H27   H     H_    0.900980 0.207694 0.104654 0.115274
H28   H     H_    0.988972 0.649181 0.088217 0.147394
H29   H     H_    0.009644 0.350106 0.910532 0.138462
H30   H     H_    0.858356 0.326046 0.403543 0.111792
H31   H     H_    0.141250 0.673544 0.596483 0.100346
H32   H     H_    0.544245 0.069981 0.909390 0.093108
H33   H     H_    0.456540 0.932015 0.091868 0.095478
H34   H     H_    0.412888 0.059616 0.083592 0.114681
H35   H     H_    0.774561 0.761019 0.068347 0.127324
H36   H     H_    0.586490 0.940542 0.915090 0.103887
H37   H     H_    0.354470 0.444605 0.421290 0.115710
H38   H     H_    0.645533 0.551311 0.579657 0.108531
H39   H     H_    0.526707 0.621636 0.464774 0.088670
H40   H     H_    0.473040 0.377327 0.539918 0.099036
H41   H     H_    0.995949 0.181600 0.973932 0.165615
H42   H     H_    0.109636 0.252995 0.979433 0.142454
H43   H     H_    0.018328 0.077721 0.009100 0.172251
H44   H     H_    0.132784 0.141205 0.010384 0.158405
H45   H     H_    0.165575 0.313728 0.137481 0.189183
H46   H     H_    0.298999 0.234287 0.832002 0.121147
H47   H     H_    0.129670 0.220809 0.164544 0.130436
H48   H     H_    0.051611 0.244392 0.137999 0.181614
H49   H     H_    0.058766 0.880391 0.065429 0.171054
H50   H     H_    0.068229 0.892254 0.166864 0.118296
H51   H     H_    0.054606 0.031160 0.122499 0.166311
H52   H     H_    0.057200 0.051851 0.229571 0.155991
H53   H     H_    0.207330 0.079737 0.251869 0.149052
H54   H     H_    0.208926 0.170229 0.235260 0.165298
H55   H     H_    0.206081 0.061936 0.144975 0.143457
H56   H     H_    0.565176 0.335970 0.823955 0.149953
H57   H     H_    0.693191 0.764315 0.176495 0.120928
H58   H     H_    0.662306 0.461331 0.862152 0.128677
H59   H     H_    0.568664 0.264625 0.667381 0.167114
H60   H     H_    0.665921 0.390912 0.704093 0.169978
H61   H     H_    0.753169 0.387435 0.807118 0.200405
H62   H     H_    0.710942 0.278006 0.692446 0.155032
H63   H     H_    0.655721 0.260301 0.770038 0.130641
H64   H     H_    0.636307 0.677829 0.273822 0.144894
H65   H     H_    0.580213 0.600356 0.314626 0.131519
H66   H     H_    0.617337 0.812498 0.381561 0.170736
H67   H     H_    0.547342 0.732617 0.417032 0.164186
H68   H     H_    0.226806 0.165541 0.677412 0.115252
H69   H     H_    0.678735 0.736916 0.471152 0.148690
H70   H     H_    0.702138 0.864557 0.525894 0.137826
H71   H     H_    0.748523 0.821313 0.439629 0.148980
H72   H     H_    0.278527 0.807418 0.754711 0.159588
H73   H     H_    0.397201 0.868055 0.783847 0.111284
H74   H     H_    0.296760 0.961356 0.774933 0.174298
H75   H     H_    0.417588 0.031583 0.812924 0.160288
H76   H     H_    0.410049 0.901072 0.664392 0.146417
H77   H     H_    0.358390 0.959427 0.653203 0.151452
H78   H     H_    0.288403 0.829692 0.625803 0.144676
H79   H     H_    0.775379 0.855330 0.334302 0.098699
H80   H     H_    0.658815 0.952207 0.038551 0.124284
H81   H     H_    0.603132 0.948721 0.120543 0.131810
H82   H     H_    0.805317 0.105487 0.164261 0.169821
H83   H     H_    0.748981 0.095733 0.243393 0.167022
H84   H     H_    0.706362 0.913780 0.170491 0.146585
H85   H     H_    0.826788 0.009327 0.213039 0.156573
H86   H     H_    0.767257 0.927872 0.094600 0.144799
H87   H     H_    0.370199 0.156735 0.279353 0.143137
H88   H     H_    0.409923 0.229984 0.397578 0.116418
H89   H     H_    0.527081 0.262078 0.278147 0.205856
H90   H     H_    0.966747 0.035633 0.710705 0.111109
H91   H     H_    0.569337 0.327499 0.397442 0.147272
H92   H     H_    0.507354 0.156234 0.373257 0.144652
H93   H     H_    0.585749 0.182419 0.314065 0.163342
H94   H     H_    0.466378 0.091635 0.253532 0.139542
H95   H     H_    0.645452 0.779561 0.610240 0.132052
H96   H     H_    0.706954 0.740313 0.642374 0.133905
H97   H     H_    0.663738 0.894397 0.768312 0.162282
H98   H     H_    0.720279 0.852982 0.802295 0.164849
H99   H     H_    0.842731 0.923900 0.743737 0.178585
H100  H     H_    0.831041 0.022549 0.827529 0.177247
O1    O     O_3   0.251620 0.500000 0.748430 -0.449199
O2    O     O_R   0.570330 0.268390 0.136490 -0.560210
O3    O     O_R   0.134680 0.268390 0.572240 -0.553586
O4    O     O_R   0.865320 0.731610 0.427760 -0.555663
O5    O     O_R   0.306670 0.731630 0.863510 -0.517620
O6    O     O_R   0.693330 0.268370 0.136490 -0.500211
O7    O     O_R   0.135450 0.439270 0.865360 -0.552971
O8    O     O_R   0.864550 0.560730 0.134640 -0.550495
O9    O     O_R   0.429670 0.560710 0.692610 -0.496564
O10   O     O_R   0.570330 0.439290 0.307390 -0.520923
O11   O     O_R   0.308540 0.439240 0.865360 -0.552469
O12   O     O_3   0.748380 0.500000 0.251570 -0.448720
O13   O     O_R   0.691460 0.560760 0.134640 -0.556018
O14   O     O_R   0.133580 0.439310 0.571150 -0.551936
O15   O     O_R   0.866420 0.560690 0.428850 -0.550545
O16   O     O_R   0.430770 0.560690 0.864590 -0.539526
O17   O     O_R   0.569230 0.439310 0.135410 -0.545132
O18   O     O_R   0.133580 0.560760 0.692610 -0.529637
O19   O     O_R   0.866420 0.439240 0.307390 -0.516973
O20   O     O_3   0.023192 0.091885 0.871692 -0.595150
O21   O     O_3   0.943956 0.845341 0.096960 -0.566482
O22   O     O_3   0.539858 0.404944 0.776449 -0.585902
O23   O     O_R   0.134680 0.560740 0.864590 -0.514353
O24   O     O_3   0.500284 0.613039 0.241523 -0.581253
O25   O     O_3   0.346761 0.929249 0.886896 -0.562927
O26   O     O_3   0.652614 0.078721 0.119315 -0.553060
O27   O     O_3   0.413854 0.307285 0.340344 -0.561790
O28   O     O_3   0.579911 0.689410 0.656977 -0.549752
O29   O     O_R   0.865320 0.439260 0.135410 -0.510208
O30   O     O_R   0.306670 0.439270 0.571150 -0.559465
O31   O     O_R   0.693330 0.560730 0.428850 -0.565658
O32   O     O_R   0.135450 0.268370 0.694460 -0.535264
O33   O     O_R   0.864550 0.731630 0.305540 -0.531663
O34   O     O_R   0.429670 0.731610 0.863510 -0.551327
Zn1   Zn    Zn3+2 0.207400 0.586780 0.791530 0.964032
Zn2   Zn    Zn3+2 0.792600 0.413220 0.208470 0.981298
Zn3   Zn    Zn3+2 0.208510 0.413230 0.792630 0.934811
Zn4   Zn    Zn3+2 0.791490 0.586770 0.207370 0.926949
Zn5   Zn    Zn3+2 0.383150 0.586740 0.791530 0.950946
Zn6   Zn    Zn3+2 0.616850 0.413260 0.208470 0.921735
Zn7   Zn    Zn3+2 0.207400 0.413250 0.618010 0.921440
Zn8   Zn    Zn3+2 0.792600 0.586750 0.381990 0.904887

loop_
_geom_bond_atom_site_label_1
_geom_bond_atom_site_label_2
_ccdc_geom_bond_type
C34   H79   S    
C84   C86   A    
C112  H58   S    
C71   C104  S    
C63   C65   A    
C29   C33   A    
C29   C42   A    
C100  H14   S    
C73   C75   A    
C37   H90   S    
C93   H33   S    
C18   H99   S    
C102  H13   S    
C5    H69   S    
C40   O20   S    
C10   H83   S    
C85   H27   S    
C107  H44   S    
C9    H80   S    
O8    Zn4   S    
C7    C8    S    
O11   Zn3   S    
C13   C60   S    
C41   O21   S    
C59   H10   S    
C89   H29   S    
C74   H22   S    
C60   O25   S    
C68   C96   S    
C106  O20   S    
O19   Zn2   S    
C82   H32   S    
C35   C37   A    
C76   C78   A    
C13   H34   S    
C15   H94   S    
C49   C101  S    
C2    C60   S    
C23   C26   S    
C20   C25   S    
C44   H4    S    
C80   O10   A    
C98   C103  S    
C6    H72   S    
C77   C94   S    
O1    Zn7   S    
C49   H31   S    
C102  C105  S    
C11   H85   S    
C12   H87   S    
C61   C63   A    
C11   H84   S    
C38   H30   S    
C55   C91   S    
O17   Zn6   S    
O12   Zn6   S    
C60   C82   S    
C78   C83   A    
C24   C80   S    
C66   C72   A    
C98   O19   A    
O5    Zn1   S    
C52   C54   A    
C16   C17   S    
C114  H62   S    
C82   C104  S    
C62   C64   A    
C21   H38   S    
C32   C104  S    
C7    H74   S    
C8    H78   S    
O3    Zn7   S    
C77   C81   A    
C74   C87   A    
C89   C91   A    
C19   C82   S    
C9    C10   S    
C30   H57   S    
C34   C36   A    
C15   H92   S    
O1    Zn5   S    
C3    O24   S    
C113  H59   S    
C97   C105  S    
C76   H25   S    
C114  H61   S    
C58   C61   A    
C56   C90   S    
C27   O4    A    
C101  C103  S    
C22   C28   S    
C14   H91   S    
C51   H8    S    
C41   C43   A    
C7    H75   S    
C26   H39   S    
O16   Zn5   S    
C110  H52   S    
C5    H70   S    
C35   C50   S    
C18   H100  S    
C17   H97   S    
C9    O26   S    
C10   H82   S    
C73   H21   S    
C100  C102  S    
C22   O27   S    
C108  H47   S    
C44   C46   A    
O13   Zn4   S    
C47   C50   A    
C88   C94   A    
C85   C87   A    
C99   C105  S    
O15   Zn8   S    
C46   C48   A    
C66   C68   A    
C30   C34   A    
C96   O17   A    
C42   H24   S    
C79   O30   A    
C16   H96   S    
C67   H18   S    
C95   O16   A    
C79   O9    A    
C61   H11   S    
C4    H67   S    
C20   H37   S    
C9    H81   S    
O33   Zn4   S    
C56   O8    A    
C53   C57   A    
O32   Zn3   S    
C1    C47   S    
C49   C105  S    
C45   H5    S    
O10   Zn6   S    
C106  H42   S    
O23   Zn1   S    
C36   C39   A    
C100  C103  S    
C110  C111  S    
C31   O34   A    
C13   C93   S    
C2    C31   S    
C25   C28   S    
C11   H86   S    
O18   Zn1   S    
C69   C72   A    
O4    Zn8   S    
C3    H64   S    
C38   C103  S    
C62   H15   S    
C66   H17   S    
C108  H48   S    
C110  H51   S    
O7    Zn3   S    
C90   C92   A    
C97   O14   A    
O14   Zn7   S    
C84   H26   S    
C55   O23   A    
C107  C108  S    
C12   O27   S    
C28   H40   S    
C107  H43   S    
C81   Cl1   S    
C33   H68   S    
C19   C71   S    
C17   C18   S    
C80   O31   A    
C8    H77   S    
C1    O3    A    
O1    Zn3   S    
C96   O13   A    
C89   C92   A    
C3    H65   S    
C12   H88   S    
C6    C7    S    
C109  H49   S    
C113  H60   S    
O12   Zn4   S    
C16   O28   S    
C27   C46   S    
C83   C85   A    
C6    O25   S    
C88   C90   A    
C112  O22   S    
C10   C11   S    
C21   C23   S    
C31   O5    A    
C22   C24   S    
O9    Zn5   S    
C21   C24   S    
C74   C76   A    
C3    C4    S    
C106  H41   S    
C15   H93   S    
O31   Zn8   S    
C43   H35   S    
C51   C53   A    
C54   O24   S    
C55   O7    A    
C113  C114  S    
C54   C58   A    
C45   C48   A    
C44   C50   A    
O34   Zn5   S    
C59   C62   A    
O2    Zn6   S    
C99   C101  S    
C2    C19   S    
C25   C79   S    
C29   H46   S    
O29   Zn2   S    
C2    C93   S    
C58   C70   S    
C51   C64   A    
C24   C26   S    
C71   O26   S    
C20   C22   S    
C38   C99   S    
C69   C95   S    
C1    O32   A    
C53   O22   S    
C108  H45   S    
C32   O6    A    
C52   H9    S    
C81   C84   A    
C99   H12   S    
C71   C93   S    
C109  O21   S    
C37   C40   A    
C39   H2    S    
C112  C113  S    
C111  H54   S    
C78   C92   S    
C67   C70   A    
O12   Zn8   S    
C12   C14   S    
C101  H1    S    
C38   C102  S    
O30   Zn7   S    
C75   H23   S    
C109  C110  S    
O12   Zn2   S    
C91   C94   A    
C112  H56   S    
C20   C26   S    
C8    H76   S    
C64   H6    S    
C97   O18   A    
C6    H73   S    
C40   C42   A    
C33   C35   A    
C63   H16   S    
C36   C48   S    
C16   H95   S    
C111  H55   S    
C65   H7    S    
C57   C72   S    
C27   O33   A    
C30   C43   A    
C95   O11   A    
C73   C86   A    
C57   C59   A    
C109  H50   S    
C52   C65   A    
C67   C69   A    
C21   C28   S    
C98   O15   A    
C86   H19   S    
C4    C5    S    
C23   C25   S    
C45   C47   A    
C39   C41   A    
C68   C70   A    
C114  H63   S    
C106  C107  S    
C75   C77   A    
C83   Cl2   S    
C13   C104  S    
C5    H71   S    
C14   C15   S    
C87   H20   S    
C111  H53   S    
O1    Zn1   S    
C4    H66   S    
C23   O28   S    
C56   O29   A    
C18   H3    S    
C88   H28   S    
C32   O2    A    
C14   H89   S    
C17   H98   S    
O6    Zn2   S    
C49   C100  S    
C19   H36   S    
