data_mof_unit_12227.cif
_audit_creation_date              2013-03-05T16:18:53-0500
_audit_creation_method            fapswitch 2.2
_symmetry_space_group_name_H-M    P1
_symmetry_Int_Tables_number       1
_space_group_crystal_system       triclinic
_cell_length_a                    8.359966
_cell_length_b                    18.927231
_cell_length_c                    22.957985
_cell_angle_alpha                 101.312556
_cell_angle_beta                  89.95374
_cell_angle_gamma                 91.964448
_cell_volume                      3559.93020946

loop_
_atom_site_label
_atom_site_type_symbol
_atom_site_description
_atom_site_fract_x
_atom_site_fract_y
_atom_site_fract_z
_atom_type_partial_charge
P1    P     P_3+3 0.935930 0.665430 0.555670 0.467770
O1    O     O_2   0.110690 0.676100 0.539200 -0.372815
O2    O     O_3   0.863220 0.586720 0.534720 -0.393584
O3    O     O_3   0.368310 0.629070 0.432760 -0.352664
O4    O     O_2   0.247982 0.755131 0.478468 -0.344550
O5    O     O_3   0.935676 0.690265 0.633124 -0.577920
O6    O     O_3   0.343794 0.740914 0.369836 -0.448000
H1    H     H_    0.512909 0.669467 0.330105 0.080380
C1    C     C_3   0.440967 0.738968 0.272108 -0.848727
H2    H     H_    0.349423 0.698286 0.250268 0.277033
H3    H     H_    0.394797 0.793931 0.274860 0.246545
P2    P     P_3+3 0.382700 0.439650 0.365620 0.418453
P3    P     P_3+3 0.939716 0.580907 0.323982 0.493853
O7    O     O_2   0.210480 0.460990 0.358130 -0.371802
O8    O     O_3   0.959520 0.592090 0.401630 -0.331062
O9    O     O_2   0.044478 0.517942 0.295759 -0.391791
O10   O     O_3   0.375022 0.349021 0.327350 -0.565473
O11   O     O_3   0.030831 0.654596 0.299553 -0.499963
C2    C     C_3   0.922780 0.710806 0.303280 0.860346
H4    H     H_    0.795274 0.692772 0.303224 -0.090244
C3    C     C_3   0.946703 0.746748 0.249957 -0.955748
H5    H     H_    0.071884 0.768132 0.248805 0.269658
H6    H     H_    0.920940 0.706923 0.208247 0.248304
C4    C     C_3   0.905439 0.355608 0.332786 0.562788
H7    H     H_    0.965785 0.402868 0.360429 0.134558
C5    C     C_3   0.025278 0.318969 0.286879 -0.833957
H8    H     H_    0.968611 0.274305 0.254110 0.230057
H9    H     H_    0.083276 0.358924 0.263229 0.257433
H10   H     H_    0.115821 0.293156 0.309691 0.247600
Ba1   Ba    Ba6+2 0.157800 0.534120 0.474430 1.552093
C6    C     C_3   0.003214 0.637097 0.658633 0.404258
H11   H     H_    0.123555 0.624682 0.639830 0.111032
H12   H     H_    0.923183 0.588032 0.650990 0.101650
C7    C     C_3   0.020008 0.666502 0.725176 -0.933501
H13   H     H_    0.092961 0.717882 0.733088 0.273505
H14   H     H_    0.080902 0.627858 0.747505 0.226273
H15   H     H_    0.899285 0.676647 0.745192 0.258702
C8    C     C_3   0.406594 0.298874 0.362632 0.336875
H16   H     H_    0.294429 0.284260 0.383854 0.034421
H17   H     H_    0.500973 0.319541 0.394716 0.156363
C9    C     C_3   0.461335 0.229482 0.323636 -0.948268
H18   H     H_    0.388587 0.216006 0.282178 0.272213
H19   H     H_    0.446452 0.184548 0.347901 0.205103
H20   H     H_    0.589580 0.234456 0.312488 0.270481
P4    P     P_3+3 0.874370 0.334570 0.444280 0.445031
O12   O     O_2   0.699610 0.323860 0.460780 -0.379275
O13   O     O_3   0.947090 0.413280 0.465240 -0.399759
O14   O     O_3   0.442000 0.370930 0.567190 -0.400782
O15   O     O_3   0.851109 0.305352 0.366608 -0.605508
P5    P     P_3+3 0.859617 0.419676 0.676175 0.461509
O16   O     O_3   0.359410 0.538600 0.570730 -0.440894
O17   O     O_3   0.850780 0.407910 0.598320 -0.387673
O18   O     O_2   0.692306 0.444154 0.698933 -0.395807
O19   O     O_3   0.871928 0.335656 0.697232 -0.523228
Ba2   Ba    Ba6+2 0.652390 0.465870 0.525520 1.508303
P6    P     P_3+3 0.387458 0.722206 0.439578 0.501829
C10   C     C_3   0.478977 0.726421 0.333891 0.369769
H21   H     H_    0.580790 0.763480 0.352055 0.060584
H22   H     H_    0.551553 0.734269 0.244915 0.246942
O20   O     O_3   0.450900 0.461390 0.429220 -0.447258
C11   C     C_3   0.486296 0.686807 0.621012 0.456514
H23   H     H_    0.608926 0.668493 0.609109 0.098472
H24   H     H_    0.406518 0.672745 0.581437 0.116068
C12   C     C_3   0.493178 0.768445 0.640394 -1.030593
H25   H     H_    0.574247 0.784687 0.679390 0.279449
H26   H     H_    0.538808 0.793771 0.603669 0.214406
H27   H     H_    0.371451 0.788039 0.652521 0.259190
P7    P     P_3+3 0.419839 0.562073 0.645560 0.438448
O21   O     O_2   0.599830 0.538970 0.641850 -0.352728
O22   O     O_3   0.426888 0.656080 0.667984 -0.552602
H28   H     H_    0.863843 0.791973 0.252586 0.233905
C13   C     C_3   0.865258 0.279943 0.646629 0.446457
H29   H     H_    0.769991 0.287921 0.615080 0.140651
H30   H     H_    0.982358 0.277198 0.623835 -0.001618
C14   C     C_3   0.825146 0.208001 0.665093 -0.415726
H31   H     H_    0.823717 0.163421 0.625376 0.153462
H32   H     H_    0.702251 0.210106 0.683762 0.195046
P8    P     P_3+3 0.415157 0.277504 0.565002 0.392881
C15   C     C_3   0.378621 0.314468 0.677547 0.398059
H33   H     H_    0.246654 0.310093 0.670822 0.060920
O23   O     O_2   0.553135 0.241520 0.526629 -0.405631
O24   O     O_3   0.455261 0.262051 0.636047 -0.549160
H34   H     H_    0.422543 0.369542 0.674380 0.145996
H35   H     H_    0.354162 0.343871 0.772901 0.256930
C16   C     C_3   0.416905 0.303585 0.739783 -0.908198
H36   H     H_    0.547916 0.310950 0.748319 0.270996
H37   H     H_    0.377225 0.248537 0.745029 0.254427
C17   C     C_R   0.991794 0.952015 0.528018 0.014636
C18   C     C_R   0.082919 0.905781 0.555037 0.125261
C19   C     C_R   0.234710 0.929791 0.578491 -0.182775
C20   C     C_R   0.295212 0.998844 0.575447 -0.194794
C21   C     C_R   0.204190 0.045892 0.549754 0.121676
C22   C     C_R   0.051776 0.022640 0.525893 0.012214
C23   C     C_R   0.261806 0.116330 0.549256 -0.227320
C24   C     C_R   0.167221 0.165630 0.527071 -0.028161
C25   C     C_R   0.016251 0.141709 0.500382 -0.002933
C26   C     C_R   0.959490 0.069895 0.500139 -0.008534
C27   C     C_R   0.215612 0.238975 0.533040 0.112217
C28   C     C_R   0.110205 0.286285 0.513789 -0.237243
C29   C     C_R   0.973270 0.263365 0.479934 0.243813
C30   C     C_R   0.921969 0.189320 0.474142 -0.089634
C31   C     C_R   0.840570 0.927934 0.503649 0.001643
C32   C     C_R   0.783353 0.856137 0.503571 0.049011
C33   C     C_R   0.878415 0.808126 0.528586 -0.017318
C34   C     C_R   0.023066 0.835889 0.557360 -0.141038
H38   H     H_    0.307552 0.894850 0.598763 0.134882
H39   H     H_    0.412901 0.015768 0.593841 0.135603
H40   H     H_    0.378257 0.132987 0.568644 0.184825
H41   H     H_    0.093569 0.803092 0.580352 0.164640
C35   C     C_R   0.777227 0.161693 0.445643 -0.123269
C36   C     C_R   0.717041 0.091985 0.448619 0.118596
C37   C     C_R   0.808449 0.045768 0.475631 0.001638
C38   C     C_R   0.748534 0.975143 0.477815 0.022225
C39   C     C_R   0.564462 0.068112 0.425964 -0.175495
C40   C     C_R   0.504384 0.999017 0.428871 -0.182585
C41   C     C_R   0.596241 0.951840 0.454008 0.133706
C42   C     C_R   0.632403 0.832304 0.477402 -0.010713
C43   C     C_R   0.538490 0.881554 0.454756 -0.244607
C44   C     C_R   0.581835 0.759340 0.473099 0.123612
C45   C     C_R   0.681226 0.711296 0.493838 -0.487760
C46   C     C_R   0.827057 0.733928 0.522514 0.305352
H42   H     H_    0.706454 0.194822 0.423022 0.174398
H43   H     H_    0.490207 0.103155 0.406625 0.125394
H44   H     H_    0.386093 0.982275 0.410983 0.147147
H45   H     H_    0.421003 0.865504 0.436166 0.189777
H46   H     H_    0.641093 0.655532 0.489661 0.168975
H47   H     H_    0.236560 0.345327 0.053417 0.168468
H48   H     H_    0.156262 0.339958 0.950968 0.169377
C47   C     C_R   0.629493 0.530921 0.338119 -0.465299
C48   C     C_R   0.398507 0.560845 0.946138 -0.052714
C49   C     C_R   0.353087 0.556542 0.886136 0.524931
O25   O     O_2   0.388167 0.606878 0.861720 -0.585512
N1    N     N_R   0.267165 0.496686 0.855169 -0.166159
C50   C     C_R   0.223557 0.440637 0.883786 0.504521
O26   O     O_2   0.148102 0.387815 0.856817 -0.588249
C51   C     C_R   0.266890 0.443530 0.943885 -0.043045
C52   C     C_R   0.354863 0.504016 0.975137 -0.016860
C53   C     C_R   0.485989 0.621074 0.978014 -0.120611
C54   C     C_R   0.527126 0.625256 0.037614 -0.122607
C55   C     C_R   0.483908 0.568987 0.067260 -0.042560
C56   C     C_R   0.399218 0.507817 0.035698 -0.021565
C57   C     C_R   0.224826 0.387087 0.973501 -0.121967
C58   C     C_R   0.271128 0.390207 0.032556 -0.122634
C59   C     C_R   0.359139 0.450369 0.064375 -0.044172
C60   C     C_R   0.409213 0.453865 0.123930 0.518839
N2    N     N_R   0.487875 0.515473 0.155904 -0.160467
C61   C     C_R   0.523037 0.572975 0.127793 0.521575
C62   C     C_2   0.067641 0.479432 0.774257 -0.150728
C63   C     C_3   0.018067 0.486617 0.712000 0.186542
C64   C     C_1   0.299479 0.514915 0.694209 0.268569
C65   C     C_2   0.344072 0.510540 0.748829 -0.198156
C66   C     C_2   0.222016 0.493699 0.793010 0.105047
C67   C     C_R   0.690238 0.547243 0.238289 -0.211508
C68   C     C_R   0.734597 0.554042 0.298133 0.158926
C69   C     C_R   0.484523 0.496179 0.318364 0.365717
C70   C     C_R   0.433951 0.493947 0.259358 -0.212293
C71   C     C_R   0.536131 0.519791 0.218123 0.125958
O27   O     O_2   0.385100 0.401309 0.146710 -0.606140
O28   O     O_2   0.587413 0.628324 0.155564 -0.625028
C72   C     C_2   0.160044 0.487851 0.671602 -0.515780
H49   H     H_    0.594183 0.672741 0.060366 0.168244
H50   H     H_    0.777055 0.562212 0.207450 0.165016
H51   H     H_    0.522840 0.665500 0.956937 0.170213
H52   H     H_    0.468875 0.519597 0.761966 0.180596
H53   H     H_    0.975070 0.470233 0.805391 0.163082
H54   H     H_    0.318271 0.469285 0.245250 0.199942
H55   H     H_    0.668830 0.532442 0.383262 0.173572
H56   H     H_    0.132947 0.487217 0.625380 0.158577
N3    N     N_2   0.936673 0.194571 0.709832 -0.052497
H57   H     H_    0.882417 0.173031 0.743137 0.202438
C73   C     C_3   0.078858 0.157247 0.687465 -0.815326
H58   H     H_    0.159070 0.153355 0.725138 0.237955
H59   H     H_    0.144434 0.187188 0.657512 0.252380
H60   H     H_    0.046058 0.101840 0.663280 0.234867
Br1   Br    Br    0.966684 0.781676 0.375013 -0.520832
N4    N     N_2   0.145554 0.360036 0.526606 -0.094396
H61   H     H_    0.168624 0.380582 0.570683 0.157343
C74   C     C_3   0.252474 0.381143 0.483799 -0.473924
H62   H     H_    0.302999 0.433796 0.503618 0.294578
H63   H     H_    0.194128 0.380553 0.441031 0.194202
H64   H     H_    0.351593 0.344276 0.473385 0.175926
N5    N     N_2   0.769070 0.381994 0.305338 -0.125354
H65   H     H_    0.678027 0.392378 0.335362 0.168829
C75   C     C_3   0.713564 0.347004 0.246455 -0.819107
H66   H     H_    0.594842 0.367032 0.237328 0.278488
H67   H     H_    0.700583 0.287813 0.242551 0.247915
H68   H     H_    0.798172 0.359979 0.212435 0.248314

loop_
_geom_bond_atom_site_label_1
_geom_bond_atom_site_label_2
_geom_bond_distance
_ccdc_geom_bond_type
C11   O22   1.404699 S    
O14   Ba2   2.773592 S    
C8    H17   1.088505 S    
C73   H58   1.110144 S    
C11   C12   1.520886 S    
C7    H15   1.115581 S    
N3    C73   1.445661 S    
N3    H57   1.032295 S    
O4    P6    1.541085 D    
C2    H4    1.107986 S    
P8    O23   1.545099 D    
Ba1   O16   2.767397 S    
C61   O28   1.222074 D    
C60   N2    1.394057 Am   
C19   C20   1.399778 A    
C24   C27   1.412996 A    
N2    C71   1.470617 S    
P4    O12   1.525780 D    
C73   H59   1.107062 S    
C23   H40   1.081603 S    
C5    H8    1.108444 S    
P5    O19   1.756744 S    
C64   C72   1.321469 D    
P3    O11   1.753109 S    
C3    H28   1.111988 S    
C21   C22   1.409044 A    
C70   C71   1.420154 A    
C2    C3    1.522627 S    
C4    C5    1.534458 S    
O11   C2    1.408980 S    
C52   C56   1.426727 A    
C42   C44   1.414984 A    
C47   C68   1.391472 A    
C7    H13   1.113947 S    
C45   H46   1.082509 S    
C58   C59   1.410235 A    
C75   H66   1.109050 S    
P1    O1    1.525478 D    
C9    H18   1.111691 S    
O14   P8    1.765696 S    
C11   H24   1.111328 S    
C35   C36   1.410092 A    
C37   C38   1.421488 A    
C51   C57   1.409272 A    
C2    Br1   1.935629 S    
C3    H5    1.111222 S    
N5    H65   1.024355 S    
O2    Ba2   2.813856 S    
C28   N4    1.390369 S    
C28   C29   1.392094 A    
C75   H67   1.107787 S    
P7    O21   1.578903 D    
Ba1   O20   2.939874 S    
O12   Ba2   2.844990 S    
C14   N3    1.452287 S    
P5    O17   1.758631 S    
C65   C66   1.508142 S    
C6    H12   1.111085 S    
C53   H51   1.085242 S    
C43   H45   1.080959 S    
P4    O15   1.769107 S    
C1    H2    1.112991 S    
C7    H14   1.109056 S    
C11   H23   1.110209 S    
O17   Ba2   2.756104 S    
O10   C8    1.394921 S    
C38   C41   1.407927 A    
N4    C74   1.432665 S    
O5    C6    1.394674 S    
C67   C68   1.403537 A    
Ba2   O20   2.766787 S    
O3    P6    1.740714 S    
C62   H53   1.085733 S    
C9    H19   1.108008 S    
C32   C42   1.418723 A    
N1    C66   1.466244 S    
O6    P6    1.747715 S    
O7    Ba1   2.797998 S    
C13   C14   1.530082 S    
C55   C61   1.414872 A    
C33   C34   1.412946 A    
C39   C40   1.398619 A    
P1    C46   1.886230 S    
P4    O13   1.574061 S    
C55   C56   1.407934 A    
C73   H60   1.111461 S    
C69   C70   1.411709 A    
P5    O18   1.546710 D    
C47   H55   1.082263 S    
C16   H37   1.111573 S    
C4    N5    1.452534 S    
P1    O5    1.747881 S    
C12   H27   1.111544 S    
C20   H39   1.083944 S    
Ba1   O13   2.813128 S    
C54   H49   1.084730 S    
C4    H7    1.097397 S    
C19   H38   1.083332 S    
C8    C9    1.521575 S    
C13   H30   1.107645 S    
C56   C59   1.408365 A    
C20   C21   1.404695 A    
C47   C69   1.391456 A    
C26   C37   1.407240 A    
C59   C60   1.418640 A    
C50   C51   1.416948 A    
C33   C46   1.434566 A    
O16   Ba2   2.939023 S    
C30   C35   1.410452 A    
C16   H36   1.112012 S    
P1    O2    1.574005 S    
C12   H26   1.109814 S    
P2    O10   1.766297 S    
O2    Ba1   2.931510 S    
C14   H31   1.114013 S    
P8    C27   1.887258 S    
H1    C10   1.110965 S    
C14   H32   1.111853 S    
P8    O24   1.747301 S    
C74   H63   1.094613 S    
C6    H11   1.108783 S    
C70   H54   1.080863 S    
C44   C45   1.402241 A    
C25   C26   1.423226 A    
C21   C23   1.404101 A    
C6    C7    1.524706 S    
C23   C24   1.411742 A    
H47   C58   1.084895 S    
H35   C16   1.110841 S    
C1    H3    1.112164 S    
Ba2   O21   2.798234 S    
C39   H43   1.080091 S    
N4    H61   1.026255 S    
P2    O7    1.527455 D    
C65   H52   1.084848 S    
C3    H6    1.112444 S    
N1    C50   1.391584 Am   
C9    H20   1.107202 S    
P2    C69   1.854141 S    
C49   O25   1.223909 D    
C48   C53   1.409377 A    
C22   C26   1.414301 A    
C15   C16   1.518896 S    
C45   C46   1.399314 A    
O8    Ba1   2.755641 S    
O13   Ba2   2.932217 S    
N2    C61   1.393126 Am   
C4    O15   1.404844 S    
C34   H41   1.079587 S    
C17   C22   1.421370 A    
C40   H44   1.084038 S    
C36   C37   1.411803 A    
P2    Ba1   3.382745 S    
C57   C58   1.399764 A    
C62   C66   1.362072 D    
C13   H29   1.110775 S    
C49   N1    1.390665 Am   
P4    C29   1.918399 S    
C15   O24   1.405104 S    
C17   C31   1.407334 A    
C54   C55   1.409132 A    
C50   O26   1.222840 D    
Ba1   Ba2   4.594465 S    
C5    H9    1.112348 S    
C75   H68   1.110446 S    
C67   H50   1.082618 S    
O1    Ba1   2.844588 S    
C12   H25   1.110869 S    
P3    O8    1.760695 S    
C48   C49   1.415311 A    
C24   C25   1.423576 A    
C31   C38   1.413493 A    
C42   C43   1.413010 A    
C35   H42   1.080100 S    
C15   H34   1.109138 S    
C60   O27   1.222223 D    
P5    C63   1.874634 S    
C10   H21   1.111407 S    
C8    H16   1.107923 S    
P1    Ba1   3.404083 S    
P6    C44   1.854265 S    
C41   C43   1.402866 A    
C36   C39   1.403956 A    
C1    C10   1.519003 S    
O16   P7    1.757979 S    
C72   H56   1.082943 S    
C67   C71   1.415904 A    
C31   C32   1.424751 A    
C63   C72   1.508079 S    
N5    C75   1.452608 S    
P3    C68   1.837034 S    
C74   H64   1.097523 S    
P7    C64   1.839639 S    
C53   C54   1.397550 A    
C15   H33   1.112128 S    
P2    O20   1.541400 S    
O19   C13   1.407188 S    
C17   C18   1.410786 A    
P4    Ba2   3.404484 S    
C5    H10   1.101054 S    
P7    O22   1.751550 S    
C27   C28   1.408429 A    
P3    O9    1.541052 D    
C18   C34   1.409051 A    
C32   C33   1.429044 A    
C64   C65   1.327341 D    
C51   C52   1.409678 A    
C29   C30   1.432290 A    
C1    H22   1.111427 S    
C18   C19   1.404385 A    
C25   C30   1.434812 A    
C48   C52   1.409588 A    
H48   C57   1.084551 S    
C62   C63   1.521256 S    
O6    C10   1.401556 S    
O3    Ba1   2.774340 S    
C40   C41   1.403551 A    
C74   H62   1.082661 S    
