data_mof_unit_54958.cif
_audit_creation_date              2012-12-11T15:49:48-0500
_audit_creation_method            fapswitch 2.2
_symmetry_space_group_name_H-M    P1
_symmetry_Int_Tables_number       1
_space_group_crystal_system       triclinic
_cell_length_a                    8.257435
_cell_length_b                    18.992066
_cell_length_c                    27.045931
_cell_angle_alpha                 94.946501
_cell_angle_beta                  92.752575
_cell_angle_gamma                 85.563308
_cell_volume                      4209.38623096

loop_
_atom_site_label
_atom_site_type_symbol
_atom_type_description
_atom_site_fract_x
_atom_site_fract_y
_atom_site_fract_z
_atom_type_partial_charge
Ba1   Ba    Ba6+2 0.854000 0.466860 0.523710 1.673516
Ba2   Ba    Ba6+2 0.335820 0.533080 0.476290 1.680307
C1    C     C_3   0.708611 0.204919 0.659001 -0.361668
C2    C     C_R   0.924717 0.573140 0.178347 0.640786
C3    C     C_2   0.762178 0.550224 0.272235 -0.083237
C4    C     C_3   0.131183 0.311766 0.659801 0.335619
C5    C     C_3   0.744168 0.571825 0.326738 -0.046818
C6    C     C_1   0.981483 0.490003 0.343225 0.030080
C7    C     C_2   0.020395 0.486231 0.295548 -0.100553
C8    C     C_2   0.903088 0.516113 0.256620 0.183089
C9    C     C_R   0.019958 0.506599 0.102552 -0.162549
C10   C     C_R   0.036859 0.445046 0.128661 0.012458
C11   C     C_R   0.091777 0.380787 0.103427 -0.051579
C12   C     C_3   0.669069 0.276886 0.638916 0.358048
C13   C     C_R   0.965322 0.571305 0.127858 -0.205561
C14   C     C_2   0.850144 0.526863 0.360270 -0.294175
C15   C     C_2   0.346456 0.477855 0.640379 -0.283132
C16   C     C_3   0.119561 0.288950 0.711920 -0.326341
C17   C     C_R   0.164394 0.435755 0.976089 0.022933
C18   C     C_R   0.061860 0.560550 0.972590 0.059690
C19   C     C_R   0.132146 0.496529 0.948941 0.049987
C20   C     C_R   0.241663 0.374378 0.951460 -0.106922
C21   C     C_R   0.280095 0.372048 0.901743 -0.054716
C22   C     C_R   0.243634 0.430739 0.874029 -0.022526
C23   C     C_3   0.520607 0.631721 0.625660 0.277218
C24   C     C_R   0.169375 0.493061 0.897469 -0.085204
C25   C     C_R   0.131765 0.551775 0.869415 -0.036048
C26   C     C_R   0.172612 0.548092 0.818798 0.604911
C27   C     C_R   0.280126 0.427853 0.823287 0.575069
C28   C     C_3   0.187925 0.317988 0.419098 0.312777
C29   C     C_2   0.428833 0.450775 0.727480 -0.085230
C30   C     C_3   0.447083 0.429560 0.672903 -0.046809
C31   C     C_1   0.209252 0.510377 0.656608 0.015001
C32   C     C_2   0.166497 0.510695 0.703764 -0.107199
C33   C     C_2   0.285152 0.482421 0.743072 0.192791
C34   C     C_3   0.520383 0.648356 0.681654 -0.360560
C35   C     C_R   0.118888 0.438183 0.026631 0.068720
C36   C     C_R   0.058057 0.503423 0.051149 -0.019348
C37   C     C_R   0.036570 0.565595 0.024914 -0.149781
C38   C     C_R   0.131730 0.377308 0.053748 -0.094555
C39   C     C_R   0.956873 0.633240 0.102498 0.630421
C40   C     C_3   0.198447 0.238089 0.407021 -0.378491
C41   C     C_R   0.014333 0.616477 0.942342 -0.038821
C42   C     C_R   0.051241 0.612673 0.892347 -0.078738
C43   C     C_R   0.995210 0.630842 0.052700 0.529230
C44   C     C_R   0.400435 0.299298 0.523373 -0.291759
C45   C     C_3   0.068687 0.684919 0.339115 0.297608
C46   C     C_R   0.538018 0.276612 0.496919 0.066171
C47   C     C_R   0.589962 0.204542 0.491925 -0.124856
C48   C     C_R   0.502058 0.154358 0.512581 -0.017799
C49   C     C_R   0.358518 0.177906 0.537347 -0.136992
C50   C     C_R   0.306629 0.250196 0.541657 0.010315
C51   C     C_R   0.547253 0.034233 0.545367 -0.076089
C52   C     C_3   0.984254 0.683486 0.586064 0.898297
C53   C     C_R   0.597765 0.962094 0.539419 -0.075417
C54   C     C_R   0.657673 0.931296 0.494041 0.060936
C55   C     C_R   0.667983 0.974719 0.454985 -0.076224
C56   C     C_3   0.087407 0.704890 0.286540 -0.251233
C57   C     C_R   0.617570 0.046969 0.460957 -0.074149
C58   C     C_R   0.556097 0.077568 0.506198 0.061667
C59   C     C_R   0.847143 0.827666 0.462517 -0.146318
C60   C     C_R   0.892103 0.754569 0.458175 0.062075
C61   C     C_R   0.658144 0.733234 0.503646 -0.005327
C62   C     C_R   0.611565 0.805671 0.507995 -0.128761
C63   C     C_R   0.705070 0.853895 0.487327 -0.009829
C64   C     C_3   0.948404 0.761028 0.604071 -0.315537
C65   C     C_R   0.793398 0.707807 0.476955 -0.229462
C66   C     C_3   0.671386 0.381792 0.376012 0.296874
C67   C     C_3   0.528566 0.723476 0.361167 0.355451
C68   C     C_3   0.666758 0.365121 0.319969 -0.351853
C69   C     C_3   0.486521 0.795978 0.342158 -0.348040
C70   C     C_R   0.997739 0.448712 0.179407 0.598908
F1    F     F_    0.074953 0.679530 0.544407 -0.704396
F2    F     F_    0.916361 0.697785 0.126206 -0.598942
F3    F     F_    0.004691 0.694305 0.034020 -0.659448
H1    H     H_    0.714565 0.274685 0.600749 0.076225
H2    H     H_    0.584561 0.428226 0.384881 0.078615
H3    H     H_    0.841278 0.190440 0.658689 0.150182
H4    H     H_    0.757823 0.320756 0.309755 0.137100
H5    H     H_    0.694747 0.412228 0.301379 0.072500
H6    H     H_    0.543749 0.350060 0.306747 0.133946
H7    H     H_    0.534431 0.286616 0.637276 -0.065281
H8    H     H_    0.645102 0.163961 0.635375 0.067500
H9    H     H_    0.396751 0.618581 0.612247 0.045341
H10   H     H_    0.608176 0.585222 0.617606 0.065617
H11   H     H_    0.430652 0.693557 0.691123 0.140008
H12   H     H_    0.278492 0.223337 0.375347 0.130208
H13   H     H_    0.487156 0.601475 0.699696 0.075023
H14   H     H_    0.643205 0.662141 0.696025 0.128862
H15   H     H_    0.667603 0.206080 0.697593 0.123178
H16   H     H_    0.134391 0.335089 0.739190 0.125534
H17   H     H_    0.147342 0.635724 0.344433 0.091164
H18   H     H_    0.939782 0.675203 0.343456 -0.055519
H19   H     H_    0.199897 0.732452 0.283974 0.149253
H20   H     H_    0.096378 0.656138 0.260934 0.118454
H21   H     H_    0.981561 0.740322 0.274986 0.141292
H22   H     H_    0.663024 0.713343 0.360827 -0.071791
H23   H     H_    0.249019 0.210782 0.439484 0.062066
H24   H     H_    0.488992 0.725128 0.399983 0.064367
H25   H     H_    0.553774 0.836353 0.365171 0.065145
H26   H     H_    0.354375 0.810782 0.344479 0.149180
H27   H     H_    0.053321 0.361776 0.656729 0.086831
H28   H     H_    0.521397 0.795466 0.302972 0.137666
H29   H     H_    0.138360 0.462401 0.284607 0.125426
H30   H     H_    0.104310 0.332325 0.122126 0.123072
H31   H     H_    0.522283 0.431974 0.753777 0.121244
H32   H     H_    0.339121 0.323452 0.884990 0.125494
H33   H     H_    0.277441 0.327190 0.969839 0.074916
H34   H     H_    0.075330 0.220108 0.397096 0.129145
H35   H     H_    0.169508 0.325309 0.037360 0.070362
H36   H     H_    0.671774 0.571111 0.245788 0.119441
H37   H     H_    0.941549 0.663092 0.955606 0.171714
H38   H     H_    0.259704 0.321080 0.654232 -0.054600
H39   H     H_    0.013768 0.657708 0.871399 0.133492
H40   H     H_    0.045384 0.531186 0.714025 0.133138
H41   H     H_    0.833971 0.536967 0.399891 0.079963
H42   H     H_    0.374132 0.475276 0.601420 0.075762
H43   H     H_    0.504832 0.824279 0.528440 0.084232
H44   H     H_    0.591222 0.930472 0.570617 0.066442
H45   H     H_    0.868893 0.658969 0.576891 -0.073350
H46   H     H_    0.503049 0.056337 0.580885 0.064849
H47   H     H_    0.697767 0.187772 0.471492 0.085597
H48   H     H_    0.711624 0.952471 0.419430 0.068533
H49   H     H_    0.999006 0.269100 0.716747 0.146510
H50   H     H_    0.623743 0.078611 0.429756 0.066002
H51   H     H_    0.925230 0.863819 0.448327 0.074432
H52   H     H_    0.283960 0.140175 0.551308 0.079689
H53   H     H_    0.829190 0.651620 0.474228 0.083091
H54   H     H_    0.359196 0.354920 0.526300 0.068182
H55   H     H_    0.215756 0.246464 0.719144 0.118710
H56   H     H_    0.867479 0.765347 0.635996 0.071218
H57   H     H_    0.311367 0.335218 0.427886 0.002682
H58   H     H_    0.110818 0.331187 0.451606 0.063682
H59   H     H_    0.888075 0.790647 0.573938 0.056291
H60   H     H_    0.063445 0.785481 0.615912 0.114499
H61   H     H_    0.795565 0.394416 0.388750 0.008882
N1    N     N_R   0.942531 0.512407 0.204013 -0.432150
N2    N     N_R   0.245711 0.486351 0.795793 -0.422592
O1    O     O_2   0.913240 0.537010 0.617740 -0.481453
O2    O     O_2   0.229353 0.750071 0.464206 -0.447486
O3    O     O_3   0.115432 0.740421 0.373037 -0.618759
O4    O     O_3   0.145240 0.536960 0.557560 -0.438895
O5    O     O_3   0.557280 0.416300 0.475860 -0.491036
O6    O     O_2   0.376710 0.670070 0.522470 -0.365512
O7    O     O_3   0.565668 0.691043 0.603491 -0.650154
O8    O     O_2   0.415012 0.534389 0.322043 -0.497972
O9    O     O_3   0.448688 0.671547 0.330895 -0.592729
O10   O     O_2   0.010601 0.394840 0.201381 -0.594130
O11   O     O_2   0.341492 0.372541 0.803561 -0.618295
O12   O     O_3   0.629349 0.322314 0.398271 -0.634733
O13   O     O_2   0.873665 0.629258 0.199526 -0.539309
O14   O     O_2   0.145206 0.600419 0.795570 -0.594176
O15   O     O_3   0.669960 0.410470 0.588880 -0.482459
O16   O     O_2   0.775117 0.466961 0.677520 -0.495795
O17   O     O_3   0.071867 0.649683 0.623748 -0.658403
O18   O     O_3   0.744211 0.329537 0.669860 -0.595689
O19   O     O_2   0.812980 0.329910 0.477500 -0.460860
O20   O     O_3   0.078660 0.374870 0.564770 -0.497337
O21   O     O_2   0.970440 0.248974 0.532961 -0.484338
O22   O     O_3   0.077764 0.258351 0.625166 -0.600959
O23   O     O_2   0.276450 0.462960 0.382230 -0.464039
O24   O     O_3   0.044470 0.462980 0.442430 -0.491708
O25   O     O_3   0.519740 0.589470 0.411120 -0.483702
O26   O     O_3   0.121137 0.350093 0.377460 -0.623675
O27   O     O_3   0.632420 0.583650 0.524140 -0.485578
O28   O     O_3   0.111040 0.625070 0.435230 -0.456236
P1    P     P_3+3 0.082480 0.557670 0.610090 1.031191
P2    P     P_3+3 0.635220 0.340300 0.462910 0.984464
P3    P     P_3+3 0.107837 0.282525 0.565565 0.942218
P4    P     P_3+3 0.107220 0.442270 0.389900 0.993759
P5    P     P_3+3 0.087151 0.717710 0.433135 1.024998
P6    P     P_3+3 0.660528 0.411977 0.653208 0.948070
P7    P     P_3+3 0.560545 0.671648 0.538994 0.974954
P8    P     P_3+3 0.530827 0.588570 0.346878 0.941136

loop_
_geom_bond_atom_site_label_1
_geom_bond_atom_site_label_2
_ccdc_geom_bond_type
C34   H14   S    
C53   C54   A    
C52   H45   S    
Ba2   O6    S    
C45   H17   S    
O26   P4    S    
C28   O26   S    
C19   C24   A    
Ba2   O24   S    
C44   H54   S    
O9    P8    S    
C53   H44   S    
C34   H13   S    
C60   P5    S    
C24   C25   A    
C60   C65   A    
C1    H15   S    
Ba1   O5    S    
C16   H16   S    
Ba1   O20   S    
C17   C19   A    
C40   H34   S    
C22   C24   A    
C32   C33   S    
C35   C38   A    
C40   H23   S    
C33   N2    S    
C36   C37   A    
C28   H57   S    
C55   C57   A    
Ba1   P1    S    
O27   P7    S    
C54   C63   S    
C5    P8    S    
C44   C50   A    
O3    P5    S    
C62   H43   S    
C54   C55   A    
O19   P2    D    
Ba1   Ba2   S    
C67   C69   S    
C68   H6    S    
C56   H21   S    
C22   C27   A    
C30   P6    S    
C11   C38   A    
Ba1   O4    S    
C17   C35   A    
O4    P1    S    
C64   H59   S    
C9    C13   A    
C25   C42   A    
O17   P1    S    
C6    C7    D    
O24   P4    S    
O6    P7    D    
C23   H9    S    
C21   C22   A    
C59   H51   S    
C8    N1    S    
C7    C8    S    
Ba2   O28   S    
Ba1   O1    S    
C15   H42   S    
C37   C43   A    
C39   F2    S    
O12   P2    S    
O28   P5    S    
C6    C14   D    
Ba2   O5    S    
C31   P1    S    
C15   C31   D    
C14   H41   S    
Ba2   O23   S    
C51   C58   A    
C6    P4    S    
C61   P7    S    
C61   C65   A    
C51   C53   A    
C4    C16   S    
C44   C46   A    
C68   H5    S    
C49   C50   A    
C66   H61   S    
C17   C20   A    
C26   N2    Am   
C13   C39   A    
C11   H30   S    
C52   O17   S    
C3    C5    S    
C18   C37   A    
C38   H35   S    
C3    H36   S    
Ba1   P2    S    
C34   H11   S    
C32   H40   S    
C70   O10   D    
O18   P6    S    
C64   H60   S    
C12   H1    S    
C50   P3    S    
C9    C36   A    
O1    P1    D    
C56   H20   S    
C4    H38   S    
C35   C36   A    
C27   N2    Am   
C55   H48   S    
C52   F1    S    
C29   C30   S    
C46   P2    S    
Ba1   O27   S    
O22   P3    S    
C28   H58   S    
C21   H32   S    
C23   H10   S    
C48   C49   A    
C45   H18   S    
O16   P6    D    
C42   H39   S    
C18   C19   A    
Ba1   O15   S    
Ba2   O27   S    
C1    C12   S    
Ba2   P4    S    
O23   P4    D    
C67   H24   S    
C70   N1    Am   
O7    P7    S    
Ba1   O24   S    
C26   O14   D    
O2    P5    D    
C41   C42   A    
C1    H8    S    
Ba2   O4    S    
C29   H31   S    
C29   C33   D    
C16   H55   S    
C41   H37   S    
C12   H7    S    
C18   C41   A    
C64   H56   S    
C66   H2    S    
C2    O13   D    
C69   H28   S    
C46   C47   A    
O21   P3    D    
C12   O18   S    
C68   H4    S    
C5    C14   S    
C2    N1    Am   
Ba2   O25   S    
C4    O22   S    
C9    C10   A    
O20   P3    S    
C52   C64   S    
C57   H50   S    
C69   H25   S    
C45   O3    S    
C43   F3    S    
C49   H52   S    
C62   C63   A    
C2    C13   A    
Ba1   O19   S    
C56   H19   S    
C48   C58   S    
C3    C8    D    
C51   H46   S    
C65   H53   S    
C45   C56   S    
C1    H3    S    
C7    H29   S    
C20   H33   S    
C47   H47   S    
O8    P8    D    
O15   P6    S    
C31   C32   D    
C4    H27   S    
C69   H26   S    
C59   C60   A    
C10   C70   A    
O5    P2    S    
C66   O12   S    
C23   C34   S    
C27   O11   D    
C61   C62   A    
C59   C63   A    
C57   C58   A    
C10   C11   A    
C66   C68   S    
C47   C48   A    
C67   O9    S    
C25   C26   A    
C15   C30   S    
C39   C43   A    
C20   C21   A    
C28   C40   S    
C23   O7    S    
C40   H12   S    
O25   P8    S    
C16   H49   S    
C67   H22   S    
