data_mof_unit_8789.cif
_audit_creation_date              2012-12-10T19:45:39-0500
_audit_creation_method            fapswitch 2.2
_symmetry_space_group_name_H-M    P1
_symmetry_Int_Tables_number       1
_space_group_crystal_system       triclinic
_cell_length_a                    10.888795
_cell_length_b                    14.914557
_cell_length_c                    14.907661
_cell_angle_alpha                 64.285573
_cell_angle_beta                  106.718029
_cell_angle_gamma                 100.754774
_cell_volume                      2083.7062446

loop_
_atom_site_label
_atom_site_type_symbol
_atom_type_description
_atom_site_fract_x
_atom_site_fract_y
_atom_site_fract_z
_atom_type_partial_charge
C1    C     C_R   0.476612 0.119490 0.312194 0.790798
C2    C     C_R   0.523401 0.880493 0.687795 0.802707
C3    C     C_R   0.868697 0.995266 0.497023 -0.093051
C4    C     C_R   0.130551 0.004879 0.501925 -0.091666
C5    C     C_R   0.906525 0.953126 0.440626 0.018710
C6    C     C_R   0.091303 0.050271 0.554991 0.019737
C7    C     C_R   0.453428 0.188595 0.203042 -0.093476
C8    C     C_R   0.546403 0.811275 0.796902 -0.087684
C9    C     C_R   0.330395 0.233136 0.027138 0.403461
C10   C     C_R   0.667412 0.767151 0.973283 0.401071
C11   C     C_R   0.364105 0.162374 0.128468 -0.305108
C12   C     C_R   0.634728 0.837667 0.871717 -0.314912
C13   C     C_R   0.511842 0.285688 0.175692 -0.253305
C14   C     C_R   0.488533 0.714032 0.824038 -0.254773
C15   C     C_R   0.474242 0.360999 0.076654 0.016889
C16   C     C_R   0.525006 0.638985 0.923404 0.016634
C17   C     C_R   0.382607 0.332903 0.002012 0.119741
C18   C     C_R   0.615513 0.667315 0.998356 0.119846
C19   C     C_R   0.521992 0.463504 0.050521 0.099803
C20   C     C_R   0.477018 0.536540 0.949627 0.099977
C21   C     C_R   0.386663 0.504444 0.878023 -0.251888
C22   C     C_R   0.611555 0.495765 0.122351 -0.253058
C23   C     C_R   0.263771 0.001097 0.501610 0.775820
C24   C     C_R   0.735937 0.999212 0.497872 0.771828
C25   C     C_R   0.341635 0.405275 0.903545 -0.192683
C26   C     C_R   0.655649 0.595117 0.097092 -0.188635
C27   C     C_R   0.758482 0.305214 0.619419 -0.277523
C28   C     C_R   0.243489 0.695943 0.377540 -0.286798
C29   C     C_R   0.705933 0.213282 0.619179 0.552415
C30   C     C_R   0.294876 0.787279 0.379687 0.541371
C31   C     C_R   0.506215 0.284302 0.513651 0.221550
C32   C     C_R   0.495034 0.716583 0.484714 0.217146
C33   C     C_R   0.549827 0.372382 0.533102 -0.016145
C34   C     C_R   0.453122 0.629690 0.463124 -0.017717
C35   C     C_R   0.682739 0.385747 0.572524 0.032012
C36   C     C_R   0.320187 0.616066 0.423386 0.036198
C37   C     C_R   0.472425 0.453123 0.503139 0.094910
C38   C     C_R   0.531424 0.549519 0.492330 0.098962
C39   C     C_R   0.665748 0.562344 0.508298 -0.231456
C40   C     C_R   0.338497 0.440177 0.487339 -0.232004
C41   C     C_R   0.740423 0.481162 0.556965 -0.191041
C42   C     C_R   0.263166 0.520745 0.438448 -0.189102
C43   C     C_R   0.336578 0.157333 0.734364 0.190128
C44   C     C_R   0.626897 0.883754 0.251221 0.191935
C45   C     C_R   0.282176 0.094984 0.680681 -0.085413
C46   C     C_R   0.705541 0.937402 0.307335 -0.100900
C47   C     C_R   0.169427 0.120300 0.601715 0.060243
C48   C     C_R   0.819372 0.898880 0.379155 0.075689
C49   C     C_R   0.112381 0.207721 0.579163 -0.183226
C50   C     C_R   0.858290 0.810401 0.386200 -0.187062
C51   C     C_R   0.158515 0.262801 0.638473 -0.166043
C52   C     C_R   0.786492 0.762613 0.323468 -0.167679
C53   C     C_R   0.271383 0.239178 0.713940 -0.143019
C54   C     C_R   0.669138 0.796983 0.258850 -0.100831
C55   C     C_R   0.961904 0.036923 0.556853 -0.226737
C56   C     C_R   0.037300 0.959646 0.444658 -0.225689
Cu1   Cu    Cu3+1 0.466270 0.918260 0.475690 0.915031
Cu2   Cu    Cu3+1 0.533730 0.081740 0.524310 0.912279
H1    H     H_    0.309490 0.286026 0.755892 0.154829
H2    H     H_    0.610625 0.755419 0.215407 0.153803
H3    H     H_    0.346568 0.554014 0.800831 0.140510
H4    H     H_    0.651194 0.446255 0.199668 0.139865
H5    H     H_    0.844186 0.493812 0.576374 0.140664
H6    H     H_    0.159459 0.507562 0.419265 0.140981
H7    H     H_    0.859239 0.313629 0.655547 0.167445
H8    H     H_    0.142956 0.687390 0.340944 0.169820
H9    H     H_    0.714712 0.634441 0.482715 0.155263
H10   H     H_    0.290956 0.368081 0.513636 0.164910
H11   H     H_    0.323966 0.026388 0.701433 0.149717
H12   H     H_    0.677349 0.008127 0.295959 0.126109
H13   H     H_    0.026170 0.230222 0.518702 0.153439
H14   H     H_    0.945477 0.778240 0.440044 0.150589
H15   H     H_    0.109841 0.326940 0.622577 0.142003
H16   H     H_    0.818900 0.695687 0.328895 0.149366
H17   H     H_    0.932544 0.063506 0.604128 0.205712
H18   H     H_    0.066739 0.931054 0.399134 0.203028
H19   H     H_    0.271575 0.385972 0.845255 0.186873
H20   H     H_    0.724323 0.614744 0.155789 0.189878
H21   H     H_    0.417648 0.698911 0.764345 0.161218
H22   H     H_    0.584140 0.300465 0.234964 0.160318
H23   H     H_    0.681894 0.912039 0.850526 0.157508
H24   H     H_    0.316595 0.088077 0.149668 0.144933
N1    N     N_R   0.584450 0.204570 0.560790 -0.257676
N2    N     N_R   0.415550 0.795430 0.439210 -0.253150
O1    O     O_R   0.455540 0.022090 0.338120 -0.624248
O2    O     O_R   0.544460 0.977910 0.661880 -0.622495
O3    O     O_R   0.512510 0.160150 0.379180 -0.582285
O4    O     O_R   0.487490 0.839850 0.620820 -0.584502
O5    O     O_R   0.291160 0.930970 0.479480 -0.559016
O6    O     O_R   0.708840 0.069030 0.520520 -0.562891
O7    O     O_R   0.348130 0.069020 0.520540 -0.612702
O8    O     O_R   0.651870 0.930980 0.479460 -0.610094
O9    O     O_3   0.242880 0.207357 0.952698 -0.762822
H25   H     H_    0.218012 0.134824 0.982414 0.329504
O10   O     O_3   0.753437 0.793272 0.048088 -0.756103
H26   H     H_    0.778138 0.865833 0.018328 0.331331
C57   C     C_3   0.609100 0.710364 0.575846 -0.317647
C58   C     C_3   0.589207 0.623406 0.675710 -0.832673
H27   H     H_    0.489143 0.618233 0.682494 0.250678
H28   H     H_    0.608429 0.551383 0.679438 0.259055
H29   H     H_    0.656102 0.635136 0.742328 0.244630
H30   H     H_    0.703223 0.710256 0.562926 0.161394
H31   H     H_    0.627633 0.775774 0.591883 0.260668
C59   C     C_3   0.391803 0.289791 0.422729 -0.319824
C60   C     C_3   0.411684 0.375602 0.322212 -0.830980
H32   H     H_    0.391566 0.448041 0.316920 0.259325
H33   H     H_    0.512029 0.380780 0.316161 0.250644
H34   H     H_    0.345492 0.362585 0.256072 0.245133
H35   H     H_    0.372441 0.223762 0.407884 0.261050
H36   H     H_    0.297459 0.290304 0.434969 0.160916
O11   O     O_3   0.215703 0.864613 0.327811 -0.753695
H37   H     H_    0.269863 0.927334 0.313817 0.354112
O12   O     O_3   0.785039 0.135861 0.671611 -0.751920
H38   H     H_    0.731248 0.073029 0.684551 0.352206
C61   C     C_3   0.461019 0.141248 0.815637 -0.427603
C62   C     C_3   0.534084 0.055483 0.833433 -0.859870
H39   H     H_    0.475130 0.983664 0.858074 0.259934
H40   H     H_    0.561344 0.070560 0.762302 0.281072
H41   H     H_    0.623876 0.050478 0.893667 0.247956
H42   H     H_    0.525484 0.210560 0.793088 0.207758
H43   H     H_    0.440079 0.129608 0.888635 0.225034
C63   C     C_3   0.496500 0.916530 0.185621 -0.428071
C64   C     C_3   0.492301 0.951902 0.072735 -0.836672
H44   H     H_    0.564398 0.015877 0.050566 0.263382
H45   H     H_    0.512785 0.890997 0.056383 0.264122
H46   H     H_    0.395002 0.976114 0.026810 0.250573
H47   H     H_    0.422907 0.853601 0.207793 0.205777
H48   H     H_    0.471504 0.978439 0.197334 0.223639

loop_
_geom_bond_atom_site_label_1
_geom_bond_atom_site_label_2
_ccdc_geom_bond_type
C1    O3    A    
O9    H25   S    
C56   H18   S    
Cu1   O8    S    
C42   H6    S    
C27   C29   A    
C5    C56   A    
C36   C42   A    
O10   H26   S    
C18   C26   A    
C6    C55   A    
Cu2   O3    S    
C57   C58   S    
C53   H1    S    
C64   H44   S    
C39   C41   A    
C54   H2    S    
C62   H39   S    
C7    C11   A    
C60   H33   S    
C26   H20   S    
Cu1   O5    S    
C25   H19   S    
C29   N1    A    
C37   C40   A    
C52   H16   S    
C59   H35   S    
C64   H45   S    
C61   C62   S    
C24   O8    A    
C31   N1    A    
C32   C57   S    
C63   H47   S    
C50   H14   S    
C21   C25   A    
C43   C61   S    
C15   C19   A    
C3    C55   A    
C43   C53   A    
C19   C20   A    
C44   C46   A    
C49   C51   A    
C50   C52   A    
C23   O5    A    
C2    O4    A    
C14   C16   A    
Cu2   O7    S    
C21   H3    S    
C57   H30   S    
C8    C12   A    
C55   H17   S    
C40   C42   A    
C13   H22   S    
C1    C7    S    
C4    C56   A    
C30   N2    A    
C3    C24   S    
Cu2   O2    S    
C59   C60   S    
C5    C48   S    
C52   C54   A    
C45   C47   A    
C11   H24   S    
C1    O1    A    
C32   N2    A    
C60   H34   S    
C46   C48   A    
C6    C47   S    
C45   H11   S    
C19   C22   A    
C4    C6    A    
C4    C23   S    
C64   H46   S    
C27   C35   A    
C33   C37   A    
C51   C53   A    
C32   C34   A    
C28   H8    S    
C37   C38   A    
C27   H7    S    
C22   H4    S    
C9    C11   A    
C16   C20   A    
C31   C33   A    
Cu1   N2    S    
C14   H21   S    
C48   C50   A    
C43   C45   A    
C57   H31   S    
C10   C12   A    
Cu2   O6    S    
C9    C17   A    
C61   H42   S    
C58   H28   S    
C13   C15   A    
C22   C26   A    
C23   O7    A    
C41   H5    S    
C9    O9    S    
O12   H38   S    
C15   C17   A    
C29   O12   S    
C8    C14   A    
O11   H37   S    
C34   C38   A    
C39   H9    S    
C2    C8    S    
C51   H15   S    
C3    C5    A    
C24   O6    A    
Cu1   O4    S    
C47   C49   A    
C58   H29   S    
C60   H32   S    
C62   H41   S    
C30   O11   S    
C17   C25   A    
C31   C59   S    
C28   C30   A    
Cu2   N1    S    
C59   H36   S    
Cu1   Cu2   S    
C38   C39   A    
C49   H13   S    
C10   O10   S    
C10   C18   A    
C44   C63   S    
C33   C35   A    
C62   H40   S    
C12   H23   S    
C2    O2    A    
C34   C36   A    
C63   H48   S    
C35   C41   A    
C46   H12   S    
C44   C54   A    
C7    C13   A    
C20   C21   A    
C28   C36   A    
C16   C18   A    
C58   H27   S    
C40   H10   S    
C61   H43   S    
C63   C64   S    
Cu1   O1    S    
