data_mof_unit_5005.cif
_audit_creation_date              2012-12-11T15:31:52-0500
_audit_creation_method            fapswitch 2.2
_symmetry_space_group_name_H-M    P1
_symmetry_Int_Tables_number       1
_space_group_crystal_system       triclinic
_cell_length_a                    13.576065
_cell_length_b                    13.587869
_cell_length_c                    27.677321
_cell_angle_alpha                 90.404921
_cell_angle_beta                  90.151179
_cell_angle_gamma                 119.957156
_cell_volume                      4423.29012376

loop_
_atom_site_label
_atom_site_type_symbol
_atom_type_description
_atom_site_fract_x
_atom_site_fract_y
_atom_site_fract_z
_atom_type_partial_charge
C1    C     C_R   0.619479 0.898404 0.431269 0.545647
C2    C     C_R   0.072867 0.793941 0.271202 -0.104077
C3    C     C_R   0.053772 0.784743 0.221246 -0.101007
C4    C     C_R   0.599699 0.218468 0.431294 0.544885
C5    C     C_R   0.257161 0.883675 0.207405 -0.103949
C6    C     C_R   0.276259 0.892982 0.257363 -0.100778
C7    C     C_R   0.184213 0.847646 0.289381 0.041878
C8    C     C_R   0.145797 0.829078 0.189223 0.041801
C9    C     C_1   0.124096 0.813897 0.137955 -0.054945
C10   C     C_1   0.205729 0.854325 0.340639 -0.055079
C11   C     C_1   0.096817 0.794488 0.095935 -0.011027
C12   C     C_R   0.630809 0.234746 0.208648 -0.103956
C13   C     C_1   0.634576 0.865993 0.383629 -0.011173
C14   C     C_R   0.600573 0.874475 0.258212 -0.100823
C15   C     C_R   0.608202 0.862654 0.208324 -0.103967
C16   C     C_R   0.279551 0.878863 0.430531 0.545220
C17   C     C_R   0.708565 0.759675 0.222811 -0.100984
C18   C     C_R   0.701036 0.771599 0.272704 -0.104051
C19   C     C_R   0.647421 0.829487 0.290516 0.041867
C20   C     C_R   0.662640 0.805587 0.190504 0.041839
C21   C     C_1   0.675707 0.796729 0.139302 -0.055118
C22   C     C_1   0.642160 0.846180 0.341687 -0.055088
C23   C     C_R   0.620170 0.217273 0.258548 -0.100770
C24   C     C_1   0.693045 0.786990 0.097303 -0.011255
C25   C     C_R   0.640141 0.278856 0.615283 0.024622
C26   C     C_R   0.722084 0.265174 0.640671 -0.126081
C27   C     C_R   0.734441 0.283900 0.689959 -0.123952
C28   C     C_R   0.620481 0.900744 0.568992 0.542256
C29   C     C_R   0.668200 0.320701 0.714268 0.037935
C30   C     C_R   0.595260 0.346361 0.688075 -0.121010
C31   C     C_R   0.580483 0.324534 0.638723 -0.129788
C32   C     C_R   0.575450 0.300694 0.793752 -0.121885
C33   C     C_R   0.583895 0.322684 0.843098 -0.130950
C34   C     C_R   0.666066 0.310286 0.290660 0.041874
C35   C     C_R   0.786347 0.389441 0.839882 -0.126485
C36   C     C_R   0.778460 0.370478 0.790595 -0.124224
C37   C     C_R   0.673808 0.329932 0.766924 0.037006
C38   C     C_R   0.690476 0.372176 0.865891 0.023677
C39   C     C_R   0.223973 0.863652 0.614945 0.024042
C40   C     C_R   0.601752 0.223014 0.568452 0.541679
C41   C     C_R   0.242671 0.958429 0.642692 -0.126513
C42   C     C_R   0.216362 0.946546 0.691457 -0.122311
C43   C     C_R   0.168997 0.839447 0.712929 0.036464
C44   C     C_R   0.141677 0.743317 0.684300 -0.119201
C45   C     C_R   0.687633 0.345430 0.190652 0.041862
C46   C     C_R   0.169692 0.755435 0.635600 -0.127214
C47   C     C_R   0.173163 0.753576 0.791538 -0.120461
C48   C     C_R   0.146246 0.735628 0.840301 -0.129165
C49   C     C_R   0.083985 0.874752 0.837964 -0.126251
C50   C     C_R   0.109243 0.891349 0.789164 -0.122443
C51   C     C_R   0.150845 0.828459 0.765282 0.036223
C52   C     C_R   0.279734 0.881567 0.568197 0.541996
C53   C     C_R   0.097923 0.793383 0.863407 0.022944
C54   C     C_R   0.638784 0.862217 0.615683 0.023022
C55   C     C_R   0.546508 0.770824 0.638589 -0.125122
C56   C     C_1   0.694252 0.365344 0.139447 -0.055114
C57   C     C_R   0.553024 0.750936 0.687254 -0.121765
C58   C     C_R   0.652585 0.820707 0.713576 0.036929
C59   C     C_R   0.748156 0.905885 0.689740 -0.120253
C60   C     C_R   0.741155 0.926937 0.641103 -0.128783
C61   C     C_R   0.712349 0.902699 0.796340 -0.119732
C62   C     C_R   0.724736 0.889540 0.845338 -0.127881
C63   C     C_R   0.614288 0.684801 0.835113 -0.127183
C64   C     C_1   0.631120 0.264431 0.383711 -0.011128
C65   C     C_R   0.603584 0.697913 0.786024 -0.122649
C66   C     C_R   0.655612 0.806875 0.766025 0.035311
C67   C     C_1   0.650241 0.290341 0.341798 -0.055112
C68   C     C_R   0.679043 0.780431 0.864649 0.023804
C69   C     C_R   0.049245 0.761117 0.048254 0.545515
C70   C     C_R   0.714317 0.435833 0.049731 0.544904
C71   C     C_R   0.723588 0.770737 0.049548 0.545217
C72   C     C_R   0.043860 0.755858 0.910478 0.541980
C73   C     C_R   0.707936 0.428383 0.912598 0.540897
C74   C     C_R   0.717274 0.765073 0.911873 0.540483
C75   C     C_R   0.723871 0.420966 0.272680 -0.104092
C76   C     C_R   0.734620 0.438441 0.222773 -0.100951
C77   C     C_1   0.701600 0.390832 0.097446 -0.011236
C78   C     C_1   0.232643 0.862876 0.382693 -0.011234
Cr1   Cr    Cr6+3 0.417720 0.831920 0.499820 1.023704
Cr2   Cr    Cr6+3 0.668190 0.085770 0.500360 1.023068
Cr3   Cr    Cr6+3 0.414060 0.082260 0.499840 1.024398
Cr4   Cr    Cr6+3 0.908000 0.821090 0.979770 1.023924
Cr5   Cr    Cr6+3 0.912420 0.571130 0.979880 1.023063
Cr6   Cr    Cr6+3 0.657970 0.566940 0.980940 1.024810
H1    H     H_    0.759394 0.493454 0.297099 0.103530
H2    H     H_    0.869809 0.427471 0.856587 0.134444
H3    H     H_    0.546600 0.379129 0.705990 0.099822
H4    H     H_    0.778282 0.524481 0.209202 0.098838
H5    H     H_    0.517842 0.336900 0.619592 0.124059
H6    H     H_    0.285333 0.043119 0.627723 0.133465
H7    H     H_    0.208653 0.706768 0.774084 0.103680
H8    H     H_    0.158401 0.673014 0.859286 0.125472
H9    H     H_    0.238619 0.022027 0.712788 0.100405
H10   H     H_    0.090963 0.949316 0.769699 0.101385
H11   H     H_    0.046270 0.920186 0.854805 0.134049
H12   H     H_    0.572817 0.898879 0.183772 0.103426
H13   H     H_    0.101749 0.659305 0.699876 0.103090
H14   H     H_    0.153850 0.681144 0.614722 0.124416
H15   H     H_    0.466338 0.719284 0.619901 0.131439
H16   H     H_    0.593666 0.162273 0.184219 0.103477
H17   H     H_    0.749978 0.987720 0.781924 0.104761
H18   H     H_    0.774595 0.964334 0.867631 0.123636
H19   H     H_    0.478107 0.684799 0.704754 0.099851
H20   H     H_    0.559724 0.622649 0.763419 0.101450
H21   H     H_    0.579393 0.599582 0.849073 0.134199
H22   H     H_    0.827177 0.958415 0.709053 0.101160
H23   H     H_    0.751266 0.715713 0.209402 0.098638
H24   H     H_    0.813764 0.997283 0.624157 0.124829
H25   H     H_    0.575010 0.131252 0.272101 0.098613
H26   H     H_    0.001076 0.758292 0.295517 0.103323
H27   H     H_    0.967213 0.741888 0.207566 0.098736
H28   H     H_    0.328923 0.917812 0.183083 0.103529
H29   H     H_    0.362795 0.934456 0.271041 0.098459
H30   H     H_    0.559146 0.919697 0.271612 0.098381
H31   H     H_    0.737817 0.736761 0.297254 0.103510
H32   H     H_    0.769604 0.230180 0.623468 0.133144
H33   H     H_    0.492980 0.265062 0.776335 0.101996
H34   H     H_    0.508733 0.307535 0.862726 0.125114
H35   H     H_    0.791043 0.263105 0.709252 0.098812
H36   H     H_    0.855699 0.394066 0.770802 0.100001
O1    O     O_R   0.302900 0.805360 0.446400 -0.504860
O2    O     O_R   0.638120 0.455970 0.034270 -0.504545
O3    O     O_R   0.667540 0.672320 0.030160 -0.492959
O4    O     O_R   0.522090 0.841370 0.450730 -0.493569
O5    O     O_R   0.814460 0.840990 0.926980 -0.519963
O6    O     O_R   0.001710 0.811400 0.930110 -0.504541
O7    O     O_R   0.023410 0.659800 0.926210 -0.521326
O8    O     O_R   0.806940 0.473170 0.931090 -0.506156
O9    O     O_R   0.633420 0.451310 0.927930 -0.521618
O10   O     O_R   0.663190 0.668000 0.931580 -0.503659
O11   O     O_3   0.826130 0.653050 0.980200 -0.246558
O12   O     O_R   0.657980 0.180990 0.549630 -0.506378
O13   O     O_R   0.693280 0.995650 0.447220 -0.504217
O14   O     O_R   0.657260 0.178740 0.451050 -0.493563
O15   O     O_R   0.502640 0.195380 0.446850 -0.504641
O16   O     O_R   0.319630 0.976590 0.450330 -0.493092
O17   O     O_R   0.303680 0.807790 0.552740 -0.520031
O18   O     O_R   0.522820 0.843620 0.549310 -0.504452
O19   O     O_R   0.694060 0.998080 0.553560 -0.521518
O20   O     O_R   0.503420 0.197810 0.553190 -0.521415
O21   O     O_R   0.320350 0.978840 0.548910 -0.504272
O22   O     O_3   0.499990 0.999990 0.500010 -0.246198
O23   O     O_R   0.819150 0.845650 0.033320 -0.504998
O24   O     O_R   0.006060 0.815720 0.028680 -0.493236
O25   O     O_R   0.028100 0.664460 0.032550 -0.504383
O26   O     O_R   0.811290 0.477490 0.029660 -0.493523

loop_
_geom_bond_atom_site_label_1
_geom_bond_atom_site_label_2
_ccdc_geom_bond_type
C25   C31   A    
Cr3   O20   S    
C63   C65   A    
Cr2   O12   S    
C27   C29   A    
C42   H9    S    
C69   O25   A    
C41   C42   A    
C2    C7    A    
C32   H33   S    
C75   C76   A    
C10   C78   T    
C39   C41   A    
C54   C60   A    
C69   O24   A    
Cr1   O1    S    
C12   C23   A    
C58   C66   S    
C26   C27   A    
C45   C76   A    
C71   O3    A    
C36   C37   A    
C17   H23   S    
C25   C40   S    
C30   C31   A    
C35   H2    S    
Cr1   O22   S    
Cr6   O2    S    
Cr6   O9    S    
C17   C20   A    
Cr2   O14   S    
C18   C19   A    
C7    C10   S    
Cr4   O6    S    
Cr5   O25   S    
C61   C66   A    
C75   H1    S    
C35   C36   A    
C45   C56   S    
C3    H27   S    
C8    C9    S    
C31   H5    S    
Cr4   O5    S    
C70   O26   A    
C63   H21   S    
C52   O17   A    
Cr5   O8    S    
C60   H24   S    
C34   C75   A    
Cr3   O21   S    
C41   H6    S    
C46   H14   S    
C59   C60   A    
C70   C77   S    
C4    C64   S    
C15   C20   A    
C28   O19   A    
C30   H3    S    
C1    O13   A    
C44   C46   A    
Cr3   O15   S    
C48   C53   A    
C57   H19   S    
C73   O9    A    
C59   H22   S    
C72   O7    A    
C64   C67   T    
C19   C22   S    
C28   O18   A    
Cr4   O24   S    
C3    C8    A    
C15   H12   S    
C28   C54   S    
C50   H10   S    
C47   C51   A    
C50   C51   A    
C58   C59   A    
C14   H30   S    
C56   C77   T    
C72   O6    A    
Cr6   O3    S    
C34   C67   S    
C61   H17   S    
C43   C44   A    
C6    H29   S    
Cr5   O11   S    
C29   C30   A    
Cr5   O26   S    
C44   H13   S    
C70   O2    A    
C47   C48   A    
C23   H25   S    
C23   C34   A    
C35   C38   A    
C17   C18   A    
C32   C37   A    
C49   H11   S    
C9    C11   T    
C4    O15   A    
Cr3   O22   S    
Cr1   O17   S    
C49   C50   A    
Cr2   O22   S    
C39   C46   A    
C1    C13   S    
C42   C43   A    
C55   H15   S    
Cr2   O19   S    
C74   O10   A    
Cr3   O16   S    
C4    O14   A    
C16   O1    A    
C76   H4    S    
C54   C55   A    
C2    H26   S    
C47   H7    S    
C14   C19   A    
C33   C38   A    
Cr5   O7    S    
Cr4   O23   S    
C18   H31   S    
C5    C8    A    
C11   C69   S    
C6    C7    A    
C12   C45   A    
C5    H28   S    
C27   H35   S    
C73   O8    A    
Cr1   O4    S    
C63   C68   A    
Cr6   O11   S    
C52   O21   A    
C62   C68   A    
C32   C33   A    
C55   C57   A    
C2    C3    A    
C25   C26   A    
C1    O4    A    
C43   C51   S    
C57   C58   A    
C5    C6    A    
C71   O23   A    
C49   C53   A    
C40   O20   A    
Cr6   O10   S    
C13   C22   T    
C39   C52   S    
C16   C78   S    
C40   O12   A    
C61   C62   A    
C36   H36   S    
C26   H32   S    
C12   H16   S    
Cr2   O13   S    
C74   O5    A    
C33   H34   S    
Cr1   O18   S    
C20   C21   S    
C65   C66   A    
C48   H8    S    
C21   C24   T    
C29   C37   S    
C14   C15   A    
C65   H20   S    
Cr4   O11   S    
C53   C72   S    
C68   C74   S    
C24   C71   S    
C62   H18   S    
C38   C73   S    
C16   O16   A    
