data_mof_unit_64606.cif
_audit_creation_date              2012-12-10T18:23:19-0500
_audit_creation_method            fapswitch 2.2
_symmetry_space_group_name_H-M    P1
_symmetry_Int_Tables_number       1
_space_group_crystal_system       triclinic
_cell_length_a                    35.579899
_cell_length_b                    35.581335
_cell_length_c                    39.172536
_cell_angle_alpha                 90.027383
_cell_angle_beta                  90.038917
_cell_angle_gamma                 89.937808
_cell_volume                      49591.6127953

loop_
_atom_site_label
_atom_site_type_symbol
_atom_type_description
_atom_site_fract_x
_atom_site_fract_y
_atom_site_fract_z
_atom_type_partial_charge
C1    C     C_R   0.072272 0.500003 0.499949 0.807444
C2    C     C_R   0.499996 0.613648 0.500025 -0.035128
C3    C     C_R   0.500010 0.000028 0.566184 0.827344
C4    C     C_R   0.500041 0.999993 0.933819 0.829181
C5    C     C_R   0.999991 0.499954 0.933825 0.828869
C6    C     C_R   0.500052 0.000009 0.066171 0.825049
C7    C     C_R   0.000015 0.499966 0.066183 0.826926
C8    C     C_R   0.009759 0.532211 0.378362 -0.170613
C9    C     C_R   0.532517 0.990374 0.378502 -0.168870
C10   C     C_R   0.990776 0.467574 0.378365 -0.170518
C11   C     C_R   0.467487 0.009046 0.378352 -0.169158
C12   C     C_R   0.010008 0.467718 0.621560 -0.170625
C13   C     C_R   0.613649 0.499845 0.500124 -0.035165
C14   C     C_R   0.532470 0.009421 0.621615 -0.173258
C15   C     C_R   0.990619 0.532318 0.621660 -0.171636
C16   C     C_R   0.467623 0.990862 0.621655 -0.174363
C17   C     C_R   0.509955 0.032215 0.878436 -0.173968
C18   C     C_R   0.032264 0.489968 0.878456 -0.170048
C19   C     C_R   0.490563 0.967745 0.878338 -0.175614
C20   C     C_R   0.967751 0.509591 0.878330 -0.170635
C21   C     C_R   0.509689 0.967496 0.121512 -0.169151
C22   C     C_R   0.032483 0.509153 0.121629 -0.171121
C23   C     C_R   0.491046 0.032541 0.121634 -0.169111
C24   C     C_R   0.499752 0.386343 0.500015 -0.035189
C25   C     C_R   0.967754 0.490426 0.121651 -0.171170
C26   C     C_R   0.010044 0.533134 0.342842 0.391583
C27   C     C_R   0.533556 0.990010 0.342939 0.392403
C28   C     C_R   0.990697 0.466527 0.342849 0.390432
C29   C     C_R   0.466564 0.009168 0.342778 0.391378
C30   C     C_R   0.010359 0.466710 0.657090 0.391050
C31   C     C_R   0.533442 0.009756 0.657141 0.388281
C32   C     C_R   0.990399 0.533221 0.657189 0.389218
C33   C     C_R   0.466736 0.990612 0.657181 0.387326
C34   C     C_R   0.510275 0.033244 0.842914 0.389645
C35   C     C_R   0.886340 0.999750 0.999893 -0.035236
C36   C     C_R   0.033308 0.489673 0.842928 0.391387
C37   C     C_R   0.490442 0.966746 0.842812 0.388967
C38   C     C_R   0.966854 0.509832 0.842799 0.390182
C39   C     C_R   0.510086 0.966479 0.157077 0.392471
C40   C     C_R   0.033532 0.509264 0.157144 0.389854
C41   C     C_R   0.490951 0.033478 0.157206 0.391060
C42   C     C_R   0.966847 0.490163 0.157170 0.390995
C43   C     C_R   0.000388 0.499806 0.323526 -0.171335
C44   C     C_R   0.500097 0.999598 0.323553 -0.175503
C45   C     C_R   0.000368 0.499954 0.676441 -0.171458
C46   C     C_R   0.999975 0.113648 0.000016 -0.035140
C47   C     C_R   0.500119 0.000182 0.676413 -0.170533
C48   C     C_R   0.500362 0.000015 0.823508 -0.173016
C49   C     C_R   0.000100 0.499764 0.823543 -0.171869
C50   C     C_R   0.500510 0.999948 0.176442 -0.175460
C51   C     C_R   0.000222 0.499699 0.176469 -0.171136
C52   C     C_R   0.000178 0.499934 0.396302 -0.222397
C53   C     C_R   0.499995 0.999817 0.396302 -0.222650
C54   C     C_R   0.000223 0.500010 0.603689 -0.222500
C55   C     C_R   0.500036 0.000095 0.603708 -0.218733
C56   C     C_R   0.500172 0.999985 0.896300 -0.219711
C57   C     C_R   0.113655 0.000276 0.999983 -0.035147
C58   C     C_R   0.000000 0.499836 0.896312 -0.222951
C59   C     C_R   0.500232 0.000013 0.103697 -0.222469
C60   C     C_R   0.000077 0.499856 0.103699 -0.221663
C61   C     C_R   0.000299 0.499692 0.214951 0.447807
C62   C     C_R   0.500436 0.999873 0.214968 0.443531
C63   C     C_R   0.000190 0.499781 0.785026 0.448760
C64   C     C_R   0.500319 0.000053 0.784959 0.447124
C65   C     C_R   0.500182 0.000149 0.714863 0.449023
C66   C     C_R   0.000333 0.499882 0.714939 0.448858
C67   C     C_R   0.500186 0.999656 0.285022 0.443451
C68   C     C_R   0.000119 0.886349 0.999885 -0.035167
C69   C     C_R   0.000387 0.499746 0.285035 0.447648
C70   C     C_R   0.327211 0.512564 0.528997 -0.152973
C71   C     C_R   0.512340 0.672883 0.528869 -0.153234
C72   C     C_R   0.672744 0.487547 0.529275 -0.153076
C73   C     C_R   0.487102 0.327214 0.528880 -0.153303
C74   C     C_R   0.327008 0.487997 0.471287 -0.153070
C75   C     C_R   0.511629 0.326986 0.471183 -0.152760
C76   C     C_R   0.673030 0.512081 0.471575 -0.153023
C77   C     C_R   0.487756 0.672890 0.471160 -0.152817
C78   C     C_R   0.826941 0.011667 0.028593 -0.152635
C79   C     C_R   0.307452 0.500297 0.500201 0.143160
C80   C     C_R   0.012286 0.172900 0.028842 -0.153146
C81   C     C_R   0.173035 0.988411 0.028795 -0.152762
C82   C     C_R   0.987839 0.826974 0.028439 -0.153010
C83   C     C_R   0.827246 0.987166 0.970863 -0.153364
C84   C     C_R   0.012341 0.827246 0.970732 -0.153076
C85   C     C_R   0.172762 0.012964 0.971102 -0.153332
C86   C     C_R   0.987720 0.172874 0.971127 -0.152859
C87   C     C_R   0.366476 0.512338 0.529013 -0.188026
C88   C     C_R   0.512154 0.633615 0.528945 -0.187834
C89   C     C_R   0.633484 0.487710 0.529169 -0.187942
C90   C     C_R   0.500080 0.692542 0.499999 0.143161
C91   C     C_R   0.487506 0.366481 0.528938 -0.187666
C92   C     C_R   0.366281 0.488078 0.471132 -0.187983
C93   C     C_R   0.511724 0.366259 0.471070 -0.188291
C94   C     C_R   0.633758 0.511938 0.471297 -0.188095
C95   C     C_R   0.487878 0.633622 0.471065 -0.188177
C96   C     C_R   0.866217 0.011722 0.028810 -0.188360
C97   C     C_R   0.012115 0.133632 0.028932 -0.187822
C98   C     C_R   0.133760 0.988301 0.028921 -0.188355
C99   C     C_R   0.988020 0.866245 0.028715 -0.188088
C100  C     C_R   0.866513 0.987530 0.970908 -0.187544
C101  C     C_R   0.692545 0.499835 0.500547 0.143130
C102  C     C_R   0.012217 0.866506 0.970837 -0.187920
C103  C     C_R   0.133495 0.012545 0.971057 -0.187644
C104  C     C_R   0.987857 0.133607 0.971046 -0.188159
C105  C     C_3   0.114622 0.527704 0.561475 -0.411053
C106  C     C_3   0.095429 0.566472 0.558472 -0.318844
C107  C     C_3   0.096654 0.588519 0.592053 -0.828513
C108  C     C_3   0.526907 0.884917 0.561796 -0.413264
C109  C     C_3   0.565407 0.904549 0.559145 -0.319971
C110  C     C_3   0.587710 0.902341 0.592479 -0.829974
C111  C     C_3   0.885895 0.465260 0.558218 -0.398920
C112  C     C_R   0.500000 0.927725 0.500114 0.807597
C113  C     C_R   0.499228 0.307445 0.500028 0.143151
C114  C     C_3   0.903547 0.426349 0.551162 -0.304922
C115  C     C_3   0.897232 0.398669 0.580359 -0.846070
C116  C     C_3   0.474083 0.114957 0.562342 -0.413793
C117  C     C_3   0.435348 0.095704 0.560602 -0.326693
C118  C     C_3   0.415698 0.095209 0.595337 -0.824581
C119  C     C_3   0.115285 0.472802 0.438540 -0.413109
C120  C     C_3   0.095334 0.434491 0.441558 -0.316932
C121  C     C_3   0.098975 0.410927 0.409085 -0.832327
C122  C     C_3   0.528192 0.114855 0.439272 -0.410935
C123  C     C_3   0.566461 0.094829 0.443596 -0.303343
C124  C     C_R   0.807434 0.999304 0.999679 0.143129
C125  C     C_3   0.593074 0.101785 0.413508 -0.833404
C126  C     C_3   0.884390 0.533194 0.441139 -0.406921
C127  C     C_3   0.904294 0.571148 0.447077 -0.305785
C128  C     C_3   0.897589 0.598937 0.417977 -0.843131
C129  C     C_3   0.472116 0.885138 0.438806 -0.411443
C130  C     C_3   0.433742 0.905051 0.442264 -0.314953
C131  C     C_3   0.409704 0.901445 0.410064 -0.833878
C132  C     C_3   0.615171 0.025846 0.061627 -0.413859
C133  C     C_3   0.595201 0.064269 0.058929 -0.316425
C134  C     C_3   0.598581 0.087438 0.091697 -0.830471
C135  C     C_R   0.000027 0.192544 0.999961 0.143147
C136  C     C_3   0.027177 0.384874 0.061666 -0.412735
C137  C     C_3   0.065621 0.404583 0.058867 -0.320879
C138  C     C_3   0.088263 0.402086 0.091933 -0.832263
C139  C     C_3   0.385116 0.971466 0.060552 -0.411164
C140  C     C_3   0.405339 0.933303 0.055993 -0.297908
C141  C     C_3   0.397518 0.905959 0.085490 -0.830011
C142  C     C_3   0.968001 0.615594 0.059490 -0.408820
C143  C     C_3   0.930000 0.595570 0.054206 -0.308369
C144  C     C_3   0.903263 0.601229 0.084319 -0.839732
C145  C     C_3   0.614633 0.976008 0.936896 -0.415243
C146  C     C_R   0.192552 0.000833 0.999944 0.143176
C147  C     C_3   0.595946 0.936905 0.937526 -0.326084
C148  C     C_3   0.593211 0.919756 0.901548 -0.810491
C149  C     C_3   0.033750 0.614095 0.941399 -0.400188
C150  C     C_3   0.072591 0.596117 0.948125 -0.304011
C151  C     C_3   0.100303 0.602927 0.919044 -0.845259
C152  C     C_3   0.385052 0.026185 0.937694 -0.413627
C153  C     C_3   0.404271 0.064943 0.939505 -0.325481
C154  C     C_3   0.404842 0.084593 0.904742 -0.823885
C155  C     C_3   0.971835 0.385197 0.938891 -0.410735
C156  C     C_3   0.933308 0.404788 0.942363 -0.317198
C157  C     C_R   0.000048 0.807451 0.999463 0.143121
C158  C     C_3   0.909694 0.401795 0.909892 -0.834978
C159  C     C_1   0.267088 0.500334 0.500308 -0.062725
C160  C     C_1   0.500093 0.732906 0.499997 -0.062706
C161  C     C_1   0.732899 0.499861 0.500774 -0.062744
C162  C     C_1   0.499083 0.267075 0.500083 -0.062729
C163  C     C_1   0.767061 0.999197 0.999525 -0.062745
C164  C     C_R   0.927724 0.499995 0.499814 0.809608
C165  C     C_1   0.000031 0.232908 0.999942 -0.062693
C166  C     C_1   0.232921 0.000984 0.999869 -0.062732
C167  C     C_1   0.999999 0.767095 0.999242 -0.062741
C168  C     C_1   0.233270 0.500340 0.500368 -0.037352
C169  C     C_1   0.500081 0.766721 0.499992 -0.037343
C170  C     C_1   0.766723 0.499902 0.500869 -0.037398
C171  C     C_1   0.499072 0.233261 0.500122 -0.037380
C172  C     C_1   0.733241 0.999212 0.999459 -0.037388
C173  C     C_1   0.000018 0.266725 0.999930 -0.037315
C174  C     C_1   0.266735 0.000994 0.999817 -0.037406
C175  C     C_R   0.499996 0.072268 0.500238 0.807554
C176  C     C_1   0.999955 0.733271 0.999152 -0.037376
C177  C     C_R   0.173233 0.515115 0.527934 -0.176049
C178  C     C_R   0.514767 0.826578 0.527814 -0.175467
C179  C     C_R   0.826911 0.482137 0.526760 -0.175051
C180  C     C_R   0.485000 0.173338 0.528103 -0.176741
C181  C     C_R   0.173519 0.485401 0.472528 -0.174704
C182  C     C_R   0.514059 0.173390 0.472429 -0.172919
C183  C     C_R   0.826311 0.517705 0.474278 -0.174224
C184  C     C_R   0.485175 0.826647 0.472350 -0.174559
C185  C     C_R   0.673487 0.013311 0.027672 -0.174167
C186  C     C_R   0.572261 0.999997 0.999802 0.805922
C187  C     C_R   0.014885 0.326559 0.027698 -0.175320
C188  C     C_R   0.326593 0.985842 0.027454 -0.172590
C189  C     C_R   0.982725 0.673669 0.026046 -0.174484
C190  C     C_R   0.673188 0.985980 0.971237 -0.177340
C191  C     C_R   0.017268 0.673092 0.973004 -0.174594
C192  C     C_R   0.326666 0.015171 0.971894 -0.176815
C193  C     C_R   0.984969 0.326675 0.972377 -0.175074
C194  C     C_R   0.133745 0.514832 0.528660 0.058111
C195  C     C_R   0.514469 0.866053 0.528715 0.058657
C196  C     C_R   0.866387 0.482152 0.527187 0.057826
C197  C     C_R   0.999998 0.427726 0.000115 0.807736
C198  C     C_R   0.485639 0.133862 0.529047 0.058696
C199  C     C_R   0.134052 0.485548 0.471561 0.058836
C200  C     C_R   0.514392 0.133923 0.471766 0.059322
C201  C     C_R   0.865756 0.517458 0.473066 0.059646
C202  C     C_R   0.485281 0.866125 0.471570 0.058775
C203  C     C_R   0.634015 0.013467 0.028534 0.058570
C204  C     C_R   0.014595 0.366032 0.028624 0.058736
C205  C     C_R   0.366057 0.985475 0.028123 0.059669
C206  C     C_R   0.983048 0.634222 0.027281 0.059473
C207  C     C_R   0.633698 0.986592 0.970437 0.057673
C208  C     C_R   0.427731 0.000005 0.999741 0.807322
C209  C     C_R   0.017305 0.633617 0.972609 0.058147
C210  C     C_R   0.366145 0.014516 0.970956 0.058661
C211  C     C_R   0.985102 0.366155 0.971610 0.058540
C212  C     C_R   0.113740 0.500073 0.500058 -0.070869
C213  C     C_R   0.499961 0.886252 0.500136 -0.071515
C214  C     C_R   0.886233 0.499924 0.500015 -0.078469
C215  C     C_R   0.499989 0.113737 0.500367 -0.072311
C216  C     C_R   0.613712 0.999999 0.999580 -0.068374
C217  C     C_R   0.999946 0.386254 0.000119 -0.071345
C218  C     C_R   0.386259 0.000019 0.999589 -0.072945
C219  C     C_R   0.000003 0.572274 0.000236 0.809378
C220  C     C_R   0.000068 0.613761 0.000057 -0.077598
C221  C     C_R   0.192869 0.500268 0.500311 0.083284
C222  C     C_R   0.500059 0.807122 0.500018 0.083099
C223  C     C_R   0.807109 0.500008 0.500724 0.082570
C224  C     C_R   0.499222 0.192857 0.500153 0.083030
C225  C     C_R   0.692831 0.999377 0.999495 0.083765
C226  C     C_R   0.000007 0.307125 0.999965 0.083156
C227  C     C_R   0.307138 0.000828 0.999786 0.082969
C228  C     C_R   0.999870 0.692883 0.999304 0.082566
C229  C     C_R   0.499996 0.572218 0.499998 0.790118
C230  C     C_R   0.386350 0.500164 0.500017 -0.035108
C231  C     C_R   0.572218 0.499960 0.500028 0.790201
C232  C     C_R   0.499952 0.427779 0.499989 0.790036
C233  C     C_R   0.427781 0.500039 0.500005 0.790031
C234  C     C_R   0.999992 0.072218 0.999997 0.790126
C235  C     C_R   0.072220 0.000054 0.000013 0.790014
C236  C     C_R   0.000034 0.927781 0.999975 0.790090
C237  C     C_R   0.927778 0.999949 0.999991 0.790124
C238  C     C_R   0.000040 0.499988 0.433818 0.826806
C239  C     C_R   0.499990 0.999959 0.433828 0.825801
C240  C     C_R   0.000063 0.500009 0.566176 0.829777
Cu1   Cu    Cu3+1 0.000000 0.462790 0.500000 0.913581
Cu2   Cu    Cu3+1 0.500000 0.500000 0.534160 0.946574
Cu3   Cu    Cu3+1 0.000000 0.000000 0.965840 0.946552
Cu4   Cu    Cu3+1 0.000000 0.000000 0.034160 0.946936
Cu5   Cu    Cu3+1 0.462790 0.000000 0.500000 0.916591
Cu6   Cu    Cu3+1 1.000000 0.537210 0.500000 0.913945
Cu7   Cu    Cu3+1 0.537210 0.000000 0.500000 0.915127
Cu8   Cu    Cu3+1 0.500000 0.962790 0.000000 0.916071
Cu9   Cu    Cu3+1 0.962790 0.500000 0.000000 0.914159
Cu10  Cu    Cu3+1 0.500000 0.037210 0.000000 0.917174
Cu11  Cu    Cu3+1 0.037210 0.500000 0.000000 0.913840
Cu12  Cu    Cu3+1 0.500000 0.500000 0.465840 0.946917
H1    H     H_    0.017583 0.557425 0.392245 0.189027
H2    H     H_    0.057393 0.481875 0.892388 0.189144
H3    H     H_    0.907765 0.484992 0.567659 0.172292
H4    H     H_    0.865277 0.462858 0.579476 0.205464
H5    H     H_    0.435165 0.085033 0.615576 0.265881
H6    H     H_    0.405445 0.123853 0.601962 0.252567
H7    H     H_    0.391154 0.075917 0.594270 0.249220
H8    H     H_    0.416774 0.109866 0.541655 0.227069
H9    H     H_    0.439039 0.066017 0.552883 0.256413
H10   H     H_    0.495942 0.094318 0.570132 0.178432
H11   H     H_    0.473428 0.136418 0.583057 0.208753
H12   H     H_    0.091565 0.427882 0.386222 0.265510
H13   H     H_    0.482542 0.942599 0.892198 0.190354
H14   H     H_    0.128151 0.400081 0.406471 0.253550
H15   H     H_    0.079454 0.386596 0.410480 0.248745
H16   H     H_    0.106461 0.418027 0.463501 0.229062
H17   H     H_    0.064924 0.439300 0.445636 0.253345
H18   H     H_    0.095038 0.494642 0.429910 0.175876
H19   H     H_    0.136836 0.471052 0.417977 0.208849
H20   H     H_    0.578565 0.096514 0.388747 0.263015
H21   H     H_    0.603839 0.131185 0.414139 0.253228
H22   H     H_    0.617443 0.082270 0.415382 0.246947
H23   H     H_    0.580736 0.103685 0.467665 0.229045
H24   H     H_    0.942581 0.517679 0.892175 0.189349
H25   H     H_    0.561517 0.064037 0.444858 0.248965
H26   H     H_    0.506634 0.094495 0.430340 0.172931
H27   H     H_    0.530440 0.136109 0.418505 0.207961
H28   H     H_    0.903916 0.585596 0.392966 0.265169
H29   H     H_    0.867969 0.608851 0.418243 0.255230
H30   H     H_    0.916402 0.623604 0.421230 0.247573
H31   H     H_    0.895083 0.584328 0.471447 0.229753
H32   H     H_    0.935057 0.566325 0.448375 0.250737
H33   H     H_    0.904699 0.512249 0.430949 0.172396
H34   H     H_    0.862836 0.536569 0.420723 0.207208
H35   H     H_    0.517445 0.942159 0.107609 0.189455
H36   H     H_    0.426399 0.908456 0.386960 0.265435
H37   H     H_    0.398474 0.872404 0.407746 0.253746
H38   H     H_    0.385609 0.921308 0.411614 0.248363
H39   H     H_    0.417624 0.893951 0.464402 0.228739
H40   H     H_    0.438497 0.935477 0.446277 0.253865
H41   H     H_    0.493797 0.905485 0.430165 0.175642
H42   H     H_    0.470232 0.863754 0.418104 0.208573
H43   H     H_    0.591567 0.070078 0.114416 0.264970
H44   H     H_    0.627568 0.098764 0.094347 0.253285
H45   H     H_    0.578606 0.111482 0.090625 0.248602
H46   H     H_    0.057699 0.516914 0.107741 0.189473
H47   H     H_    0.606391 0.081014 0.037191 0.228704
H48   H     H_    0.564814 0.059529 0.054653 0.253562
H49   H     H_    0.594886 0.003948 0.069940 0.176589
H50   H     H_    0.636660 0.027324 0.082274 0.209035
H51   H     H_    0.070699 0.410303 0.114142 0.266235
H52   H     H_    0.098963 0.373035 0.095648 0.253752
H53   H     H_    0.112663 0.421520 0.090542 0.249061
H54   H     H_    0.082585 0.392566 0.037687 0.228937
H55   H     H_    0.061110 0.434813 0.053771 0.254764
H56   H     H_    0.005387 0.405263 0.070108 0.176612
H57   H     H_    0.483264 0.057925 0.107829 0.189686
H58   H     H_    0.028681 0.363375 0.082291 0.208869
H59   H     H_    0.402133 0.919873 0.110720 0.261512
H60   H     H_    0.368096 0.895112 0.083988 0.252210
H61   H     H_    0.417115 0.881639 0.083578 0.246014
H62   H     H_    0.397201 0.919538 0.031379 0.228403
H63   H     H_    0.436212 0.938448 0.055526 0.246924
H64   H     H_    0.405370 0.993050 0.069648 0.172078
H65   H     H_    0.363851 0.968979 0.081291 0.207668
H66   H     H_    0.917636 0.594423 0.108783 0.265253
H67   H     H_    0.893004 0.630747 0.084979 0.254624
H68   H     H_    0.942496 0.482700 0.107779 0.189130
H69   H     H_    0.878685 0.582222 0.081451 0.247726
H70   H     H_    0.915872 0.605393 0.030446 0.229266
H71   H     H_    0.934988 0.564893 0.052067 0.251780
H72   H     H_    0.989205 0.595381 0.069405 0.173207
H73   H     H_    0.964906 0.637198 0.079898 0.207662
H74   H     H_    0.581657 0.940637 0.882930 0.263345
H75   H     H_    0.621443 0.909851 0.892774 0.249654
H76   H     H_    0.573983 0.895090 0.902151 0.248068
H77   H     H_    0.611793 0.917211 0.954610 0.223697
H78   H     H_    0.566767 0.939774 0.947252 0.255516
H79   H     H_    0.312277 0.522311 0.551436 0.133422
H80   H     H_    0.593637 0.997872 0.929880 0.179830
H81   H     H_    0.635935 0.976305 0.916038 0.208576
H82   H     H_    0.087259 0.595897 0.894085 0.265436
H83   H     H_    0.109504 0.632742 0.918963 0.255346
H84   H     H_    0.125400 0.584710 0.922613 0.247109
H85   H     H_    0.085138 0.606789 0.972266 0.227976
H86   H     H_    0.069284 0.565228 0.950374 0.250286
H87   H     H_    0.013753 0.592395 0.932093 0.171914
H88   H     H_    0.036087 0.634738 0.920154 0.205702
H89   H     H_    0.415120 0.065145 0.884513 0.265391
H90   H     H_    0.522086 0.687887 0.551254 0.133458
H91   H     H_    0.376196 0.094847 0.898021 0.252214
H92   H     H_    0.424114 0.109161 0.905867 0.248926
H93   H     H_    0.390008 0.083493 0.958431 0.226630
H94   H     H_    0.433956 0.061255 0.947315 0.256303
H95   H     H_    0.405712 0.004366 0.929859 0.178367
H96   H     H_    0.363590 0.026877 0.916975 0.208692
H97   H     H_    0.926637 0.409406 0.887130 0.266056
H98   H     H_    0.898685 0.372772 0.906923 0.254070
H99   H     H_    0.885471 0.421482 0.911549 0.248536
H100  H     H_    0.917024 0.393052 0.964089 0.228664
H101  H     H_    0.687645 0.477836 0.551754 0.133511
H102  H     H_    0.937749 0.435130 0.946985 0.254869
H103  H     H_    0.993359 0.405740 0.930316 0.175694
H104  H     H_    0.970124 0.363860 0.918140 0.208418
H105  H     H_    0.557846 0.982603 0.392415 0.189609
H106  H     H_    0.477310 0.312299 0.551275 0.133471
H107  H     H_    0.311919 0.478290 0.448935 0.133451
H108  H     H_    0.521262 0.311881 0.448793 0.133356
H109  H     H_    0.688156 0.521795 0.449270 0.133440
H110  H     H_    0.478034 0.687907 0.448754 0.133411
H111  H     H_    0.811804 0.021301 0.050960 0.133339
H112  H     H_    0.022019 0.187917 0.051224 0.133488
H113  H     H_    0.188158 0.978773 0.051177 0.133338
H114  H     H_    0.978124 0.811855 0.050747 0.133422
H115  H     H_    0.812364 0.977397 0.948419 0.133504
H116  H     H_    0.982911 0.442391 0.392247 0.189337
H117  H     H_    0.022026 0.812341 0.948251 0.133491
H118  H     H_    0.187660 0.022772 0.948704 0.133482
H119  H     H_    0.978001 0.187878 0.948713 0.133405
H120  H     H_    0.381273 0.522104 0.551489 0.152538
H121  H     H_    0.521919 0.618880 0.551479 0.152382
H122  H     H_    0.618657 0.477939 0.551601 0.152582
H123  H     H_    0.477839 0.381296 0.551462 0.152460
H124  H     H_    0.380939 0.478280 0.448572 0.152322
H125  H     H_    0.521590 0.380891 0.448566 0.152396
H126  H     H_    0.619133 0.521708 0.448702 0.152316
H127  H     H_    0.442106 0.016835 0.392150 0.189637
H128  H     H_    0.478065 0.618904 0.448564 0.152475
H129  H     H_    0.880822 0.021567 0.051361 0.152380
H130  H     H_    0.021878 0.118909 0.051473 0.152383
H131  H     H_    0.119142 0.978419 0.051427 0.152368
H132  H     H_    0.978277 0.880876 0.051312 0.152306
H133  H     H_    0.881359 0.977863 0.948404 0.152484
H134  H     H_    0.021989 0.881326 0.948400 0.152583
H135  H     H_    0.118663 0.022217 0.948539 0.152473
H136  H     H_    0.978058 0.118877 0.948547 0.152482
H137  H     H_    0.188945 0.526489 0.549317 0.136950
H138  H     H_    0.018004 0.442551 0.607643 0.189145
H139  H     H_    0.526014 0.810732 0.549156 0.136778
H140  H     H_    0.811384 0.468449 0.547077 0.137801
H141  H     H_    0.473936 0.189132 0.549556 0.136993
H142  H     H_    0.189447 0.474124 0.451252 0.136612
H143  H     H_    0.525110 0.189215 0.451004 0.136302
H144  H     H_    0.810291 0.531233 0.454162 0.136845
H145  H     H_    0.473879 0.810849 0.450986 0.136628
H146  H     H_    0.689426 0.023708 0.049335 0.136307
H147  H     H_    0.026254 0.310698 0.048978 0.136805
H148  H     H_    0.310758 0.974697 0.048832 0.136201
H149  H     H_    0.557728 0.017100 0.607730 0.189249
H150  H     H_    0.969584 0.689685 0.046371 0.136785
H151  H     H_    0.688881 0.975559 0.949458 0.137043
H152  H     H_    0.030559 0.688626 0.952473 0.137611
H153  H     H_    0.310876 0.026335 0.950478 0.137011
H154  H     H_    0.973538 0.310897 0.951060 0.136778
H155  H     H_    0.027992 0.566842 0.306424 0.357269
H156  H     H_    0.567697 0.973156 0.306229 0.357570
H157  H     H_    0.972696 0.432706 0.306514 0.357270
H158  H     H_    0.432541 0.026042 0.306007 0.357363
H159  H     H_    0.028921 0.433127 0.693388 0.357047
H160  H     H_    0.982620 0.557521 0.607812 0.189583
H161  H     H_    0.566878 0.028463 0.693383 0.356032
H162  H     H_    0.971535 0.566704 0.693401 0.356930
H163  H     H_    0.433390 0.971898 0.693427 0.356021
H164  H     H_    0.528214 0.067154 0.806572 0.358052
H165  H     H_    0.066985 0.471149 0.806670 0.357318
H166  H     H_    0.472529 0.932857 0.806419 0.358032
H167  H     H_    0.933334 0.528669 0.806561 0.357195
H168  H     H_    0.526994 0.932390 0.193806 0.357479
H169  H     H_    0.067370 0.527248 0.193464 0.357180
H170  H     H_    0.474038 0.067496 0.193946 0.357281
H171  H     H_    0.442323 0.983178 0.607804 0.189744
H172  H     H_    0.933134 0.472254 0.193583 0.357130
H173  H     H_    0.087755 0.570458 0.613805 0.265514
H174  H     H_    0.125545 0.599376 0.596796 0.252671
H175  H     H_    0.077082 0.612844 0.590474 0.248179
H176  H     H_    0.108608 0.583689 0.537934 0.226632
H177  H     H_    0.065316 0.562462 0.552221 0.255533
H178  H     H_    0.093848 0.506235 0.569707 0.176669
H179  H     H_    0.135901 0.528937 0.582315 0.208260
H180  H     H_    0.569894 0.910780 0.614502 0.265706
H181  H     H_    0.598404 0.873297 0.596518 0.253109
H182  H     H_    0.517951 0.057336 0.892375 0.190123
H183  H     H_    0.612128 0.921760 0.591156 0.248857
H184  H     H_    0.582593 0.892263 0.538183 0.228260
H185  H     H_    0.560965 0.934759 0.553744 0.254543
H186  H     H_    0.505107 0.905351 0.570136 0.176711
H187  H     H_    0.528282 0.863432 0.582444 0.208798
H188  H     H_    0.904833 0.411689 0.605182 0.265795
H189  H     H_    0.867394 0.389592 0.580954 0.255414
H190  H     H_    0.915265 0.373494 0.576499 0.247027
H191  H     H_    0.892288 0.413880 0.527220 0.227529
H192  H     H_    0.934392 0.429476 0.548397 0.250675
N1    N     N_R   0.977045 0.477174 0.266981 -0.247499
N2    N     N_R   0.977521 0.523064 0.766900 -0.247226
N3    N     N_R   0.523077 0.023166 0.766876 -0.248113
N4    N     N_R   0.022869 0.476591 0.767009 -0.248322
N5    N     N_R   0.476944 0.022321 0.233042 -0.247321
N6    N     N_R   0.977794 0.476356 0.233028 -0.247834
N7    N     N_R   0.523777 0.977330 0.233051 -0.247678
N8    N     N_R   0.022860 0.523046 0.233002 -0.247490
N9    N     N_R   0.477687 0.023081 0.266920 -0.247374
N10   N     N_R   0.023692 0.522280 0.266955 -0.247857
N11   N     N_R   0.522792 0.976360 0.266963 -0.247631
N12   N     N_R   0.976820 0.522341 0.733025 -0.247080
N13   N     N_R   0.478212 0.976255 0.732902 -0.247689
N14   N     N_R   0.023717 0.477419 0.732979 -0.248324
N15   N     N_R   0.522223 0.023995 0.732931 -0.247810
N16   N     N_R   0.477486 0.976991 0.766849 -0.247920
O1    O     O_R   0.054320 0.468590 0.500060 -0.594406
O2    O     O_R   0.968590 0.445680 0.000060 -0.594751
O3    O     O_R   0.445680 0.031410 0.000060 -0.593000
O4    O     O_R   0.031410 0.554320 0.000060 -0.594955
O5    O     O_R   0.554320 0.031410 0.999940 -0.595040
O6    O     O_R   0.968590 0.554320 0.999940 -0.594709
O7    O     O_R   0.445680 0.968590 0.999940 -0.595993
O8    O     O_R   0.031410 0.445680 0.999940 -0.594069
O9    O     O_R   0.999950 0.468590 0.450130 -0.597448
O10   O     O_R   0.468590 0.000050 0.450130 -0.596603
O11   O     O_R   0.000050 0.531410 0.450130 -0.596200
O12   O     O_R   0.468590 0.945680 0.500060 -0.594896
O13   O     O_R   0.531410 0.999950 0.450130 -0.597726
O14   O     O_R   0.999950 0.531410 0.549870 -0.596270
O15   O     O_R   0.468590 0.999950 0.549870 -0.595804
O16   O     O_R   0.000050 0.468590 0.549870 -0.594461
O17   O     O_R   0.531410 0.000050 0.549870 -0.597371
O18   O     O_R   0.499950 0.968590 0.950130 -0.595401
O19   O     O_R   0.968590 0.500050 0.950130 -0.596604
O20   O     O_R   0.500050 0.031410 0.950130 -0.596397
O21   O     O_R   0.031410 0.499950 0.950130 -0.594836
O22   O     O_R   0.499950 0.031410 0.049870 -0.596501
O23   O     O_R   0.945680 0.531410 0.500060 -0.594978
O24   O     O_R   0.968590 0.499950 0.049870 -0.596755
O25   O     O_R   0.500050 0.968590 0.049870 -0.597907
O26   O     O_R   0.031410 0.500050 0.049870 -0.597053
O27   O     O_R   0.499940 0.554330 0.471170 -0.584126
O28   O     O_R   0.554330 0.500060 0.471170 -0.583941
O29   O     O_R   0.500060 0.445670 0.471170 -0.584058
O30   O     O_R   0.445670 0.499940 0.471170 -0.584053
O31   O     O_R   0.499940 0.445670 0.528830 -0.584184
O32   O     O_R   0.554330 0.499940 0.528830 -0.584259
O33   O     O_R   0.500060 0.554330 0.528830 -0.584128
O34   O     O_R   0.531410 0.054320 0.500060 -0.595473
O35   O     O_R   0.445670 0.500060 0.528830 -0.584272
O36   O     O_R   0.999940 0.054330 0.971170 -0.584206
O37   O     O_R   0.054330 0.000060 0.971170 -0.584205
O38   O     O_R   0.000060 0.945670 0.971170 -0.584295
O39   O     O_R   0.945670 0.999940 0.971170 -0.584175
O40   O     O_R   0.999940 0.945670 0.028830 -0.583962
O41   O     O_R   0.054330 0.999940 0.028830 -0.584083
O42   O     O_R   0.000060 0.054330 0.028830 -0.584049
O43   O     O_R   0.945670 0.000060 0.028830 -0.584004
O44   O     O_3   0.017599 0.568336 0.329439 -0.724827
O45   O     O_R   0.054320 0.531410 0.499940 -0.594765
O46   O     O_3   0.568962 0.982029 0.329829 -0.724571
O47   O     O_3   0.983337 0.431264 0.329456 -0.725059
O48   O     O_3   0.431153 0.016725 0.329453 -0.724502
O49   O     O_3   0.018351 0.431537 0.670408 -0.724418
O50   O     O_3   0.568667 0.017174 0.670640 -0.723662
O51   O     O_3   0.982686 0.568417 0.670662 -0.724267
O52   O     O_3   0.431524 0.983295 0.670730 -0.723507
O53   O     O_3   0.518214 0.068463 0.829718 -0.725901
O54   O     O_3   0.068495 0.481633 0.829672 -0.724687
O55   O     O_3   0.482741 0.931512 0.829502 -0.725980
O56   O     O_R   0.468590 0.054320 0.499940 -0.593125
O57   O     O_3   0.931673 0.517692 0.829356 -0.724449
O58   O     O_3   0.518081 0.931085 0.170217 -0.724456
O59   O     O_3   0.068815 0.516526 0.170550 -0.725002
O60   O     O_3   0.483450 0.068900 0.170528 -0.724395
O61   O     O_3   0.931618 0.482775 0.170605 -0.724680
O62   O     O_R   0.945680 0.468590 0.499940 -0.594770
O63   O     O_R   0.531410 0.945680 0.499940 -0.593502
O64   O     O_R   0.554320 0.968590 0.000060 -0.593466

loop_
_geom_bond_atom_site_label_1
_geom_bond_atom_site_label_2
_ccdc_geom_bond_type
H165  O54   S    
Cu6   O14   S    
C126  C127  S    
C190  C225  A    
C8    C26   A    
C32   C45   A    
C7    C60   S    
C30   C45   A    
C156  H100  S    
C188  C227  A    
H172  O61   S    
C114  C115  S    
N2    N12   A    
C15   C32   A    
C158  H98   S    
C125  H21   S    
C191  C228  A    
C128  H29   S    
C21   C59   A    
C22   C60   A    
C75   H108  S    
C91   H123  S    
C193  C211  A    
C106  C107  S    
Cu12  O29   S    
C181  H142  S    
C71   H90   S    
C122  H26   S    
C200  C215  A    
C108  C109  S    
C74   C92   A    
C138  H51   S    
Cu2   O32   S    
C19   C37   A    
C2    C229  S    
C76   C94   A    
C138  H53   S    
C18   C58   A    
C33   O52   S    
C11   H127  S    
C162  C171  T    
C78   C96   A    
C67   N9    A    
C25   C60   A    
C63   N2    A    
C80   H112  S    
C85   C103  A    
C111  C196  S    
H164  O53   S    
Cu11  O8    S    
Cu9   O19   S    
Cu10  O5    S    
C197  O8    A    
C4    C56   S    
C1    C212  S    
C53   C239  S    
C208  O7    A    
C150  H86   S    
C232  O29   A    
C57   C235  S    
Cu4   O42   S    
C190  H151  S    
C112  O12   A    
C111  H3    S    
C188  C205  A    
C166  C174  T    
C141  H61   S    
C181  C221  A    
C183  C201  A    
C15   C54   A    
C191  H152  S    
C140  C141  S    
C3    O15   A    
C105  H179  S    
C187  C226  A    
C187  C204  A    
Cu6   O45   S    
Cu8   O25   S    
C121  H14   S    
C145  H80   S    
C174  C227  S    
C20   H24   S    
C84   H117  S    
Cu6   O23   S    
C172  C225  S    
C129  H41   S    
C189  C206  A    
C141  H60   S    
C238  O11   A    
C188  H148  S    
C108  C195  S    
C163  C172  T    
C14   H149  S    
C192  C210  A    
Cu11  O26   S    
C211  C217  A    
C27   O46   S    
Cu11  O4    S    
C83   C100  A    
C29   C44   A    
Cu5   O10   S    
C33   C47   A    
C40   O59   S    
C34   C48   A    
C17   C34   A    
H155  O44   S    
C208  O3    A    
C114  H192  S    
C75   C93   A    
C105  C106  S    
C132  C203  S    
C70   C79   A    
C143  H70   S    
C68   C102  A    
C139  C140  S    
C123  H25   S    
C118  H6    S    
C1    O1    A    
C23   C41   A    
C239  O10   A    
C13   C94   A    
C156  C158  S    
C130  C131  S    
C62   N7    A    
N5    N9    A    
C207  C216  A    
C180  C224  A    
C142  C206  S    
C142  H73   S    
C134  H44   S    
C201  C214  A    
C180  C198  A    
C237  O39   A    
C194  C212  A    
C71   C88   A    
C72   C101  A    
C38   O57   S    
C69   N1    A    
C155  C156  S    
N4    N14   A    
C122  C200  S    
C109  C110  S    
C164  O62   A    
C134  H45   S    
C232  O31   A    
C143  C144  S    
C139  H65   S    
C19   C56   A    
C95   H128  S    
C80   C97   A    
C84   C102  A    
C147  C148  S    
C35   C237  S    
C128  H30   S    
C14   C31   A    
C86   C104  A    
C121  H15   S    
Cu8   O7    S    
C179  C196  A    
Cu10  O20   S    
C35   C96   A    
C18   H2    S    
C23   C59   A    
H157  O47   S    
C87   H120  S    
C80   C135  A    
C5    C58   S    
C46   C234  S    
C73   H106  S    
C81   H113  S    
C83   H115  S    
C167  C176  T    
C64   N3    A    
H162  O51   S    
C148  H76   S    
C144  H69   S    
C108  H187  S    
C3    C55   S    
C27   C44   A    
C37   O55   S    
C130  H39   S    
Cu5   O12   S    
C132  H49   S    
H169  O59   S    
C75   C113  A    
C83   C124  A    
Cu3   O38   S    
C8    C52   A    
C52   C238  S    
C124  C163  S    
C151  H83   S    
C14   C55   A    
C229  O27   A    
C153  H94   S    
H163  O52   S    
C4    O18   A    
C70   C87   A    
C6    O22   A    
C123  H23   S    
C192  C227  A    
C105  C194  S    
C176  C228  S    
C131  H37   S    
C9    H105  S    
C104  H136  S    
C231  O28   A    
C62   N5    A    
C164  C214  S    
C140  H63   S    
C61   N6    A    
C154  H91   S    
C107  H174  S    
C127  H32   S    
C76   H109  S    
C196  C214  A    
C136  H56   S    
C169  C222  S    
C160  C169  T    
C185  C225  A    
H167  O57   S    
C17   C56   A    
C191  C209  A    
C152  H96   S    
C85   H118  S    
C93   H125  S    
C126  H34   S    
C155  H104  S    
Cu12  O27   S    
C7    O24   A    
C129  C202  S    
C20   C58   A    
C35   C100  A    
C181  C199  A    
C82   H114  S    
C145  C207  S    
C120  C121  S    
C129  C130  S    
C236  O38   A    
Cu7   O13   S    
Cu5   O56   S    
C152  C210  S    
C6    C59   S    
C136  C137  S    
C158  H99   S    
C40   C51   A    
C182  C224  A    
C149  H88   S    
Cu2   Cu12  S    
C24   C93   A    
H159  O49   S    
C197  O2    A    
C71   C90   A    
H158  O48   S    
C133  H48   S    
C26   O44   S    
C233  O35   A    
Cu3   O36   S    
C36   C49   A    
C190  C207  A    
C152  C153  S    
C183  C223  A    
C81   C146  A    
C156  H102  S    
C193  H154  S    
C150  C151  S    
C44   C67   S    
C132  H50   S    
C177  C221  A    
C4    O20   A    
C128  H28   S    
C147  H78   S    
C234  O42   A    
C63   N4    A    
C34   O53   S    
Cu6   O11   S    
C120  H16   S    
C82   C99   A    
C147  H77   S    
C10   C52   A    
C157  C167  S    
H156  O46   S    
C38   C49   A    
C42   O61   S    
C61   N8    A    
C15   H160  S    
C154  H89   S    
C119  C199  S    
C94   H126  S    
C5    O19   A    
C149  C209  S    
C105  H178  S    
Cu2   O33   S    
C121  H12   S    
C79   C159  S    
C131  H36   S    
Cu3   O39   S    
C123  C125  S    
C81   C98   A    
Cu3   Cu4   S    
C8    H1    S    
C73   C113  A    
C199  C212  A    
C186  O64   A    
C179  C223  A    
C240  O14   A    
C139  C205  S    
N1    N6    A    
C41   O60   S    
C102  H134  S    
Cu8   Cu10  S    
C141  H59   S    
Cu1   O1    S    
C189  H150  S    
C110  H180  S    
C168  C221  S    
C182  H143  S    
C137  H55   S    
C108  H186  S    
C19   H13   S    
C117  H9    S    
C236  O40   A    
C180  H141  S    
C240  O16   A    
C28   O47   S    
C31   C47   A    
Cu9   O6    S    
C22   H46   S    
N3    N15   A    
C197  C217  S    
C198  C215  A    
C145  C147  S    
C96   H129  S    
C158  H97   S    
N7    N11   A    
C125  H22   S    
C126  C201  S    
C208  C218  S    
C57   C103  A    
C77   C90   A    
C177  C194  A    
C125  H20   S    
C109  H185  S    
Cu1   Cu6   S    
C203  C216  A    
C65   N13   A    
C89   H122  S    
C6    O25   A    
C219  C220  S    
C117  H8    S    
Cu1   O62   S    
Cu8   O18   S    
C118  H7    S    
C206  C220  A    
C88   H121  S    
C46   C104  A    
Cu10  O3    S    
C235  O41   A    
C120  H17   S    
C74   H107  S    
C66   N14   A    
Cu7   O34   S    
Cu2   O31   S    
C144  H67   S    
C151  H84   S    
C116  C198  S    
C140  H62   S    
C135  C165  S    
C182  C200  A    
C107  H175  S    
C231  O32   A    
Cu9   O2    S    
C77   H110  S    
C46   C97   A    
H166  O55   S    
Cu5   O15   S    
Cu5   Cu7   S    
C133  C134  S    
C1    O45   A    
C189  C228  A    
C9    C53   A    
C127  C128  S    
C150  H85   S    
C41   C50   A    
Cu4   O41   S    
C9    C27   A    
C137  C138  S    
C10   C28   A    
C111  H4    S    
C98   H131  S    
C65   N15   A    
C12   C30   A    
C24   C232  S    
C25   C42   A    
C119  C120  S    
C36   O54   S    
C87   C230  A    
C233  O30   A    
C28   C43   A    
C175  O56   A    
Cu7   O63   S    
C185  C203  A    
C145  H81   S    
C219  O4    A    
C64   N16   A    
C143  H71   S    
C116  H11   S    
C149  C150  S    
C129  H42   S    
C57   C98   A    
C155  C211  S    
C111  C114  S    
C202  C213  A    
C90   C160  S    
C195  C213  A    
C170  C223  S    
Cu10  O22   S    
C29   O48   S    
Cu7   O17   S    
C130  H40   S    
C115  H190  S    
C142  C143  S    
Cu3   O37   S    
C165  C173  T    
C18   C36   A    
C12   C54   A    
C114  H191  S    
C175  C215  S    
C86   H119  S    
C25   H68   S    
C17   H182  S    
C49   C63   S    
C117  C118  S    
Cu1   O16   S    
C153  H93   S    
C51   C61   S    
Cu12  O30   S    
C122  H27   S    
C238  O9    A    
C171  C224  S    
C30   O49   S    
C187  H147  S    
C118  H5    S    
C234  O36   A    
C116  C117  S    
C184  C222  A    
C112  O63   A    
C219  O6    A    
C2    C95   A    
C193  C226  A    
C173  C226  S    
C151  H82   S    
C69   N10   A    
C229  O33   A    
C159  C168  T    
C230  C233  S    
C154  H92   S    
C107  H173  S    
C127  H31   S    
C142  H72   S    
C134  H43   S    
C68   C236  S    
C48   C64   S    
C113  C162  S    
C106  H176  S    
C183  H144  S    
C97   H130  S    
C39   O58   S    
H168  O58   S    
C2    C88   A    
C99   H132  S    
Cu8   O64   S    
H170  O60   S    
C175  O34   A    
C78   C124  A    
C179  H140  S    
C192  H153  S    
C31   O50   S    
Cu4   O43   S    
C42   C51   A    
C72   H101  S    
C146  C166  S    
C138  H52   S    
C109  H184  S    
C155  H103  S    
Cu12  O28   S    
C110  H183  S    
C184  H145  S    
C32   O51   S    
C106  H177  S    
C5    O21   A    
C26   C43   A    
C164  O23   A    
C205  C218  A    
Cu9   Cu11  S    
C184  C202  A    
C85   C146  A    
C73   C91   A    
N8    N10   A    
C186  O5    A    
C70   H79   S    
C82   C157  A    
C177  H137  S    
C132  C133  S    
C103  H135  S    
C77   C95   A    
C66   N12   A    
C149  H87   S    
C186  C216  S    
C7    O26   A    
C148  H75   S    
Cu11  O21   S    
C16   C33   A    
C13   C231  S    
C20   C38   A    
C86   C135  A    
C21   C39   A    
C92   C230  A    
C22   C40   A    
C115  H188  S    
C133  H47   S    
C112  C213  S    
C37   C48   A    
C21   H35   S    
C144  H66   S    
C161  C170  T    
C67   N11   A    
C50   C62   S    
C16   H171  S    
C119  H19   S    
C24   C91   A    
C136  C204  S    
C237  O43   A    
C136  H58   S    
C76   C101  A    
C119  H18   S    
C235  O37   A    
C239  O13   A    
C131  H38   S    
C13   C89   A    
C209  C220  A    
Cu2   O35   S    
C11   C53   A    
C84   C157  A    
Cu4   O40   S    
C10   H116  S    
C178  C195  A    
C210  C218  A    
Cu1   O9    S    
C204  C217  A    
C74   C79   A    
C101  C161  S    
C122  C123  S    
C16   C55   A    
C54   C240  S    
C3    O17   A    
C12   H138  S    
H161  O50   S    
C72   C89   A    
Cu9   O24   S    
C185  H146  S    
C115  H189  S    
N13   N16   A    
C23   H57   S    
C178  H139  S    
C92   H124  S    
C116  H10   S    
C148  H74   S    
C139  H64   S    
C152  H95   S    
C39   C50   A    
C11   C29   A    
C43   C69   S    
C126  H33   S    
C45   C66   S    
C100  H133  S    
C178  C222  A    
C110  H181  S    
C153  C154  S    
C47   C65   S    
C137  H54   S    
C78   H111  S    
C68   C99   A    
