data_mof_unit_6270.cif
_audit_creation_date              2012-12-11T18:11:20-0500
_audit_creation_method            fapswitch 2.2
_symmetry_space_group_name_H-M    P1
_symmetry_Int_Tables_number       1
_space_group_crystal_system       triclinic
_cell_length_a                    8.212893
_cell_length_b                    12.707471
_cell_length_c                    18.731222
_cell_angle_alpha                 99.487516
_cell_angle_beta                  91.172483
_cell_angle_gamma                 98.510801
_cell_volume                      1904.89595176

loop_
_atom_site_label
_atom_site_type_symbol
_atom_type_description
_atom_site_fract_x
_atom_site_fract_y
_atom_site_fract_z
_atom_type_partial_charge
Ba1   Ba    Ba6+2 0.852780 0.548340 0.465070 1.663432
Ba2   Ba    Ba6+2 0.337060 0.451750 0.534940 1.670629
C1    C     C_3   0.632928 0.847065 0.165912 -0.360757
C2    C     C_3   0.577444 0.785510 0.226458 0.313432
C3    C     C_3   0.452158 0.275634 0.313841 0.297943
C4    C     C_3   0.409720 0.235324 0.233543 -0.403363
C5    C     C_3   0.061547 0.236967 0.733462 0.354044
C6    C     C_3   0.079710 0.211937 0.809619 -0.364116
C7    C     C_3   0.558702 0.179925 0.700695 0.353267
C8    C     C_3   0.611921 0.100276 0.745388 -0.413376
C9    C     C_R   0.995447 0.439166 0.046400 0.009717
C10   C     C_R   0.898760 0.387039 0.095587 -0.092759
C11   C     C_R   0.767771 0.406155 0.952171 -0.108492
C12   C     C_3   0.130176 0.764881 0.268228 0.415104
C13   C     C_R   0.933396 0.445461 0.975685 0.018275
C14   C     C_R   0.710312 0.408463 0.882384 -0.097398
C15   C     C_R   0.814281 0.450941 0.832442 -0.035105
C16   C     C_R   0.977744 0.498743 0.855511 -0.001305
C17   C     C_R   0.038171 0.495297 0.927274 0.021933
C18   C     C_R   0.759499 0.446497 0.759953 -0.008879
C19   C     C_R   0.867511 0.487434 0.710992 -0.298008
C20   C     C_R   0.024563 0.543094 0.733337 0.039093
C21   C     C_R   0.080180 0.550382 0.807043 -0.038890
C22   C     C_R   0.161024 0.483541 0.068495 0.023525
C23   C     C_3   0.129744 0.796208 0.193343 -0.376189
C24   C     C_R   0.220558 0.482753 0.140862 0.007831
C25   C     C_R   0.114156 0.439940 0.191418 -0.041011
C26   C     C_R   0.957350 0.387011 0.165669 -0.035055
C27   C     C_R   0.234306 0.607325 0.834213 -0.022707
C28   C     C_R   0.295861 0.600945 0.903141 -0.087637
C29   C     C_R   0.203002 0.541051 0.949803 0.009171
C30   C     C_R   0.267194 0.529771 0.019185 0.018673
C31   C     C_R   0.435867 0.560295 0.040453 -0.107552
C32   C     C_R   0.386225 0.525410 0.162721 -0.033527
C33   C     C_R   0.494149 0.556682 0.110264 -0.105452
C34   C     C_3   0.234756 0.786113 0.618856 0.281964
C35   C     C_R   0.437150 0.539539 0.236961 -0.023561
C36   C     C_R   0.326417 0.505370 0.287158 -0.289896
C37   C     C_R   0.168148 0.451731 0.265696 0.025027
C38   C     C_R   0.771325 0.180260 0.521967 -0.240015
C39   C     C_R   0.433399 0.806931 0.468748 -0.268638
C40   C     C_R   0.404559 0.983385 0.443896 -0.060971
C41   C     C_R   0.343070 0.874608 0.439369 -0.013774
C42   C     C_R   0.579620 0.848589 0.509356 0.062186
C43   C     C_R   0.643209 0.960779 0.516882 -0.062894
C44   C     C_R   0.554963 0.028161 0.481947 -0.028965
C45   C     C_3   0.252767 0.908405 0.634623 -0.349288
C46   C     C_R   0.619922 0.138368 0.485732 0.009420
C47   C     C_R   0.860390 0.115351 0.555221 0.031863
C48   C     C_R   0.794641 0.007076 0.555007 -0.096141
C49   C     C_3   0.852249 0.208538 0.314486 0.318781
C50   C     C_3   0.837867 0.088900 0.285079 -0.231877
C51   C     C_3   0.728502 0.707031 0.682644 0.316028
C52   C     C_3   0.744037 0.743476 0.764389 -0.401753
H1    H     H_    0.536926 0.841231 0.272038 0.090055
H2    H     H_    0.344384 0.940141 0.680091 0.111365
H3    H     H_    0.294807 0.942751 0.586419 0.074589
H4    H     H_    0.132436 0.933609 0.649507 0.144845
H5    H     H_    0.785650 0.242828 0.274240 -0.004976
H6    H     H_    0.796482 0.221986 0.367403 -0.002267
H7    H     H_    0.711454 0.059831 0.260638 0.041198
H8    H     H_    0.927415 0.074639 0.242148 0.052745
H9    H     H_    0.847187 0.684953 0.663461 0.010549
H10   H     H_    0.630046 0.635862 0.670259 0.065727
H11   H     H_    0.538507 0.896525 0.153697 0.070229
H12   H     H_    0.845263 0.812756 0.778508 0.125556
H13   H     H_    0.771304 0.676768 0.791820 0.057171
H14   H     H_    0.626715 0.768447 0.784275 0.118248
H15   H     H_    0.467322 0.728200 0.205005 -0.040024
H16   H     H_    0.650157 0.789459 0.116249 0.099905
H17   H     H_    0.343792 0.305836 0.339329 0.056925
H18   H     H_    0.557623 0.342593 0.319713 0.032937
H19   H     H_    0.297854 0.173006 0.226587 0.137378
H20   H     H_    0.385951 0.302838 0.206202 0.060182
H21   H     H_    0.513579 0.199597 0.207346 0.104869
H22   H     H_    0.751751 0.900437 0.181747 0.124109
H23   H     H_    0.164725 0.729943 0.152978 0.069752
H24   H     H_    0.145587 0.312814 0.730279 0.095165
H25   H     H_    0.932380 0.248724 0.723626 -0.072394
H26   H     H_    0.210220 0.206025 0.822566 0.149060
H27   H     H_    0.040606 0.276879 0.849575 0.073081
H28   H     H_    0.001861 0.134184 0.813905 0.110974
H29   H     H_    0.668835 0.214047 0.673717 -0.067731
H30   H     H_    0.466700 0.136053 0.657699 0.072630
H31   H     H_    0.706546 0.143007 0.787545 0.114464
H32   H     H_    0.664487 0.035961 0.709878 0.091058
H33   H     H_    0.040131 0.690200 0.266799 0.093316
H34   H     H_    0.504923 0.063061 0.772672 0.128722
H35   H     H_    0.825429 0.480555 0.655069 0.069347
H36   H     H_    0.582373 0.376149 0.868487 0.111576
H37   H     H_    0.874706 0.346627 0.199341 0.075027
H38   H     H_    0.311429 0.656044 0.802208 0.093712
H39   H     H_    0.624269 0.582658 0.123349 0.096971
H40   H     H_    0.366305 0.517179 0.343708 0.068753
H41   H     H_    0.677236 0.373329 0.986545 0.072349
H42   H     H_    0.775802 0.344685 0.081937 0.057257
H43   H     H_    0.416242 0.646355 0.919297 0.056539
H44   H     H_    0.255129 0.747816 0.281342 -0.139278
H45   H     H_    0.526733 0.586245 0.003665 0.072444
H46   H     H_    0.330901 0.032009 0.418772 0.138336
H47   H     H_    0.865182 0.960183 0.583179 0.100156
H48   H     H_    0.822723 0.263921 0.522560 0.065726
H49   H     H_    0.382926 0.722377 0.464561 0.059641
H50   H     H_    0.004989 0.810837 0.177806 0.135696
H51   H     H_    0.219561 0.870638 0.193158 0.105661
H52   H     H_    0.354512 0.761832 0.603727 0.002917
H53   H     H_    0.142263 0.756562 0.573275 0.075008
O1    O     O_2   0.873090 0.425890 0.325140 -0.492028
O2    O     O_3   0.689977 0.792557 0.650463 -0.642280
O3    O     O_3   0.085692 0.848959 0.319129 -0.565077
O4    O     O_2   0.316610 0.574140 0.674900 -0.469334
O5    O     O_3   0.067290 0.565720 0.585630 -0.497723
O6    O     O_3   0.530210 0.372990 0.631200 -0.471175
O7    O     O_3   0.186102 0.746498 0.681678 -0.639447
O8    O     O_3   0.611340 0.366290 0.463630 -0.486614
O9    O     O_3   0.108550 0.314140 0.595200 -0.482846
O10   O     O_2   0.200472 0.122520 0.552034 -0.462139
O11   O     O_3   0.102870 0.150854 0.683557 -0.610465
O12   O     O_3   0.122420 0.434370 0.414380 -0.461055
O13   O     O_3   0.578370 0.633800 0.536380 -0.491434
O14   O     O_2   0.341510 0.231850 0.465510 -0.420387
O15   O     O_3   0.493517 0.189778 0.345140 -0.652084
O16   O     O_2   0.419058 0.453678 0.756736 -0.496499
O17   O     O_3   0.484929 0.257391 0.746275 -0.597567
O18   O     O_3   0.659500 0.627100 0.368810 -0.460195
O19   O     O_2   0.776081 0.545208 0.245459 -0.493941
O20   O     O_3   0.018286 0.253587 0.324255 -0.628213
O21   O     O_3   0.709990 0.738451 0.249854 -0.567384
O22   O     O_2   0.848200 0.768190 0.534530 -0.476461
O23   O     O_3   0.081160 0.685950 0.404810 -0.497151
O24   O     O_2   0.014854 0.880262 0.456678 -0.466207
P1    P     P_3+3 0.041040 0.394770 0.336330 0.984600
P2    P     P_3+3 0.672880 0.754030 0.556100 0.964648
P3    P     P_3+3 0.131841 0.823454 0.405608 0.999694
P4    P     P_3+3 0.148670 0.605320 0.663680 0.968906
P5    P     P_3+3 0.066999 0.174923 0.595651 0.989818
P6    P     P_3+3 0.641740 0.611971 0.274130 0.957386
P7    P     P_3+3 0.520597 0.230302 0.439072 0.951906
P8    P     P_3+3 0.548962 0.385430 0.724678 0.946061
C53   C     C_2   0.866758 0.027077 0.343880 0.906838
O25   O     O_2   0.994607 0.049719 0.381413 -0.567685
O26   O     O_R   0.745104 0.943643 0.355117 -0.783223
H54   H     H_    0.779095 0.899142 0.390921 0.339520

loop_
_geom_bond_atom_site_label_1
_geom_bond_atom_site_label_2
_ccdc_geom_bond_type
C8    H31   S    
C14   H36   S    
O13   P2    S    
C32   C35   A    
O17   P8    S    
Ba1   P1    S    
C34   O7    S    
C15   C18   A    
C23   H51   S    
C5    C6    S    
O19   P6    D    
C19   H35   S    
C43   C44   A    
C13   C17   A    
C28   H43   S    
Ba2   O5    S    
C24   C25   A    
C35   C36   A    
C10   C26   A    
C23   H23   S    
C21   C27   A    
C18   P8    S    
C53   O26   S    
C12   H33   S    
C16   C17   A    
C3    H18   S    
Ba1   O22   S    
C50   H7    S    
Ba1   O5    S    
C40   C44   A    
C36   C37   A    
C32   C33   A    
C51   H10   S    
C52   H14   S    
C37   P1    S    
C38   C47   A    
O16   P8    D    
C9    C22   A    
C7    O17   S    
C34   C45   S    
C12   O3    S    
Ba1   Ba2   S    
Ba1   O12   S    
O20   P1    S    
C50   C53   S    
Ba2   O9    S    
C24   C32   A    
C25   C37   A    
C14   C15   A    
O7    P4    S    
O6    P8    S    
C12   H44   S    
C7    C8    S    
O24   P3    D    
C17   C29   A    
C35   P6    S    
C19   C20   A    
C34   H53   S    
C39   C41   A    
C5    O11   S    
C1    H11   S    
C9    C13   A    
Ba1   P2    S    
C2    H15   S    
C4    H20   S    
C33   H39   S    
C44   C46   A    
Ba2   O4    S    
C2    O21   S    
O2    P2    S    
C6    H27   S    
C4    H21   S    
C1    H16   S    
C53   O25   D    
O15   P7    S    
Ba1   O23   S    
Ba2   O13   S    
C52   H13   S    
C7    H30   S    
O18   P6    S    
C51   C52   S    
C34   H52   S    
C3    O15   S    
C16   C21   A    
C31   H45   S    
Ba1   O13   S    
O14   P7    D    
C41   P3    S    
O21   P6    S    
C22   C30   A    
C27   C28   A    
C40   H46   S    
C45   H3    S    
Ba2   O8    S    
C29   C30   A    
O8    P7    S    
C28   C29   A    
Ba2   O12   S    
C8    H34   S    
C36   H40   S    
C15   C16   A    
C1    H22   S    
C7    H29   S    
C5    H24   S    
O22   P2    D    
C47   P5    S    
C11   H41   S    
C11   C13   A    
C2    H1    S    
C39   C42   A    
C6    H28   S    
O3    P3    S    
C49   H5    S    
C40   C41   A    
O5    P4    S    
C1    C2    S    
O11   P5    S    
C42   C43   A    
C4    H19   S    
C5    H25   S    
Ba2   O14   S    
C51   O2    S    
C42   P2    S    
C38   C46   A    
C8    H32   S    
O26   H54   S    
C22   C24   A    
O12   P1    S    
C9    C10   A    
C23   H50   S    
O9    P5    S    
Ba2   P4    S    
C46   P7    S    
C20   P4    S    
Ba1   O18   S    
C49   O20   S    
C30   C31   A    
C49   C50   S    
C3    H17   S    
C50   H8    S    
C45   H4    S    
C51   H9    S    
C31   C33   A    
O4    P4    D    
C3    C4    S    
C43   C48   A    
Ba2   O6    S    
C26   H37   S    
C12   C23   S    
O23   P3    S    
O1    P1    D    
Ba1   O1    S    
C38   H48   S    
C39   H49   S    
C18   C19   A    
C48   H47   S    
C47   C48   A    
C11   C14   A    
C25   C26   A    
C6    H26   S    
C20   C21   A    
C10   H42   S    
C49   H6    S    
Ba1   O8    S    
C52   H12   S    
O10   P5    D    
C27   H38   S    
C45   H2    S    
