data_mof_unit_55270.cif
_audit_creation_date              2012-12-10T19:00:10-0500
_audit_creation_method            fapswitch 2.2
_symmetry_space_group_name_H-M    P1
_symmetry_Int_Tables_number       1
_space_group_crystal_system       triclinic
_cell_length_a                    9.59111
_cell_length_b                    10.822992
_cell_length_c                    13.472926
_cell_angle_alpha                 90.155136
_cell_angle_beta                  73.673237
_cell_angle_gamma                 89.832294
_cell_volume                      1342.13778392

loop_
_atom_site_label
_atom_site_type_symbol
_atom_type_description
_atom_site_fract_x
_atom_site_fract_y
_atom_site_fract_z
_atom_type_partial_charge
C1    C     C_R   0.500683 0.737576 0.497966 0.805783
C2    C     C_R   0.444770 0.443370 0.975077 0.081632
C3    C     C_R   0.489822 0.439048 0.865445 0.041694
C4    C     C_R   0.550713 0.463745 0.028911 0.086699
C5    C     C_R   0.699567 0.468023 0.973103 0.173975
C6    C     C_R   0.741648 0.441787 0.867947 -0.267872
C7    C     C_R   0.638927 0.422317 0.815897 -0.183146
C8    C     C_R   0.513490 0.482819 0.136030 -0.251188
C9    C     C_R   0.766262 0.506799 0.130573 -0.195308
C10   C     C_R   0.384044 0.447067 0.809746 -0.117700
C11   C     C_R   0.383838 0.936972 0.479236 0.144177
C12   C     C_R   0.424219 0.482815 0.698322 0.810100
C13   C     C_R   0.505423 0.870752 0.487286 -0.127763
C14   C     C_R   0.635218 0.935178 0.479857 -0.215475
C15   C     C_R   0.635549 0.063982 0.479911 -0.222591
C16   C     C_R   0.505953 0.129381 0.487856 -0.083149
C17   C     C_R   0.383857 0.064277 0.480700 0.073173
C18   C     C_3   0.229371 0.072651 0.545156 -0.510554
C19   C     C_3   0.228396 0.931781 0.542933 -0.047933
C20   C     C_R   0.942171 0.401673 0.460947 0.247003
C21   C     C_R   0.905772 0.589543 0.549841 -0.082962
C22   C     C_R   0.054183 0.589130 0.550311 -0.043897
C23   C     C_R   0.501003 0.262492 0.498141 0.795327
C24   C     C_R   0.089098 0.401757 0.460817 0.261178
C25   C     C_3   0.136695 0.352528 0.353142 -0.512808
C26   C     C_3   0.978191 0.351685 0.353604 -0.502260
C27   C     C_R   0.577085 0.501561 0.300552 0.799074
C28   C     C_R   0.804922 0.494420 0.023706 -0.211898
C29   C     C_R   0.620288 0.498052 0.187463 -0.045744
C30   C     C_R   0.238103 0.422229 0.863052 0.154430
C31   C     C_R   0.197137 0.406556 0.970250 -0.202805
C32   C     C_R   0.296950 0.422695 0.026129 -0.217733
Cu1   Cu    Cu3+1 0.359330 0.500020 0.500010 0.961944
Cu2   Cu    Cu3+1 0.640670 0.499980 0.499990 0.933085
H1    H     H_    0.850333 0.523178 0.168366 0.149217
H2    H     H_    0.218997 0.111311 0.623484 0.191893
H3    H     H_    0.158235 0.117215 0.503126 0.193496
H4    H     H_    0.212841 0.887336 0.619641 0.152887
H5    H     H_    0.835015 0.663466 0.588686 0.142624
H6    H     H_    0.093518 0.661979 0.590281 0.153565
H7    H     H_    0.201707 0.420438 0.298210 0.207260
H8    H     H_    0.185253 0.258643 0.349011 0.192734
H9    H     H_    0.953890 0.417963 0.297830 0.213794
H10   H     H_    0.853891 0.434081 0.824915 0.144162
H11   H     H_    0.934543 0.257082 0.351030 0.189904
H12   H     H_    0.917013 0.505339 0.980619 0.131167
H13   H     H_    0.401887 0.487290 0.180820 0.143995
H14   H     H_    0.256374 0.411574 0.108641 0.137314
H15   H     H_    0.086880 0.382177 0.011299 0.142662
H16   H     H_    0.679820 0.388320 0.737812 0.183234
H17   H     H_    0.734519 0.886855 0.479274 0.164191
N1    N     N_R   0.852320 0.499070 0.499340 -0.189766
N2    N     N_R   0.148230 0.499110 0.499340 -0.184030
O1    O     O_R   0.381190 0.680360 0.500000 -0.566437
O2    O     O_R   0.618780 0.680320 0.499990 -0.586630
O3    O     O_R   0.323230 0.500000 0.650990 -0.549302
O4    O     O_R   0.560820 0.499960 0.650980 -0.600560
O5    O     O_R   0.381220 0.319680 0.500010 -0.575540
O6    O     O_R   0.618810 0.319640 0.500000 -0.595778
O7    O     O_R   0.439180 0.500040 0.349020 -0.584635
O8    O     O_R   0.676770 0.500000 0.349010 -0.584731
H18   H     H_    0.735035 0.111546 0.479195 0.158057
N3    N     N_3   0.134107 0.880793 0.484410 -0.575891
H19   H     H_    0.151560 0.926261 0.413487 0.231923
H20   H     H_    0.026429 0.897968 0.526737 0.209037
N4    N     N_3   0.131779 0.410047 0.807870 -0.581066
H21   H     H_    0.063433 0.335926 0.838152 0.206968
H22   H     H_    0.072704 0.492501 0.818613 0.207796

loop_
_geom_bond_atom_site_label_1
_geom_bond_atom_site_label_2
_ccdc_geom_bond_type
C25   H8    S    
C23   O5    A    
C2    C4    A    
C1    O1    A    
N3    H20   S    
C18   H2    S    
C6    C7    A    
C19   H4    S    
Cu1   O7    S    
C5    C28   A    
C11   C13   A    
C10   C30   A    
N4    H22   S    
C14   H17   S    
C21   H5    S    
Cu1   O5    S    
C9    C29   A    
C30   C31   A    
C4    C8    A    
C22   H6    S    
C16   C23   S    
Cu1   O3    S    
C2    C3    A    
C1    O2    A    
C8    H13   S    
Cu2   O2    S    
C20   N1    A    
C3    C10   A    
C6    H10   S    
C13   C14   A    
C23   O6    A    
C32   H14   S    
C11   C19   S    
C12   O3    A    
C20   C26   S    
C31   H15   S    
Cu2   O4    S    
C12   O4    A    
C10   C12   S    
C7    H16   S    
C2    C32   A    
C30   N4    S    
C18   H3    S    
C26   H9    S    
Cu1   Cu2   S    
C22   N2    A    
C3    C7    A    
C27   O7    A    
C21   N1    A    
Cu1   N2    S    
C5    C6    A    
C31   C32   A    
C1    C13   S    
C8    C29   A    
N3    H19   S    
C15   C16   A    
C16   C17   A    
Cu1   O1    S    
N4    H21   S    
C24   C25   S    
C24   N2    A    
C17   C18   S    
C18   C19   S    
C25   H7    S    
C27   C29   S    
C9    H1    S    
C28   H12   S    
C14   C15   A    
C11   C17   A    
C27   O8    A    
C26   H11   S    
C25   C26   S    
C21   C22   A    
Cu2   O6    S    
Cu2   N1    S    
C15   H18   S    
Cu2   O8    S    
C20   C24   A    
C9    C28   A    
C19   N3    S    
C4    C5    A    
