data_mof_unit_38838.cif
_audit_creation_date              2013-03-05T15:58:18-0500
_audit_creation_method            fapswitch 2.2
_symmetry_space_group_name_H-M    P1
_symmetry_Int_Tables_number       1
_space_group_crystal_system       triclinic
_cell_length_a                    14.901514
_cell_length_b                    14.770579
_cell_length_c                    15.171825
_cell_angle_alpha                 110.666512
_cell_angle_beta                  108.703944
_cell_angle_gamma                 108.084561
_cell_volume                      2599.53477603

loop_
_atom_site_label
_atom_site_type_symbol
_atom_site_description
_atom_site_fract_x
_atom_site_fract_y
_atom_site_fract_z
_atom_type_partial_charge
C1    C     C_R   0.912818 0.196905 0.998787 -0.135755
C2    C     C_R   0.021267 0.747551 0.934890 -0.127351
H1    H     H_    0.854932 0.170457 0.024501 0.097212
H2    H     H_    0.055350 0.760543 0.884928 0.101610
N1    N     N_R   0.947560 0.293820 0.002910 -0.046569
N2    N     N_R   0.052440 0.706180 0.997090 -0.048715
C3    C     C_R   0.297574 0.801954 0.207940 -0.146398
C4    C     C_R   0.686326 0.238155 0.777483 -0.138371
H3    H     H_    0.351136 0.829927 0.178119 0.096877
H4    H     H_    0.621557 0.216796 0.796542 0.099916
N3    N     N_R   0.208960 0.706170 0.152110 -0.042519
N4    N     N_R   0.791040 0.293830 0.847890 -0.040942
C5    C     C_R   0.224153 0.405054 0.955770 0.345508
C6    C     C_R   0.792717 0.591205 0.102585 0.301807
N5    N     N_R   0.154330 0.443160 0.946140 -0.082924
N6    N     N_R   0.845670 0.556840 0.053860 -0.092220
C7    C     C_R   0.049264 0.590354 0.313380 -0.103742
C8    C     C_R   0.000819 0.406214 0.700027 -0.117863
H5    H     H_    0.091541 0.674751 0.378255 0.107774
H6    H     H_    0.975470 0.321040 0.646533 0.124773
N7    N     N_R   0.002190 0.556820 0.208880 -0.036359
N8    N     N_R   0.997810 0.443180 0.791120 -0.042253
C9    C     C_R   0.314990 0.590052 0.055963 -0.197456
C10   C     C_R   0.701700 0.408624 0.006424 -0.209213
H7    H     H_    0.378101 0.674716 0.104977 0.116896
H8    H     H_    0.647964 0.323409 0.976422 0.116376
N9    N     N_R   0.210550 0.556810 0.002910 -0.055795
N10   N     N_R   0.789450 0.443190 0.997090 -0.057465
C11   C     C_R   0.964408 0.404924 0.218426 -0.116995
C12   C     C_R   0.087868 0.589853 0.787960 -0.133546
H9    H     H_    0.931795 0.319023 0.195310 0.113953
H10   H     H_    0.140007 0.674138 0.813785 0.113115
N11   N     N_R   0.945970 0.443180 0.152110 -0.046293
N12   N     N_R   0.054030 0.556820 0.847890 -0.045235
C13   C     C_R   0.208994 0.801218 0.301998 -0.087772
C14   C     C_R   0.781070 0.247976 0.688197 -0.105867
H11   H     H_    0.182341 0.826969 0.360314 0.125985
H12   H     H_    0.803697 0.240447 0.626351 0.110335
N13   N     N_R   0.151530 0.706170 0.208880 -0.039673
N14   N     N_R   0.848470 0.293830 0.791120 -0.042375
C15   C     C_R   0.001709 0.195645 0.906017 -0.107804
C16   C     C_R   0.924709 0.740664 0.020823 -0.070144
H13   H     H_    0.018698 0.164159 0.841260 0.170711
H14   H     H_    0.863558 0.738286 0.043930 0.134728
N15   N     N_R   0.004980 0.293810 0.946140 -0.054101
N16   N     N_R   0.995020 0.706190 0.053860 -0.029461
C17   C     C_R   0.944796 0.132504 0.937305 0.025910
C18   C     C_R   0.938809 0.768389 0.946343 0.009897
C19   C     C_R   0.300696 0.862134 0.302648 0.035187
C20   C     C_R   0.679166 0.207462 0.676867 0.043826
C21   C     C_R   0.325240 0.495792 0.028972 -0.115683
C22   C     C_R   0.702575 0.499505 0.073475 -0.079982
C23   C     C_R   0.024641 0.495250 0.320027 0.023798
C24   C     C_R   0.054721 0.496177 0.695062 0.047022
H15   H     H_    0.334927 0.064272 0.860921 0.066188
H16   H     H_    0.732945 0.909236 0.251070 0.111079
C25   C     C_R   0.921214 0.847751 0.829341 -0.210536
C26   C     C_R   0.828573 0.958956 0.917814 -0.219981
C27   C     C_R   0.163509 0.987608 0.758520 -0.069903
C28   C     C_R   0.858936 0.961303 0.211443 -0.045996
H17   H     H_    0.167690 0.954521 0.684805 0.088776
H18   H     H_    0.919682 0.021433 0.293699 0.086692
Ni1   Ni    Ni4+2 0.869690 0.369690 0.000000 0.204200
Ni2   Ni    Ni4+2 0.130310 0.630310 0.000000 0.207639
Ni3   Ni    Ni4+2 0.001390 0.369680 0.869810 0.258099
Ni4   Ni    Ni4+2 0.998610 0.630320 0.130190 0.291071
C29   C     C_R   0.063441 0.965304 0.754391 -0.154109
C30   C     C_R   0.884888 0.948144 0.128781 -0.137058
H19   H     H_    0.325290 0.137123 0.030055 0.084746
H20   H     H_    0.593214 0.777657 0.063880 0.099946
H21   H     H_    0.552708 0.134512 0.071095 0.091362
H22   H     H_    0.503390 0.864358 0.983701 0.100663
C31   C     C_R   0.672219 0.304082 0.185721 -0.124280
C32   C     C_R   0.392175 0.691435 0.872333 -0.128905
H23   H     H_    0.622413 0.336204 0.153261 0.111371
H24   H     H_    0.428340 0.663787 0.924103 0.108042
C33   C     C_R   0.775746 0.376431 0.273942 -0.116261
C34   C     C_R   0.301635 0.613606 0.772095 -0.131707
H25   H     H_    0.805384 0.464459 0.308897 0.119657
H26   H     H_    0.269871 0.527130 0.748084 0.122135
C35   C     C_R   0.840630 0.334953 0.316606 0.113606
C36   C     C_R   0.250005 0.647465 0.705047 0.115320
C37   C     C_R   0.799679 0.220319 0.270936 -0.185672
C38   C     C_R   0.293354 0.760216 0.737976 -0.170304
H27   H     H_    0.848190 0.186894 0.303404 0.109729
H28   H     H_    0.254338 0.788200 0.687907 0.107755
C39   C     C_R   0.696420 0.148396 0.182265 -0.110861
C40   C     C_R   0.385094 0.837887 0.837942 -0.107034
H29   H     H_    0.665708 0.060256 0.146822 0.109219
H30   H     H_    0.417353 0.924738 0.863783 0.095836
C41   C     C_R   0.632772 0.190250 0.139583 -0.105555
C42   C     C_R   0.433838 0.803652 0.905540 -0.100912
C43   C     C_R   0.964697 0.410159 0.504496 -0.247011
C44   C     C_R   0.134244 0.564651 0.509193 -0.250342
H31   H     H_    0.896654 0.353456 0.503259 0.130682
H32   H     H_    0.199929 0.622773 0.508991 0.130352
C45   C     C_R   0.059669 0.489092 0.600664 0.068963
C46   C     C_R   0.036434 0.489302 0.414336 0.078528
C47   C     C_R   0.147050 0.565818 0.604183 0.025066
C48   C     C_R   0.950204 0.410857 0.411273 0.018907
H33   H     H_    0.990768 0.911092 0.677241 0.105296
H34   H     H_    0.966004 0.999419 0.147791 0.107106
H35   H     H_    0.430077 0.383632 0.129399 0.130510
H36   H     H_    0.600154 0.605993 0.997340 0.128897
H37   H     H_    0.149108 0.097598 0.023868 0.100868
H38   H     H_    0.636324 0.753289 0.914384 0.129722
C49   C     C_R   0.056924 0.005797 0.849831 0.102485
C50   C     C_R   0.805499 0.871542 0.021079 0.091617
C51   C     C_R   0.252275 0.089966 0.953162 -0.045655
C52   C     C_R   0.674328 0.823807 0.080782 -0.145603
H39   H     H_    0.063662 0.121215 0.469514 0.089574
H40   H     H_    0.948042 0.006676 0.570847 0.114233
C53   C     C_R   0.152573 0.093690 0.384396 -0.093283
C54   C     C_R   0.818299 0.987445 0.608941 -0.137828
H41   H     H_    0.112127 0.112557 0.325761 0.092417
H42   H     H_    0.848869 0.963866 0.667024 0.116408
C55   C     C_R   0.234927 0.068421 0.381448 -0.117864
C56   C     C_R   0.723665 0.995414 0.589427 -0.125732
H43   H     H_    0.257647 0.068207 0.320364 0.105167
H44   H     H_    0.682635 0.979166 0.633865 0.115580
C57   C     C_R   0.291966 0.050412 0.461262 0.112769
C58   C     C_R   0.683395 0.026305 0.514171 0.125684
C59   C     C_R   0.262949 0.053970 0.541528 -0.195642
C60   C     C_R   0.737507 0.046714 0.457095 -0.228283
H45   H     H_    0.307047 0.041570 0.604511 0.111822
H46   H     H_    0.707598 0.071007 0.399043 0.121591
C61   C     C_R   0.179389 0.077393 0.543016 -0.063368
C62   C     C_R   0.833514 0.041060 0.478863 -0.101740
H47   H     H_    0.158528 0.082024 0.605972 0.144101
H48   H     H_    0.877089 0.060761 0.437775 0.095325
C63   C     C_R   0.125321 0.098805 0.465451 -0.049390
C64   C     C_R   0.873796 0.011160 0.554446 0.001167
C65   C     C_R   0.487679 0.127701 0.562343 -0.244799
C66   C     C_R   0.492744 0.962187 0.405676 -0.238538
H49   H     H_    0.487495 0.193768 0.623552 0.136822
H50   H     H_    0.495341 0.895392 0.347920 0.130601
C67   C     C_R   0.583958 0.125580 0.576724 0.067941
C68   C     C_R   0.394964 0.960879 0.392343 0.065064
C69   C     C_R   0.586948 0.041549 0.498229 0.019141
C70   C     C_R   0.391488 0.044405 0.470841 0.017991
C71   C     C_R   0.257716 0.048573 0.857815 -0.012412
C72   C     C_R   0.753685 0.898983 0.187443 -0.015248
C73   C     C_R   0.831230 0.873558 0.935625 0.024008
C74   C     C_R   0.953390 0.954942 0.848376 -0.016881
H51   H     H_    0.952274 0.800804 0.787831 0.125175
H52   H     H_    0.783255 0.995907 0.944594 0.126120
C75   C     C_R   0.152517 0.069607 0.949285 -0.108224
C76   C     C_R   0.699450 0.809752 0.997138 -0.193241
C77   C     C_R   0.886961 0.821353 0.896898 0.066772
C78   C     C_R   0.906691 0.013721 0.896225 0.055838
C79   C     C_3   0.496894 0.393332 0.008598 -0.095272
C80   C     C_3   0.536926 0.600903 0.122493 -0.095820
C81   C     C_3   0.451608 0.455429 0.960801 -0.099256
C82   C     C_3   0.583410 0.538856 0.170697 -0.104915
H53   H     H_    0.396492 0.422376 0.874642 0.140770
H54   H     H_    0.639580 0.571766 0.256441 0.142968
H55   H     H_    0.480429 0.307396 0.962212 0.121160
H56   H     H_    0.552702 0.686372 0.169673 0.114597
C83   C     C_3   0.426964 0.496746 0.052938 0.193071
C84   C     C_3   0.607009 0.497369 0.077567 0.179439
C85   C     C_3   0.470841 0.434768 0.101203 -0.175182
C86   C     C_3   0.561791 0.558883 0.029694 -0.192718
N17   N     N_R   0.200891 0.301616 0.874527 0.210901
O1    O     O_R   0.261011 0.256586 0.894810 -0.455802
O2    O     O_R   0.126561 0.258346 0.776029 -0.472518
N18   N     N_R   0.842451 0.698028 0.195893 0.222954
O3    O     O_R   0.790843 0.724090 0.246705 -0.441691
O4    O     O_R   0.943756 0.766282 0.237003 -0.442344

loop_
_geom_bond_atom_site_label_1
_geom_bond_atom_site_label_2
_geom_bond_distance
_ccdc_geom_bond_type
C10   C22   1.361521 A    
C37   C39   1.398138 A    
C22   C84   1.436316 S    
H15   C71   1.082434 S    
C39   C41   1.397765 A    
N7    Ni4   1.875301 S    
C31   H23   1.080565 S    
C36   C47   1.480821 S    
C82   C85   1.552277 S    
C2    H2    1.076312 S    
N17   O1    1.295097 A    
C20   C67   1.427995 S    
C51   C75   1.399142 A    
C65   C67   1.392464 A    
C12   C24   1.377539 A    
C32   H24   1.079675 S    
C1    N1    1.333054 A    
C79   H55   1.109974 S    
C57   C70   1.476794 S    
C13   H11   1.080209 S    
C10   H8    1.081087 S    
C58   C69   1.480264 S    
N16   Ni4   1.874395 S    
C25   H51   1.081512 S    
C55   H43   1.083208 S    
H36   C86   1.107280 S    
H22   C42   1.081048 S    
C34   H26   1.083455 S    
C59   H45   1.083512 S    
N7    N11   1.380168 A    
C44   C46   1.396846 A    
N2    Ni2   1.847611 S    
N5    Ni3   1.896714 S    
C11   N11   1.314337 A    
H38   C76   1.083109 S    
N1    Ni1   1.847612 S    
C28   H18   1.076862 S    
C56   C58   1.403651 A    
C32   C42   1.399176 A    
C52   C72   1.392559 A    
C55   C57   1.402560 A    
C74   C78   1.421002 A    
H20   C52   1.075973 S    
C28   C72   1.393058 A    
C5    C21   1.386289 A    
H19   C51   1.082505 S    
C26   C73   1.389399 A    
C6    C22   1.379024 A    
C9    C21   1.378093 A    
C40   C42   1.396940 A    
C79   C85   1.545847 S    
C25   C77   1.398977 A    
C13   C19   1.377946 A    
C83   C85   1.529537 S    
C24   C45   1.426279 S    
C5    N17   1.428858 S    
C30   H34   1.082472 S    
C9    N9    1.324490 A    
C6    N18   1.437835 S    
C53   C63   1.398807 A    
C82   H54   1.109902 S    
N6    N10   1.380287 A    
C4    N4    1.329067 A    
C60   C62   1.397640 A    
C27   C29   1.398778 A    
C79   C81   1.537020 S    
C80   C83   1.531465 S    
C43   H31   1.085999 S    
C19   C68   1.432976 S    
N18   O4    1.300654 A    
C15   H13   1.075054 S    
C2    N2    1.334860 A    
C16   H14   1.071545 S    
C52   C76   1.400229 A    
C62   C64   1.396756 A    
C35   C37   1.406655 A    
C3    N3    1.318968 A    
C56   H44   1.083257 S    
C33   H25   1.083257 S    
N8    N12   1.380166 A    
C80   H56   1.109656 S    
H35   C85   1.110122 S    
C27   H17   1.082277 S    
C12   N12   1.331730 A    
C12   H10   1.080269 S    
N3    N13   1.395338 A    
C14   N14   1.315724 A    
C31   C41   1.397945 A    
N3    Ni2   1.892018 S    
C45   C47   1.406850 A    
C66   C69   1.367030 A    
N4    Ni1   1.892019 S    
C1    C17   1.393633 A    
C66   H50   1.085333 S    
C2    C18   1.403118 A    
N1    N15   1.395213 A    
C7    N7    1.329568 A    
C1    H1    1.078449 S    
C84   C86   1.529418 S    
N4    N14   1.395339 A    
C13   N13   1.333376 A    
C61   H47   1.082202 S    
N8    Ni3   1.875302 S    
C82   C84   1.528706 S    
C49   C75   1.406542 A    
C34   C36   1.404573 A    
C43   C45   1.393391 A    
N5    N9    1.380288 A    
C17   C78   1.473692 S    
C33   C35   1.405500 A    
N11   Ni1   1.891967 S    
N12   Ni2   1.891969 S    
C15   C17   1.376249 A    
H21   C41   1.082678 S    
C16   C18   1.383555 A    
H40   C64   1.082109 S    
C44   H32   1.084977 S    
C67   C69   1.409174 A    
C43   C48   1.364900 A    
C3    C19   1.373633 A    
C54   C56   1.396423 A    
C68   C70   1.409002 A    
C53   C55   1.398248 A    
H39   C63   1.080891 S    
C37   H27   1.083428 S    
C40   H30   1.082461 S    
C46   C48   1.412506 A    
N14   Ni3   1.897161 S    
C5    N5    1.320929 A    
C16   N16   1.335229 A    
N18   O3    1.299419 A    
N13   Ni4   1.897164 S    
C6    N6    1.335921 A    
C81   H53   1.110703 S    
C58   C60   1.404312 A    
C7    C23   1.386301 A    
C59   C61   1.396656 A    
C14   C20   1.374545 A    
C81   C83   1.525642 S    
C29   H33   1.082175 S    
C60   H46   1.083389 S    
C3    H3    1.082262 S    
C15   N15   1.337673 A    
N2    N16   1.395214 A    
C25   C74   1.391833 A    
N17   O2    1.301266 A    
C8    N8    1.316245 A    
C54   C64   1.397603 A    
C10   N10   1.321318 A    
C80   C82   1.548192 S    
C62   H48   1.079485 S    
C66   C68   1.398229 A    
C54   H42   1.078442 S    
C26   H52   1.080406 S    
C35   C48   1.486167 S    
C23   C46   1.422311 S    
C36   C38   1.406508 A    
C81   C86   1.528931 S    
C28   C30   1.394934 A    
C79   C84   1.532043 S    
C14   H12   1.076575 S    
H16   C72   1.080533 S    
C11   H9    1.078344 S    
N15   Ni3   1.874395 S    
C29   C49   1.406684 A    
C38   C40   1.397733 A    
C11   C23   1.370869 A    
C44   C47   1.384831 A    
C21   C83   1.435203 S    
C7    H5    1.080891 S    
C4    C20   1.387165 A    
C8    H6    1.082473 S    
C9    H7    1.079904 S    
C61   C63   1.395294 A    
C57   C59   1.406892 A    
N9    Ni2   1.848280 S    
C8    C24   1.365059 A    
N10   Ni1   1.848278 S    
C73   C77   1.421337 A    
N6    Ni4   1.896712 S    
C27   C71   1.397274 A    
C65   C70   1.385223 A    
C4    H4    1.081221 S    
C32   C34   1.393465 A    
C65   H49   1.085499 S    
C39   H29   1.082401 S    
C31   C33   1.398573 A    
C38   H28   1.083271 S    
C51   C71   1.398101 A    
C30   C50   1.404976 A    
C53   H41   1.080616 S    
C49   C74   1.480533 S    
C18   C77   1.479695 S    
C50   C73   1.472350 S    
C80   C86   1.537957 S    
C26   C78   1.401308 A    
C50   C76   1.401657 A    
H37   C75   1.083337 S    
