data_mof_unit_49661.cif
_audit_creation_date              2012-12-10T18:33:44-0500
_audit_creation_method            fapswitch 2.2
_symmetry_space_group_name_H-M    P1
_symmetry_Int_Tables_number       1
_space_group_crystal_system       triclinic
_cell_length_a                    10.500559
_cell_length_b                    15.036485
_cell_length_c                    15.513045
_cell_angle_alpha                 81.538216
_cell_angle_beta                  90.318803
_cell_angle_gamma                 105.131492
_cell_volume                      2337.33305656

loop_
_atom_site_label
_atom_site_type_symbol
_atom_type_description
_atom_site_fract_x
_atom_site_fract_y
_atom_site_fract_z
_atom_type_partial_charge
C1    C     C_R   0.481202 0.441323 0.661975 0.837164
C2    C     C_R   0.565987 0.502883 0.038959 0.024085
C3    C     C_R   0.610630 0.422538 0.066415 -0.245800
C4    C     C_R   0.518151 0.612199 0.919818 -0.250067
C5    C     C_R   0.611379 0.356170 0.011697 0.074765
C6    C     C_R   0.511065 0.676334 0.975510 0.081343
C7    C     C_R   0.719069 0.849571 0.626579 -0.051431
C8    C     C_R   0.291715 0.154371 0.366312 0.018613
C9    C     C_R   0.682811 0.758188 0.603317 0.336442
C10   C     C_R   0.329134 0.245670 0.388721 0.301676
C11   C     C_R   0.504244 0.792281 0.520599 -0.159102
C12   C     C_R   0.519601 0.558640 0.338020 0.858556
C13   C     C_R   0.491528 0.206958 0.482962 -0.157565
C14   C     C_R   0.549440 0.887662 0.528280 -0.026299
C15   C     C_R   0.451757 0.112661 0.470809 -0.040814
C16   C     C_R   0.742721 0.501577 0.499663 0.843107
C17   C     C_R   0.256991 0.497894 0.502062 0.852704
C18   C     C_R   0.651733 0.914474 0.586274 0.046725
C19   C     C_R   0.356811 0.088086 0.407043 0.064985
C20   C     C_R   0.493132 0.957093 0.482584 0.027293
C21   C     C_R   0.510607 0.043939 0.515162 0.024157
C22   C     C_R   0.592298 0.059589 0.587964 0.104884
C23   C     C_R   0.475719 0.464746 0.813397 -0.259302
C24   C     C_R   0.421996 0.944107 0.405236 0.086622
C25   C     C_R   0.680123 0.005437 0.606661 -0.226951
C26   C     C_R   0.340195 0.001534 0.378584 -0.217196
C27   C     C_3   0.939064 0.456152 0.578840 -0.195213
C28   C     C_3   0.059922 0.543412 0.425834 -0.202257
C29   C     C_3   0.058890 0.542503 0.567624 -0.153274
C30   C     C_3   0.940481 0.456919 0.437059 -0.165910
C31   C     C_3   0.120792 0.496261 0.503352 0.029032
C32   C     C_3   0.878494 0.503051 0.501106 0.040176
C33   C     C_3   0.003666 0.409957 0.514926 -0.153679
C34   C     C_R   0.548644 0.536382 0.187155 -0.262682
C35   C     C_3   0.995373 0.589507 0.489915 -0.140683
C36   C     C_R   0.486918 0.406392 0.754213 -0.055606
C37   C     C_R   0.534196 0.595392 0.245237 -0.055309
C38   C     C_R   0.560392 0.306045 0.868173 -0.227969
C39   C     C_R   0.528139 0.715048 0.124710 -0.228361
C40   C     C_R   0.525424 0.325160 0.782075 -0.205403
C41   C     C_R   0.529811 0.686343 0.214017 -0.201298
C42   C     C_3   0.145523 0.317866 0.357505 -0.757758
C43   C     C_3   0.752204 0.629186 0.695007 -0.686014
C44   C     C_3   0.825274 0.884116 0.692314 -0.439059
C45   C     C_R   0.525924 0.453787 0.896845 0.088405
C46   C     C_3   0.885094 0.817136 0.752706 -0.349656
C47   C     C_3   0.972160 0.867367 0.819457 -0.912754
C48   C     C_3   0.188880 0.131070 0.296795 -0.400112
C49   C     C_3   0.047561 0.088156 0.335875 -0.326060
C50   C     C_3   0.020185 0.985451 0.374920 -0.860611
C51   C     C_3   0.582494 0.125417 0.652564 -0.428349
C52   C     C_3   0.578818 0.080911 0.749453 -0.341217
C53   C     C_3   0.706216 0.119534 0.795485 -0.914039
C54   C     C_3   0.443114 0.879409 0.342417 -0.423245
C55   C     C_3   0.478381 0.929601 0.247626 -0.337138
C56   C     C_R   0.552937 0.564598 0.096977 0.088383
C57   C     C_3   0.367482 0.899946 0.185093 -0.910639
C58   C     C_3   0.660319 0.269761 0.042730 -0.421971
C59   C     C_3   0.708615 0.259492 0.136619 -0.341931
C60   C     C_3   0.756820 0.171622 0.158206 -0.913878
C61   C     C_3   0.470214 0.765481 0.942350 -0.426416
C62   C     C_3   0.420563 0.774828 0.848672 -0.339647
C63   C     C_3   0.347570 0.851002 0.832997 -0.911241
C64   C     C_R   0.565473 0.371026 0.926272 0.120369
C65   C     C_R   0.531808 0.653092 0.065094 0.123388
C66   C     C_R   0.535903 0.523041 0.951196 0.026791
H1    H     H_    0.111255 0.576911 0.621174 0.134550
H2    H     H_    0.431362 0.520727 0.791007 0.143488
H3    H     H_    0.521766 0.733745 0.258547 0.162889
H4    H     H_    0.533520 0.278591 0.736703 0.162109
H5    H     H_    0.588383 0.241970 0.887196 0.144387
H6    H     H_    0.521257 0.785314 0.103408 0.143242
H7    H     H_    0.651177 0.413447 0.129754 0.140541
H8    H     H_    0.513878 0.634204 0.851124 0.137011
H9    H     H_    0.760717 0.032040 0.646826 0.158050
H10   H     H_    0.274491 0.981240 0.327707 0.178882
H11   H     H_    0.313752 0.337631 0.277562 0.200717
H12   H     H_    0.888365 0.422403 0.383477 0.137815
H13   H     H_    0.081710 0.286479 0.306810 0.205381
H14   H     H_    0.138618 0.390661 0.352863 0.248269
H15   H     H_    0.108600 0.279549 0.423022 0.230589
H16   H     H_    0.867011 0.729666 0.595762 0.193621
H17   H     H_    0.841907 0.638611 0.734156 0.183368
H18   H     H_    0.739865 0.559608 0.675723 0.250927
H19   H     H_    0.666761 0.629787 0.736394 0.227399
H20   H     H_    0.055847 0.923025 0.786051 0.266209
H21   H     H_    0.913926 0.898593 0.860166 0.263348
H22   H     H_    0.012348 0.816606 0.863106 0.252236
H23   H     H_    0.577995 0.234662 0.517646 0.155868
H24   H     H_    0.804545 0.762290 0.789880 0.243515
H25   H     H_    0.949822 0.788728 0.714554 0.232701
H26   H     H_    0.907533 0.938745 0.655956 0.205381
H27   H     H_    0.777599 0.916392 0.738678 0.217394
H28   H     H_    0.039719 0.943827 0.325453 0.248880
H29   H     H_    0.081138 0.976598 0.432587 0.266128
H30   H     H_    0.914763 0.958673 0.396806 0.242952
H31   H     H_    0.026757 0.127177 0.387104 0.222379
H32   H     H_    0.976753 0.094338 0.283238 0.205041
H33   H     H_    0.188628 0.194609 0.250768 0.166244
H34   H     H_    0.415787 0.765852 0.486491 0.155714
H35   H     H_    0.215076 0.087715 0.251545 0.182804
H36   H     H_    0.790699 0.100279 0.767968 0.257935
H37   H     H_    0.729325 0.196636 0.788951 0.258391
H38   H     H_    0.694016 0.090334 0.865896 0.245623
H39   H     H_    0.496173 0.095063 0.784939 0.207118
H40   H     H_    0.559832 0.004138 0.755734 0.240857
H41   H     H_    0.666769 0.188785 0.639728 0.201732
H42   H     H_    0.489033 0.146532 0.643824 0.182884
H43   H     H_    0.341629 0.823296 0.186288 0.261207
H44   H     H_    0.278008 0.920272 0.202728 0.256660
H45   H     H_    0.885026 0.421193 0.641147 0.123930
H46   H     H_    0.400625 0.934345 0.117675 0.244766
H47   H     H_    0.504177 0.006559 0.244408 0.232302
H48   H     H_    0.567487 0.912758 0.223293 0.204417
H49   H     H_    0.527734 0.850688 0.361827 0.183643
H50   H     H_    0.353600 0.819908 0.344854 0.202589
H51   H     H_    0.678227 0.109198 0.147279 0.259294
H52   H     H_    0.783841 0.163176 0.227675 0.245516
H53   H     H_    0.845169 0.176929 0.116725 0.261752
H54   H     H_    0.792093 0.320387 0.144694 0.220540
H55   H     H_    0.626448 0.255027 0.183363 0.219774
H56   H     H_    0.113558 0.578439 0.363420 0.127439
H57   H     H_    0.578202 0.207039 0.037481 0.198731
H58   H     H_    0.743035 0.270261 0.998025 0.203761
H59   H     H_    0.250210 0.826875 0.868357 0.262980
H60   H     H_    0.404470 0.915136 0.857117 0.257669
H61   H     H_    0.331449 0.867277 0.762245 0.257172
H62   H     H_    0.505834 0.792096 0.801365 0.221798
H63   H     H_    0.350196 0.708634 0.837100 0.225387
H64   H     H_    0.388017 0.767947 0.986128 0.211832
H65   H     H_    0.554721 0.826655 0.947751 0.192301
H66   H     H_    0.009142 0.336570 0.527377 0.132719
H67   H     H_    0.987848 0.662576 0.479693 0.133029
H68   H     H_    0.547968 0.465894 0.213777 0.149415
N1    N     N_R   0.574200 0.731700 0.552740 -0.120328
N2    N     N_R   0.425800 0.268300 0.447260 -0.122448
N3    N     N_2   0.281656 0.318745 0.341990 -0.252238
N4    N     N_2   0.770870 0.699996 0.618173 -0.266227
O1    O     O_R   0.462600 0.383110 0.605620 -0.615351
O2    O     O_R   0.537400 0.616890 0.394380 -0.618009
O3    O     O_R   0.510210 0.531900 0.639510 -0.606962
O4    O     O_R   0.489790 0.468100 0.360490 -0.603711
O5    O     O_R   0.662240 0.425610 0.483080 -0.627663
O6    O     O_R   0.337760 0.574390 0.516920 -0.625649
O7    O     O_R   0.709860 0.574400 0.516970 -0.598572
O8    O     O_R   0.290140 0.425600 0.483030 -0.591530
Zn1   Zn    Zn3+2 0.468210 0.400660 0.477370 0.941314
Zn2   Zn    Zn3+2 0.531790 0.599340 0.522630 0.936427

loop_
_geom_bond_atom_site_label_1
_geom_bond_atom_site_label_2
_ccdc_geom_bond_type
C59   H55   S    
C30   C32   S    
C34   C56   A    
C59   H54   S    
C23   C45   A    
C27   C29   S    
C34   C37   A    
C43   H17   S    
C32   C35   S    
C14   C18   A    
O6    Zn2   S    
C35   H67   S    
C39   C41   A    
C27   C33   S    
C15   C19   A    
C42   H15   S    
O1    Zn1   S    
C58   H57   S    
C40   H4    S    
C5    C58   S    
C60   H53   S    
C17   O6    A    
C6    C61   S    
C38   C40   A    
C10   N2    A    
C42   H14   S    
C11   C14   A    
C28   H56   S    
C50   H29   S    
C57   H46   S    
C34   H68   S    
C53   H38   S    
C24   C54   S    
C56   C65   A    
C43   N4    S    
C46   C47   S    
C12   C37   S    
C49   C50   S    
C19   C26   A    
C44   H27   S    
O3    Zn2   S    
C49   H32   S    
C29   H1    S    
C6    C65   A    
C57   H43   S    
C20   C24   A    
C28   C35   S    
C51   H42   S    
C22   C25   A    
C54   H50   S    
C26   H10   S    
C39   H6    S    
C31   C33   S    
C60   H52   S    
C10   N3    S    
C4    H8    S    
C1    O1    A    
C52   H40   S    
C59   C60   S    
C21   C22   A    
C42   N3    S    
C43   H18   S    
C39   C65   A    
C62   H63   S    
O2    Zn2   S    
C38   H5    S    
C18   C25   A    
C44   C46   S    
C38   C64   A    
C8    C19   A    
C42   H13   S    
C51   C52   S    
C43   H19   S    
C47   H20   S    
C14   C20   A    
C36   C40   A    
C16   O5    A    
C4    C6    A    
C50   H28   S    
C46   H25   S    
C55   H47   S    
C3    C5    A    
C58   C59   S    
C49   H31   S    
C5    C64   A    
C11   H34   S    
C25   H9    S    
C47   H21   S    
C23   H2    S    
O5    Zn1   S    
C8    C48   S    
C62   C63   S    
C11   N1    A    
C9    N4    S    
C57   H44   S    
C53   H36   S    
C7    C18   A    
C54   H49   S    
C12   O2    A    
C60   H51   S    
C7    C44   S    
C63   H59   S    
C61   H64   S    
C9    N1    A    
C33   H66   S    
C51   H41   S    
C48   C49   S    
C52   H39   S    
N1    Zn2   S    
H11   N3    S    
C13   C15   A    
C17   C31   S    
C13   N2    A    
C62   H62   S    
O7    Zn2   S    
C52   C53   S    
C41   H3    S    
O8    Zn1   S    
C7    C9    A    
C48   H33   S    
C54   C55   S    
C30   C33   S    
C13   H23   S    
C27   C32   S    
O4    Zn1   S    
C28   C31   S    
C24   C26   A    
C2    C66   A    
C44   H26   S    
C46   H24   S    
C55   H48   S    
C16   C32   S    
C29   C35   S    
C45   C64   A    
C58   H58   S    
C47   H22   S    
C55   C57   S    
C17   O8    A    
C29   C31   S    
C2    C56   A    
H16   N4    S    
C4    C66   A    
C50   H30   S    
C53   H37   S    
C48   H35   S    
C28   C30   S    
C12   O4    A    
C2    C3    A    
C37   C41   A    
C61   C62   S    
C3    H7    S    
N2    Zn1   S    
C1    O3    A    
C61   H65   S    
C27   H45   S    
C30   H12   S    
C63   H60   S    
C15   C21   A    
C20   C21   A    
C8    C10   A    
C23   C36   A    
C45   C66   A    
C16   O7    A    
C63   H61   S    
C1    C36   S    
C22   C51   S    
