data_mof_unit_43659.cif
_audit_creation_date              2013-03-05T16:00:23-0500
_audit_creation_method            fapswitch 2.2
_symmetry_space_group_name_H-M    P1
_symmetry_Int_Tables_number       1
_space_group_crystal_system       triclinic
_cell_length_a                    8.207331
_cell_length_b                    12.811456
_cell_length_c                    26.886154
_cell_angle_alpha                 96.888048
_cell_angle_beta                  92.76358
_cell_angle_gamma                 80.989138
_cell_volume                      2770.73081715

loop_
_atom_site_label
_atom_site_type_symbol
_atom_site_description
_atom_site_fract_x
_atom_site_fract_y
_atom_site_fract_z
_atom_type_partial_charge
P1    P     P_3+3 0.072810 0.589830 0.610360 0.506360
O1    O     O_2   0.907040 0.557650 0.617910 -0.363975
O2    O     O_3   0.139040 0.557570 0.557730 -0.400835
O3    O     O_3   0.684960 0.360550 0.588460 -0.399469
O4    O     O_2   0.840664 0.420710 0.673118 -0.386853
O5    O     O_3   0.039096 0.728429 0.623480 -0.537907
O6    O     O_3   0.686458 0.260402 0.677503 -0.511585
H1    H     H_    0.770436 0.173934 0.611060 0.120080
C1    C     C_3   0.674273 0.074189 0.657028 -0.130208
H2    H     H_    0.670887 0.012333 0.624392 0.087416
H3    H     H_    0.791033 0.055020 0.678982 0.140213
P2    P     P_3+3 0.661990 0.251250 0.462170 0.529562
P3    P     P_3+3 0.144375 0.168229 0.565934 0.475984
O7    O     O_2   0.841490 0.235060 0.476710 -0.358256
O8    O     O_3   0.099640 0.305100 0.564190 -0.396985
O9    O     O_2   0.006989 0.118089 0.534983 -0.383775
O10   O     O_3   0.659996 0.217548 0.397232 -0.519225
O11   O     O_3   0.122457 0.139088 0.627075 -0.522743
C2    C     C_3   0.160589 0.224473 0.661272 0.399467
H4    H     H_    0.091028 0.301162 0.652205 0.129699
H5    H     H_    0.294384 0.229308 0.661470 0.081279
C3    C     C_3   0.112089 0.209036 0.713504 -0.718370
H6    H     H_    0.981229 0.196898 0.713031 0.254091
H7    H     H_    0.190089 0.138841 0.727120 0.290961
C4    C     C_3   0.227136 0.231754 0.338878 0.126249
H8    H     H_    0.142866 0.259164 0.307833 0.070953
H9    H     H_    0.349658 0.256711 0.335690 0.113930
C5    C     C_3   0.249414 0.110793 0.333401 0.003909
H10   H     H_    0.313656 0.080266 0.298006 0.108012
H11   H     H_    0.126847 0.083889 0.331002 0.154698
Ba1   Ba    Ba6+2 0.859560 0.448380 0.523550 1.615062
C6    C     C_3   0.984537 0.775975 0.580226 0.364739
H12   H     H_    0.853253 0.769265 0.573168 0.069945
H13   H     H_    0.055723 0.740625 0.546666 0.140703
C7    C     C_3   0.004109 0.892529 0.589451 -0.865570
H14   H     H_    0.949598 0.928153 0.625524 0.248573
H15   H     H_    0.942212 0.935806 0.558781 0.217681
H16   H     H_    0.136903 0.900232 0.591751 0.278549
C8    C     C_3   0.716984 0.295058 0.373568 0.381350
H17   H     H_    0.833176 0.315811 0.391666 0.116300
H18   H     H_    0.620916 0.366460 0.374702 0.092198
C9    C     C_3   0.750294 0.249656 0.319390 -0.926926
H19   H     H_    0.834774 0.172855 0.318375 0.291627
H20   H     H_    0.809316 0.304427 0.299851 0.217434
H21   H     H_    0.632946 0.236101 0.299165 0.256135
P4    P     P_3+3 0.116900 0.410080 0.389630 0.511445
O12   O     O_2   0.282660 0.442310 0.382060 -0.367123
O13   O     O_3   0.050670 0.442340 0.442260 -0.349810
O14   O     O_3   0.504750 0.639360 0.411530 -0.336256
O15   O     O_3   0.160768 0.271504 0.385747 -0.504295
P5    P     P_3+3 0.053692 0.832722 0.432657 0.529167
O16   O     O_3   0.618400 0.630290 0.524520 -0.388250
O17   O     O_3   0.090070 0.694820 0.435810 -0.377386
O18   O     O_2   0.183602 0.881557 0.467488 -0.324508
O19   O     O_3   0.107156 0.853743 0.372715 -0.439213
Ba2   Ba    Ba6+2 0.330270 0.551530 0.476440 1.612125
P6    P     P_3+3 0.677190 0.382777 0.653730 0.479718
C10   C     C_3   0.667843 0.181625 0.637462 0.269375
H22   H     H_    0.547736 0.200988 0.617265 0.008081
O20   O     O_3   0.571310 0.369620 0.475470 -0.386433
C11   C     C_3   0.528449 0.729263 0.632049 0.163511
H23   H     H_    0.413220 0.693987 0.623997 0.086545
C12   C     C_3   0.532530 0.779329 0.686733 -0.067336
H24   H     H_    0.409573 0.826424 0.695531 0.183230
H25   H     H_    0.625637 0.834469 0.691772 0.177050
P7    P     P_3+3 0.534304 0.765266 0.538525 0.438506
O21   O     O_2   0.348200 0.764910 0.523260 -0.357937
O22   O     O_3   0.532913 0.811401 0.602455 -0.587012
H26   H     H_    0.126563 0.280837 0.739738 0.216660
C13   C     C_3   0.986277 0.820105 0.338648 0.187909
H27   H     H_    0.953981 0.742680 0.346730 0.020791
C14   C     C_3   0.048110 0.802133 0.285042 -0.047129
H28   H     H_    0.166290 0.746462 0.283327 0.182724
H29   H     H_    0.957481 0.763802 0.260153 0.095132
P8    P     P_3+3 0.504042 0.615181 0.345936 0.499958
C15   C     C_3   0.607566 0.777937 0.316979 0.317035
H30   H     H_    0.711942 0.715702 0.305117 0.051380
O23   O     O_2   0.342535 0.571359 0.330250 -0.383859
O24   O     O_3   0.461656 0.737278 0.321626 -0.466265
H31   H     H_    0.638409 0.821859 0.353466 0.100985
C16   C     C_3   0.579054 0.852735 0.276558 -0.679656
H32   H     H_    0.479900 0.918997 0.287461 0.275568
C17   C     C_R   0.039295 0.412242 0.179085 0.574585
O25   O     O_2   0.093478 0.336001 0.201482 -0.595013
N1    N     N_R   0.930341 0.495512 0.202392 -0.164762
C18   C     C_R   0.865444 0.580196 0.176082 0.515080
C19   C     C_2   0.726618 0.516270 0.268558 -0.216014
C20   C     C_3   0.684529 0.515734 0.322914 0.117160
C21   C     C_1   0.978639 0.473998 0.342210 0.245187
C22   C     C_2   0.018385 0.471349 0.294585 -0.258731
C23   C     C_2   0.886727 0.494951 0.254585 0.144975
C24   C     C_R   0.018830 0.498090 0.102033 -0.061157
C25   C     C_R   0.087228 0.413698 0.129227 -0.105901
C26   C     C_R   0.207998 0.334718 0.106961 -0.155338
C27   C     C_R   0.906937 0.581792 0.125727 -0.033220
C28   C     C_2   0.833820 0.523226 0.357556 -0.457585
H33   H     H_    0.146784 0.453851 0.284434 0.177277
H34   H     H_    0.271600 0.274194 0.128883 0.209687
C29   C     C_2   0.351308 0.474871 0.641145 -0.527716
C30   C     C_R   0.197387 0.408147 0.974776 0.064078
C31   C     C_R   0.042907 0.588831 0.974384 0.044810
C32   C     C_R   0.138957 0.497964 0.949082 0.096722
C33   C     C_R   0.268680 0.313971 0.945944 -0.104022
C34   C     C_R   0.303240 0.312562 0.895578 -0.068480
C35   C     C_R   0.261350 0.404050 0.871019 -0.061379
C36   C     C_R   0.175313 0.496280 0.897391 -0.068949
C37   C     C_R   0.124971 0.586595 0.872079 -0.090075
C38   C     C_R   0.164773 0.584488 0.821248 0.606255
N2    N     N_R   0.251918 0.493953 0.795792 -0.170667
C39   C     C_R   0.300060 0.404243 0.820295 0.509318
C40   C     C_2   0.454230 0.469490 0.729531 -0.036459
C41   C     C_3   0.498365 0.481123 0.676431 0.242574
C42   C     C_1   0.206738 0.522872 0.656942 0.305177
C43   C     C_2   0.165138 0.524514 0.704319 -0.213467
C44   C     C_2   0.294921 0.493943 0.743647 0.089287
O26   O     O_2   0.376222 0.324182 0.797893 -0.547398
C45   C     C_R   0.174416 0.413343 0.027570 -0.110163
C46   C     C_R   0.062636 0.499050 0.051210 0.078390
C47   C     C_R   0.995489 0.586413 0.024655 0.069128
C48   C     C_R   0.259077 0.336857 0.058111 0.298119
H35   H     H_    0.552387 0.451512 0.757162 0.169303
H36   H     H_    0.361831 0.238638 0.875724 0.187250
H37   H     H_    0.294348 0.238886 0.961302 0.165761
O27   O     O_2   0.772670 0.655143 0.196640 -0.624110
C49   C     C_R   0.839098 0.666064 0.098733 -0.051499
H38   H     H_    0.627092 0.528928 0.240832 0.171237
H39   H     H_    0.751319 0.731146 0.115687 0.178938
C50   C     C_R   0.996298 0.678748 0.948091 -0.192039
C51   C     C_R   0.036968 0.677597 0.898242 -0.037377
O28   O     O_2   0.123837 0.663995 0.799913 -0.532008
C52   C     C_R   0.881725 0.668321 0.049405 -0.188785
H40   H     H_    0.930864 0.752671 0.965366 0.141514
H41   H     H_    0.998137 0.748884 0.880105 0.179717
H42   H     H_    0.037676 0.547470 0.714833 0.221443
H43   H     H_    0.819947 0.734741 0.031249 0.141503
H44   H     H_    0.822850 0.569519 0.394147 0.160563
H45   H     H_    0.360753 0.423820 0.605764 0.168351
C53   C     C_R   0.755404 0.820457 0.475113 -0.474410
C54   C     C_R   0.430424 0.188146 0.518515 -0.418741
C55   C     C_R   0.409318 0.010210 0.534803 -0.146332
C56   C     C_R   0.345654 0.117728 0.538393 0.244888
C57   C     C_R   0.575979 0.152000 0.492966 0.291801
C58   C     C_R   0.639144 0.040865 0.486434 -0.022681
C59   C     C_R   0.554103 0.969544 0.508296 -0.052521
C60   C     C_R   0.614871 0.859211 0.502665 0.290094
C61   C     C_R   0.844558 0.889048 0.455319 0.123886
C62   C     C_R   0.784743 0.998482 0.459683 -0.107337
H46   H     H_    0.340882 0.959286 0.551616 0.184164
H47   H     H_    0.379409 0.271730 0.521433 0.171081
N3    N     N_R   0.344413 0.069507 0.375986 0.280864
O29   O     O_R   0.500437 0.031756 0.372038 -0.417561
O30   O     O_R   0.271186 0.065242 0.417382 -0.337760
N4    N     N_R   0.534899 0.074324 0.688528 0.262276
O31   O     O_R   0.530574 0.124696 0.733538 -0.311319
O32   O     O_R   0.419830 0.018018 0.673003 -0.417597
H48   H     H_    0.637132 0.667085 0.625220 0.143846
N5    N     N_R   0.575066 0.700234 0.721675 0.218647
O33   O     O_R   0.479424 0.700229 0.758868 -0.369791
O34   O     O_R   0.722630 0.645646 0.722127 -0.396199
H49   H     H_    0.875852 0.882316 0.341120 0.076306
N6    N     N_R   0.068174 0.901716 0.266512 0.269620
O35   O     O_R   0.200765 0.907192 0.243023 -0.387896
O36   O     O_R   0.942914 0.977263 0.264549 -0.414294
H50   H     H_    0.692138 0.886041 0.270979 0.222365
H51   H     H_    0.542264 0.809354 0.240550 0.277711
N7    N     N_R   0.411404 0.271132 0.043469 0.226585
O37   O     O_R   0.446348 0.175160 0.056267 -0.374584
O38   O     O_R   0.526245 0.312738 0.024712 -0.381207
H52   H     H_    0.855634 0.048859 0.443198 0.186729
H53   H     H_    0.803297 0.736421 0.472677 0.153387

loop_
_geom_bond_atom_site_label_1
_geom_bond_atom_site_label_2
_geom_bond_distance
_ccdc_geom_bond_type
O5    C6    1.399369 S    
C19   C20   1.518854 S    
C12   H25   1.112432 S    
C5    N3    1.458949 S    
C31   C32   1.419066 A    
C19   C23   1.361279 D    
C40   H35   1.085877 S    
P7    O22   1.749285 S    
C7    H14   1.104904 S    
C15   O24   1.395160 S    
Ba1   O16   2.809821 S    
C37   C51   1.401521 A    
C33   H37   1.078725 S    
C50   C51   1.394546 A    
C55   H46   1.074938 S    
C20   C28   1.511087 S    
C16   H32   1.102609 S    
N1    C23   1.465945 S    
C48   N7    1.437078 S    
C8    H18   1.108649 S    
P4    C21   1.844873 S    
P5    O19   1.752625 S    
N1    C18   1.388476 Am   
C4    C5    1.521753 S    
C58   C62   1.423398 A    
N5    O33   1.300724 A    
P1    C42   1.828174 S    
P3    O11   1.752344 S    
C3    H7    1.108414 S    
C5    H10   1.109538 S    
C7    H15   1.107479 S    
C35   C39   1.415524 A    
O11   C2    1.406472 S    
C52   H43   1.077080 S    
C54   C57   1.393896 A    
P6    C41   1.853846 S    
C34   H36   1.083493 S    
C36   C37   1.408770 A    
C26   H34   1.083655 S    
C53   C60   1.392967 A    
C58   C59   1.426776 A    
C17   C25   1.418158 A    
P1    Ba1   3.373401 S    
C31   C50   1.415736 A    
C38   N2    1.386455 Am   
P1    O1    1.511496 D    
O10   C8    1.391157 S    
C11   C12   1.532938 S    
C24   C46   1.431540 A    
C4    O15   1.403323 S    
P7    C60   1.845129 S    
H1    C10   1.112426 S    
C46   C47   1.423611 A    
C26   C48   1.402415 A    
C2    H4    1.104082 S    
P2    O10   1.747468 S    
C47   C52   1.414664 A    
C14   N6    1.459159 S    
O14   P8    1.753473 S    
C13   H27   1.114001 S    
P3    C56   1.834144 S    
Ba1   Ba2   4.555005 S    
N4    O32   1.299878 A    
C1    H2    1.111955 S    
O7    Ba1   2.891423 S    
O6    C10   1.404531 S    
C38   O28   1.222216 D    
O3    Ba1   2.753643 S    
P7    O21   1.562929 D    
C1    N4    1.455410 S    
N5    O34   1.300505 A    
N7    O38   1.301726 A    
C9    H20   1.105646 S    
C50   H40   1.077166 S    
C34   C35   1.401955 A    
N6    O36   1.300692 A    
N6    O35   1.299526 A    
C8    C9    1.523245 S    
C3    H6    1.108314 S    
P4    O13   1.527119 S    
P1    O5    1.749066 S    
C31   C47   1.429616 A    
C6    C7    1.516413 S    
C15   H31   1.109637 S    
C2    C3    1.521477 S    
C55   C56   1.388254 A    
C14   H29   1.108956 S    
C45   C48   1.428969 A    
C8    H17   1.104765 S    
C59   C60   1.415926 A    
P5    C61   1.856200 S    
C10   H22   1.110054 S    
O8    Ba1   2.754350 S    
C54   H47   1.081988 S    
C24   C27   1.408252 A    
Ba2   O20   2.809252 S    
O1    Ba1   2.787749 S    
P1    O2    1.527114 S    
C9    H21   1.110253 S    
C6    H13   1.109298 S    
Ba1   O20   2.902757 S    
O3    P6    1.746396 S    
O2    Ba2   2.738282 S    
C49   C52   1.392555 A    
C17   O25   1.222134 D    
C37   C38   1.416545 A    
C7    H16   1.107762 S    
C30   C32   1.420256 A    
C43   H42   1.083045 S    
C25   C26   1.400887 A    
C15   H30   1.105751 S    
O2    Ba1   2.925122 S    
C1    H3    1.110654 S    
C42   C43   1.331458 D    
C51   H41   1.083553 S    
C27   C49   1.401094 A    
C17   N1    1.387530 Am   
O12   Ba2   2.788121 S    
P2    O7    1.494793 D    
Ba1   O13   2.737681 S    
P3    O8    1.740179 S    
P2    Ba1   3.428711 S    
C18   O27   1.221270 D    
N7    O37   1.301505 A    
C16   H50   1.103998 S    
N3    O30   1.300885 A    
C9    H19   1.109638 S    
C12   N5    1.455045 S    
O14   Ba2   2.753040 S    
C11   H48   1.105471 S    
C39   O26   1.221816 D    
O16   P7    1.761657 S    
C61   C62   1.403890 A    
O17   Ba2   2.754892 S    
O13   Ba2   2.925952 S    
P4    O12   1.511805 D    
C1    C10   1.523893 S    
C22   H33   1.083661 S    
C40   C41   1.519697 S    
C2    H5    1.109215 S    
N3    O29   1.300675 A    
C55   C59   1.410701 A    
C14   H28   1.109654 S    
C28   H44   1.086083 S    
C15   C16   1.519586 S    
C29   C42   1.312940 D    
C13   C14   1.530403 S    
C43   C44   1.505353 S    
C4    H9    1.111913 S    
Ba2   O21   2.891740 S    
C35   C36   1.408369 A    
P4    O15   1.746825 S    
O4    P6    1.544034 D    
P5    O18   1.541866 D    
C6    H12   1.099898 S    
C21   C28   1.315586 D    
C5    H11   1.109916 S    
C4    H8    1.112169 S    
C45   C46   1.422885 A    
C54   C56   1.389856 A    
C11   O22   1.399098 S    
C22   C23   1.509713 S    
C53   C61   1.393552 A    
C29   C41   1.504924 S    
C24   C25   1.406625 A    
P2    C57   1.841401 S    
C32   C36   1.432386 A    
C13   H49   1.108090 S    
C30   C33   1.413247 A    
C11   H23   1.111833 S    
P8    O23   1.540308 D    
O19   C13   1.400196 S    
C18   C27   1.415126 A    
N2    C44   1.462103 S    
C12   H24   1.111950 S    
P2    O20   1.588574 S    
O16   Ba2   2.901922 S    
P8    C20   1.873164 S    
P3    O9    1.544251 D    
P4    Ba2   3.373963 S    
C33   C34   1.394305 A    
C49   H39   1.083676 S    
C3    H26   1.108285 S    
C16   H51   1.110234 S    
C57   C58   1.429822 A    
C29   H45   1.086586 S    
C40   C44   1.357488 D    
C30   C45   1.433175 A    
P5    O17   1.756673 S    
C21   C22   1.331723 D    
N2    C39   1.387556 Am   
P8    O24   1.745837 S    
O6    P6    1.752337 S    
C19   H38   1.085366 S    
C62   H52   1.078232 S    
C53   H53   1.082091 S    
N4    O31   1.300690 A    
