data_mof_unit_41292.cif
_audit_creation_date              2013-03-05T15:55:56-0500
_audit_creation_method            fapswitch 2.2
_symmetry_space_group_name_H-M    P1
_symmetry_Int_Tables_number       1
_space_group_crystal_system       triclinic
_cell_length_a                    21.641492
_cell_length_b                    7.181363
_cell_length_c                    14.870731
_cell_angle_alpha                 89.902297
_cell_angle_beta                  105.847726
_cell_angle_gamma                 89.978665
_cell_volume                      2223.29219825

loop_
_atom_site_label
_atom_site_type_symbol
_atom_site_description
_atom_site_fract_x
_atom_site_fract_y
_atom_site_fract_z
_atom_type_partial_charge
O1    O     O_R   0.335860 0.638190 0.002110 -0.602540
O2    O     O_R   0.664140 0.361810 0.997890 -0.594041
O3    O     O_R   0.164140 0.138190 0.997890 -0.598380
O4    O     O_R   0.835860 0.861810 0.002110 -0.596424
O5    O     O_R   0.217530 0.305920 0.861960 -0.587200
O6    O     O_R   0.782470 0.694080 0.138040 -0.585383
O7    O     O_R   0.282470 0.805920 0.138040 -0.582111
O8    O     O_R   0.717530 0.194080 0.861960 -0.582827
C1    C     C_R   0.205819 0.476950 0.826088 1.178299
C2    C     C_R   0.794196 0.523077 0.173908 1.179566
C3    C     C_R   0.295056 0.976244 0.174060 1.162769
C4    C     C_R   0.705912 0.023148 0.825884 1.179094
O9    O     O_R   0.338690 0.308320 0.993240 -0.554391
O10   O     O_R   0.661310 0.691680 0.006760 -0.560328
O11   O     O_R   0.161310 0.808320 0.006760 -0.554893
O12   O     O_R   0.838690 0.191680 0.993240 -0.559794
O13   O     O_R   0.286170 0.140430 0.130100 -0.580678
O14   O     O_R   0.713830 0.859570 0.869900 -0.590531
O15   O     O_R   0.213830 0.640430 0.869900 -0.586878
O16   O     O_R   0.786170 0.359570 0.130100 -0.587271
C5    C     C_R   0.364619 0.477089 0.996189 1.029216
C6    C     C_R   0.635507 0.522954 0.004557 1.023540
C7    C     C_R   0.135391 0.976997 0.004089 1.023483
C8    C     C_R   0.864448 0.022812 0.995381 1.029231
O17   O     O_3   0.232630 0.472410 0.044750 -0.276771
O18   O     O_3   0.767370 0.527590 0.955250 -0.279164
O19   O     O_3   0.267370 0.972410 0.955250 -0.280830
O20   O     O_3   0.732630 0.027590 0.044750 -0.278516
V1    V     V_3+5 0.253220 0.196620 0.991700 1.327092
V2    V     V_3+5 0.746780 0.803380 0.008300 1.324488
V3    V     V_3+5 0.246780 0.696620 0.008300 1.325503
V4    V     V_3+5 0.753220 0.303380 0.991700 1.326946
C9    C     C_R   0.036282 0.846259 0.044547 0.412842
C10   C     C_R   0.962873 0.151006 0.952389 0.416938
C11   C     C_R   0.463062 0.350627 0.953028 0.412432
C12   C     C_R   0.537297 0.649564 0.049148 0.414154
C13   C     C_R   0.970366 0.859736 0.037571 -0.138328
C14   C     C_R   0.029021 0.138703 0.960250 -0.133761
C15   C     C_R   0.529026 0.363457 0.960179 -0.142741
C16   C     C_R   0.471287 0.636515 0.042341 -0.166355
H1    H     H_    0.948525 0.752716 0.069988 0.226766
H2    H     H_    0.050879 0.245410 0.927688 0.227604
H3    H     H_    0.550516 0.259197 0.925969 0.228207
H4    H     H_    0.449840 0.740382 0.077231 0.200261
C17   C     C_R   0.933070 0.011652 0.993622 -0.349411
C18   C     C_R   0.066465 0.987243 0.004757 -0.356538
C19   C     C_R   0.566793 0.512345 0.006208 -0.338705
C20   C     C_R   0.433483 0.487927 0.995646 -0.320919
C21   C     C_R   0.677023 0.012498 0.724721 -0.584891
C22   C     C_R   0.324020 0.978875 0.275485 -0.586596
C23   C     C_R   0.823879 0.514895 0.274616 -0.585788
C24   C     C_R   0.176220 0.485353 0.725356 -0.589464
C25   C     C_R   0.690194 0.975443 0.569545 0.717418
C26   C     C_R   0.313959 0.902701 0.429244 0.708860
C27   C     C_R   0.811747 0.535606 0.430819 0.719028
C28   C     C_R   0.188463 0.464868 0.569210 0.722940
C29   C     C_R   0.716643 0.986207 0.665778 0.617553
C30   C     C_R   0.286815 0.920515 0.333683 0.621631
C31   C     C_R   0.784646 0.516731 0.335175 0.613817
C32   C     C_R   0.215518 0.483264 0.664890 0.616562
C33   C     C_R   0.609833 0.024629 0.687617 0.238587
C34   C     C_R   0.389674 0.022123 0.313623 0.231828
C35   C     C_R   0.891314 0.521017 0.309887 0.235782
C36   C     C_R   0.108785 0.480145 0.689959 0.234551
C37   C     C_R   0.581622 0.993007 0.590190 -0.097019
C38   C     C_R   0.419984 0.980095 0.409643 -0.090511
C39   C     C_R   0.919765 0.513466 0.408452 -0.096451
C40   C     C_R   0.080419 0.488300 0.591385 -0.095785
C41   C     C_R   0.623216 0.979256 0.531201 -0.236606
C42   C     C_R   0.380132 0.929221 0.467576 -0.230287
C43   C     C_R   0.878787 0.539110 0.467604 -0.241900
C44   C     C_R   0.121425 0.462434 0.532294 -0.241450
C45   C     C_R   0.513949 0.971517 0.549121 0.144187
C46   C     C_R   0.488253 0.980726 0.450018 0.141010
C47   C     C_R   0.987140 0.486538 0.450844 0.140493
C48   C     C_R   0.013075 0.515694 0.548939 0.139191
C49   C     C_R   0.531612 0.967437 0.394696 -0.119961
C50   C     C_R   0.472245 0.919621 0.602854 -0.111896
C51   C     C_R   0.971238 0.578754 0.600318 -0.120157
C52   C     C_R   0.028999 0.423721 0.399447 -0.119047
C53   C     C_R   0.597544 0.964447 0.434551 0.043404
C54   C     C_R   0.406932 0.898358 0.562900 0.036560
C55   C     C_R   0.905236 0.577454 0.562183 0.048157
C56   C     C_R   0.094993 0.424742 0.437645 0.042510
H5    H     H_    0.628584 0.949487 0.388825 0.217384
H6    H     H_    0.377387 0.854519 0.607344 0.214367
H7    H     H_    0.874870 0.614089 0.606599 0.216903
H8    H     H_    0.125361 0.388207 0.393219 0.206286
H9    H     H_    0.515663 0.944038 0.320389 0.188596
H10   H     H_    0.489665 0.879453 0.675174 0.189452
H11   H     H_    0.988341 0.631354 0.670487 0.190091
H12   H     H_    0.011933 0.371297 0.329248 0.187661
N1    N     N_R   0.071866 0.693383 0.096321 0.253133
O21   O     O_R   0.045978 0.528769 0.090669 -0.340699
O22   O     O_R   0.124681 0.724696 0.161447 -0.298862
N2    N     N_R   0.926457 0.299307 0.897511 0.253609
O23   O     O_R   0.951772 0.463891 0.898592 -0.331146
O24   O     O_R   0.873097 0.262593 0.834365 -0.326037
N3    N     N_R   0.426703 0.202856 0.898118 0.251462
O25   O     O_R   0.451717 0.037512 0.900424 -0.335182
O26   O     O_R   0.373622 0.240066 0.834417 -0.320983
N4    N     N_R   0.573757 0.797270 0.104010 0.241108
O27   O     O_R   0.548334 0.961748 0.103217 -0.344960
O28   O     O_R   0.627510 0.760437 0.166377 -0.334917
N5    N     N_R   0.422513 0.125843 0.257803 0.238019
O29   O     O_R   0.451237 0.281189 0.289290 -0.366636
O30   O     O_R   0.423435 0.067224 0.175406 -0.409090
N6    N     N_R   0.572213 0.087878 0.747609 0.225460
O31   O     O_R   0.536257 0.235337 0.725499 -0.374481
O32   O     O_R   0.573785 0.998230 0.824342 -0.417305
N7    N     N_R   0.071214 0.435465 0.753232 0.224321
O33   O     O_R   0.075041 0.537175 0.826919 -0.407334
O34   O     O_R   0.034409 0.289067 0.738515 -0.382814
N8    N     N_R   0.928748 0.565872 0.246447 0.223964
O35   O     O_R   0.965327 0.712744 0.260856 -0.382680
O36   O     O_R   0.925018 0.463801 0.172907 -0.409488
F1    F     F_    0.223339 0.884307 0.297772 -0.605593
F2    F     F_    0.781377 0.975357 0.701639 -0.619742
F3    F     F_    0.280442 0.486870 0.699299 -0.613964
F4    F     F_    0.719721 0.512353 0.300880 -0.614992
F5    F     F_    0.730208 0.957291 0.513791 -0.612301
F6    F     F_    0.275762 0.851513 0.483973 -0.608577
F7    F     F_    0.772346 0.551443 0.487606 -0.608522
F8    F     F_    0.227907 0.447930 0.512541 -0.604498

loop_
_geom_bond_atom_site_label_1
_geom_bond_atom_site_label_2
_geom_bond_distance
_ccdc_geom_bond_type
O17   V3    1.751615 S    
C55   H7    1.083938 S    
O18   V4    1.751615 S    
C31   F4    1.357961 S    
C27   C31   1.389384 A    
O19   V1    1.753104 S    
O13   V1    2.025472 S    
C45   C46   1.427427 A    
O3    C7    1.329322 A    
N7    O33   1.301658 A    
C48   C51   1.409730 A    
C52   C56   1.385447 A    
O15   V3    2.026976 S    
C4    C21   1.465128 S    
C21   C29   1.396449 A    
C34   N5    1.438541 S    
C50   H10   1.076736 S    
O1    C5    1.327906 A    
N5    O30   1.301570 A    
C49   H9    1.077375 S    
N1    O21   1.301365 A    
C32   F3    1.357984 S    
C8    C17   1.494573 S    
C28   F8    1.358969 S    
C12   N4    1.437127 S    
C10   N2    1.437520 S    
C14   H2    1.081465 S    
O16   V4    2.026975 S    
O4    C8    1.327992 A    
C2    C23   1.460537 S    
C38   C46   1.434885 A    
O1    V3    1.999375 S    
C37   C45   1.433070 A    
N6    O31   1.301330 A    
C12   C19   1.417953 A    
O2    V4    1.999372 S    
O3    V1    1.999608 S    
C33   N6    1.436263 S    
C24   C32   1.396326 A    
C35   N8    1.437569 S    
C1    O15   1.331877 A    
C2    O16   1.332020 A    
C28   C44   1.404126 A    
C46   C49   1.410044 A    
N2    O24   1.301393 A    
O2    C6    1.329066 A    
C45   C50   1.408908 A    
O14   V2    2.025473 S    
C47   C52   1.409731 A    
C51   H11   1.076566 S    
C23   C35   1.410296 A    
C40   C44   1.421439 A    
C5    C20   1.494606 S    
O11   C7    1.330675 A    
C6    C19   1.495925 S    
C26   F6    1.359210 S    
C25   C41   1.405503 A    
O12   C8    1.331184 A    
C7    C18   1.496185 S    
C9    C18   1.418241 A    
C1    C24   1.460621 S    
O10   V2    2.010818 S    
C11   N3    1.436907 S    
C11   C20   1.416633 A    
C53   H5    1.083898 S    
N8    O35   1.301470 A    
C43   C55   1.394030 A    
C27   F7    1.358943 S    
C21   C33   1.409939 A    
C34   C38   1.430761 A    
C22   C30   1.397333 A    
C12   C16   1.407454 A    
O7    V3    2.031433 S    
C24   C36   1.410279 A    
C25   C29   1.390879 A    
C36   N7    1.437485 S    
C15   H3    1.079801 S    
C54   H6    1.083973 S    
C30   F1    1.356437 S    
C9    C13   1.405035 A    
C28   C32   1.389396 A    
O8    V4    2.031434 S    
C52   H12   1.076459 S    
C11   C15   1.405331 A    
C47   C48   1.428553 A    
C35   C39   1.427329 A    
O5    C1    1.334555 A    
C50   C54   1.384220 A    
O7    C3    1.334176 A    
N3    O25   1.301291 A    
C26   C42   1.402416 A    
C49   C53   1.387721 A    
O8    C4    1.336657 A    
N2    O23   1.301203 A    
O9    C5    1.331527 A    
N7    O34   1.301473 A    
C10   C17   1.416986 A    
C40   C48   1.434615 A    
N4    O28   1.301172 A    
C44   C56   1.393999 A    
O6    V2    2.028666 S    
C22   C34   1.413422 A    
C23   C31   1.396330 A    
C13   C17   1.406277 A    
O5    V1    2.028667 S    
C36   C40   1.427328 A    
C15   C19   1.406199 A    
C26   C30   1.387191 A    
O9    V1    2.010822 S    
C16   C20   1.408210 A    
C3    O13   1.335330 A    
N3    O26   1.301138 A    
C10   C14   1.406867 A    
C56   H8    1.083883 S    
C9    N1    1.436582 S    
O6    C2    1.334376 A    
N8    O36   1.301658 A    
O11   V3    2.010237 S    
O12   V4    2.010242 S    
N5    O29   1.301361 A    
O10   C6    1.331061 A    
O20   V2    1.753104 S    
C3    C22   1.466921 S    
C25   F5    1.358958 S    
C51   C55   1.385482 A    
C38   C42   1.422837 A    
C37   C41   1.421623 A    
N6    O32   1.301522 A    
C39   C43   1.421479 A    
C13   H1    1.081635 S    
N4    O27   1.301523 A    
C42   C54   1.394532 A    
O4    V2    1.999610 S    
C14   C18   1.407748 A    
C41   C53   1.396467 A    
C33   C37   1.428802 A    
C16   H4    1.083328 S    
C39   C47   1.434630 A    
N1    O22   1.300507 A    
C4    O14   1.331808 A    
C27   C43   1.404080 A    
C29   F2    1.358241 S    
