data_mof_unit_19444.cif
_audit_creation_date              2012-10-26T18:50:23-0400
_audit_creation_method            fapswitch 2.2
_symmetry_space_group_name_H-M    P1
_symmetry_Int_Tables_number       1
_space_group_crystal_system       triclinic
_cell_length_a                    9.57955
_cell_length_b                    10.909041
_cell_length_c                    15.489018
_cell_angle_alpha                 87.839343
_cell_angle_beta                  74.254205
_cell_angle_gamma                 91.657939
_cell_volume                      1555.52098732

loop_
_atom_site_label
_atom_site_type_symbol
_atom_type_description
_atom_site_fract_x
_atom_site_fract_y
_atom_site_fract_z
_atom_type_partial_charge
C1    C     C_R   0.000019 0.262661 0.495034 0.548570
C2    C     C_R   0.235991 0.573101 0.045076 0.049580
C3    C     C_R   0.332476 0.531282 0.093827 0.033049
C4    C     C_R   0.918138 0.499748 0.672108 0.551627
C5    C     C_R   0.089129 0.588001 0.088924 -0.145451
C6    C     C_R   0.036007 0.560646 0.180776 -0.147111
C7    C     C_R   0.274767 0.499832 0.185691 -0.136575
C8    C     C_R   0.265246 0.133508 0.412599 -0.089525
C9    C     C_R   0.398966 0.082523 0.406214 -0.127534
C10   C     C_R   0.404131 0.967970 0.446945 -0.135545
C11   C     C_R   0.275925 0.899006 0.485346 -0.106525
C12   C     C_R   0.677952 0.519428 0.908481 0.032949
C13   C     C_R   0.139108 0.944608 0.484303 0.018630
C14   C     C_R   0.134198 0.070070 0.460664 0.013172
C15   C     C_R   0.999591 0.128607 0.487411 0.002136
C16   C     C_R   0.001669 0.737706 0.503035 0.536819
C17   C     C_R   0.868155 0.056207 0.516848 -0.031008
C18   C     C_R   0.874734 0.929382 0.521097 -0.139018
C19   C     C_R   0.007175 0.872093 0.505740 -0.023216
C20   C     C_R   0.703816 0.657374 0.376208 -0.099518
C21   C     C_R   0.661237 0.732050 0.314184 -0.187996
C22   C     C_R   0.517272 0.732758 0.314610 -0.173855
C23   C     C_R   0.777416 0.489766 0.958472 0.049474
C24   C     C_R   0.415082 0.659213 0.377332 -0.100900
C25   C     C_R   0.454358 0.577893 0.439448 0.143444
C26   C     C_R   0.604125 0.577398 0.439161 0.154344
C27   C     C_R   0.546125 0.426113 0.557731 -0.014963
C28   C     C_R   0.082044 0.502451 0.327920 0.530977
C29   C     C_R   0.398177 0.425966 0.557597 -0.008286
C30   C     C_R   0.872989 0.499862 0.770606 -0.003217
C31   C     C_R   0.129223 0.517560 0.229678 -0.003255
C32   C     C_R   0.922879 0.469252 0.914522 -0.142425
C33   C     C_R   0.970781 0.475494 0.821159 -0.139194
C34   C     C_R   0.530841 0.541256 0.954147 0.032743
C35   C     C_R   0.728269 0.521706 0.814284 -0.136446
C36   C     C_3   0.719044 0.109042 0.544614 -0.376754
C37   C     C_R   0.482532 0.521322 0.049154 0.032159
C38   C     C_R   0.586280 0.494656 0.096474 -0.140031
C39   C     C_R   0.730726 0.479734 0.051763 -0.139962
C40   C     C_R   0.431016 0.583964 0.908250 -0.141241
C41   C     C_R   0.286920 0.600403 0.953217 -0.140414
Cu1   Cu    Cu3+1 0.140660 0.499990 0.500010 0.907100
Cu2   Cu    Cu3+1 0.859340 0.500010 0.499990 0.911130
H1    H     H_    0.806015 0.458197 0.090700 0.111575
H2    H     H_    0.740466 0.791379 0.266428 0.122127
H3    H     H_    0.340606 0.460273 0.224952 0.119961
H4    H     H_    0.483622 0.793250 0.267605 0.133501
H5    H     H_    0.306608 0.672651 0.375543 0.189652
H6    H     H_    0.320043 0.365316 0.604785 0.118926
H7    H     H_    0.923254 0.575790 0.213639 0.123485
H8    H     H_    0.214438 0.633887 0.915483 0.110544
H9    H     H_    0.999228 0.446406 0.952386 0.113534
H10   H     H_    0.083156 0.458078 0.788662 0.125415
H11   H     H_    0.655766 0.536593 0.773049 0.121254
H12   H     H_    0.015810 0.622723 0.052313 0.110841
H13   H     H_    0.560504 0.487676 0.168672 0.111632
H14   H     H_    0.461420 0.609399 0.837585 0.103515
H15   H     H_    0.631075 0.036623 0.566016 0.106907
H16   H     H_    0.710351 0.167623 0.602748 0.147023
H17   H     H_    0.698050 0.162378 0.487265 0.155795
H18   H     H_    0.265777 0.222581 0.379375 0.141452
H19   H     H_    0.498509 0.133680 0.372287 0.111412
H20   H     H_    0.507802 0.931240 0.447271 0.123085
H21   H     H_    0.287542 0.813562 0.519163 0.153228
H22   H     H_    0.774069 0.874382 0.539301 0.141417
H23   H     H_    0.578551 0.365822 0.605192 0.109017
H24   H     H_    0.816002 0.666958 0.371861 0.184645
N1    N     N_R   0.648320 0.501210 0.499140 -0.243904
N2    N     N_R   0.352470 0.501290 0.499110 -0.248089
O1    O     O_R   0.118810 0.319640 0.500010 -0.505733
O2    O     O_R   0.881240 0.319660 0.500000 -0.502391
O3    O     O_R   0.055570 0.499980 0.629840 -0.499068
O4    O     O_R   0.818000 0.500010 0.629830 -0.505730
O5    O     O_R   0.118760 0.680340 0.500000 -0.532506
O6    O     O_R   0.881190 0.680360 0.499990 -0.523134
O7    O     O_R   0.182000 0.499990 0.370170 -0.529537
O8    O     O_R   0.944430 0.500020 0.370160 -0.517790

loop_
_geom_bond_atom_site_label_1
_geom_bond_atom_site_label_2
_ccdc_geom_bond_type
Cu2   O4    S    
C27   C29   A    
C34   C37   A    
C20   H24   S    
C10   H20   S    
C36   H16   S    
C29   H6    S    
C18   H22   S    
C12   C23   A    
C1    O2    A    
C30   C35   A    
C16   O5    A    
C3    C7    A    
C5    C6    A    
C2    C41   A    
C16   O6    A    
Cu1   O1    S    
C18   C19   A    
C32   H9    S    
C27   N1    A    
C8    C9    A    
C8    C14   A    
C1    C15   S    
C17   C36   S    
C9    C10   A    
C21   H2    S    
C8    H18   S    
C6    C31   A    
C13   C14   A    
C35   H11   S    
C33   H10   S    
C29   N2    A    
Cu2   O6    S    
Cu1   O5    S    
C7    C31   A    
C13   C19   A    
C36   H15   S    
C9    H19   S    
C24   H5    S    
C7    H3    S    
C24   C25   A    
C11   H21   S    
Cu2   N1    S    
C25   C26   A    
Cu1   N2    S    
C37   C38   A    
Cu1   O3    S    
C17   C18   A    
C6    H7    S    
C12   C35   A    
C28   O8    A    
C4    O4    A    
C40   C41   A    
C22   C24   A    
C2    C5    A    
C25   N2    A    
Cu1   Cu2   S    
C12   C34   A    
C28   O7    A    
C4    O3    A    
C15   C17   A    
Cu2   O2    S    
C40   H14   S    
C30   C33   A    
C5    H12   S    
C28   C31   S    
C36   H17   S    
C39   H1    S    
Cu2   O8    S    
Cu1   O7    S    
C1    O1    A    
C26   N1    A    
C32   C33   A    
C2    C3    A    
C27   H23   S    
C23   C32   A    
C11   C13   A    
C38   C39   A    
C20   C26   A    
C16   C19   S    
C23   C39   A    
C22   H4    S    
C10   C11   A    
C38   H13   S    
C20   C21   A    
C3    C37   A    
C14   C15   A    
C34   C40   A    
C21   C22   A    
C41   H8    S    
C4    C30   S    
