data_mof_unit_30407.cif
_audit_creation_date              2012-12-11T14:47:56-0500
_audit_creation_method            fapswitch 2.2
_symmetry_space_group_name_H-M    P1
_symmetry_Int_Tables_number       1
_space_group_crystal_system       triclinic
_cell_length_a                    11.577123
_cell_length_b                    11.578748
_cell_length_c                    19.467838
_cell_angle_alpha                 90.759584
_cell_angle_beta                  89.854327
_cell_angle_gamma                 60.121982
_cell_volume                      2262.45933858

loop_
_atom_site_label
_atom_site_type_symbol
_atom_type_description
_atom_site_fract_x
_atom_site_fract_y
_atom_site_fract_z
_atom_type_partial_charge
C1    C     C_R   0.640311 0.117665 0.599033 0.536325
C2    C     C_1   0.640691 0.704247 0.667843 0.011198
C3    C     C_1   0.147754 0.188168 0.863553 0.001352
C4    C     C_1   0.228873 0.144848 0.735814 -0.028955
C5    C     C_1   0.189365 0.163862 0.805398 -0.029052
C6    C     C_1   0.259584 0.133125 0.675978 0.004012
C7    C     C_1   0.678854 0.190204 0.861112 0.004978
C8    C     C_1   0.657944 0.167571 0.729093 -0.030130
C9    C     C_1   0.665515 0.180258 0.800555 -0.030307
C10   C     C_1   0.652319 0.150466 0.668500 0.007119
C11   C     C_R   0.585120 0.605735 0.313413 0.241198
C12   C     C_R   0.612154 0.746265 0.598482 0.543655
C13   C     C_R   0.599578 0.582248 0.243432 -0.179658
C14   C     C_R   0.696260 0.593278 0.206379 -0.034886
C15   C     C_R   0.788026 0.620408 0.240404 0.218683
C16   C     C_R   0.786133 0.623688 0.312773 0.017229
C17   C     C_R   0.672546 0.638550 0.346942 -0.011310
C18   C     C_R   0.196922 0.268908 0.293463 0.276937
C19   C     C_R   0.193033 0.267936 0.222191 -0.144933
C20   C     C_R   0.155272 0.186699 0.188486 -0.012715
C21   C     C_R   0.152233 0.083008 0.223881 -0.156507
C22   C     C_R   0.177728 0.068882 0.294053 -0.202748
C23   C     C_R   0.297934 0.120603 0.605154 0.551069
C24   C     C_R   0.197016 0.163329 0.329737 0.051375
C25   C     C_R   0.749342 0.034930 0.286172 0.300981
C26   C     C_R   0.732018 0.052916 0.215668 0.278850
C27   C     C_R   0.663976 0.183627 0.191215 -0.041243
C28   C     C_R   0.588370 0.289338 0.236520 -0.216991
C29   C     C_R   0.591650 0.268336 0.306804 -0.202830
C30   C     C_R   0.668893 0.140639 0.332113 -0.031730
C31   C     C_R   0.084595 0.229856 0.929527 0.546934
C32   C     C_R   0.684029 0.604650 0.929687 0.550971
C33   C     C_R   0.708516 0.206438 0.930392 0.540410
C34   C     C_R   0.646146 0.110965 0.402033 0.553701
C35   C     C_R   0.086843 0.233316 0.123566 0.540437
C36   C     C_R   0.706365 0.558943 0.133540 0.572813
C37   C     C_R   0.705662 0.210702 0.125669 0.543410
C38   C     C_R   0.622145 0.727600 0.407033 0.580837
C39   C     C_R   0.245281 0.140410 0.400587 0.576027
C40   C     C_1   0.670718 0.646943 0.860353 0.003494
C41   C     C_1   0.654447 0.684141 0.728389 -0.028976
C42   C     C_1   0.663543 0.667234 0.799798 -0.030627
Cr1   Cr    Cr6+3 0.404720 0.198220 0.499960 1.061687
Cr2   Cr    Cr6+3 0.698290 0.897110 0.500380 1.081716
Cr3   Cr    Cr6+3 0.396970 0.904720 0.499610 1.041013
Cr4   Cr    Cr6+3 0.926180 0.152240 0.028110 1.035983
Cr5   Cr    Cr6+3 0.921340 0.452070 0.027460 1.008634
Cr6   Cr    Cr6+3 0.626260 0.447120 0.028700 1.012577
H1    H     H_    0.525421 0.387189 0.217120 0.135828
H2    H     H_    0.532128 0.350803 0.341400 0.185137
H3    H     H_    0.528392 0.564994 0.216839 0.136812
H4    H     H_    0.202960 0.341817 0.193463 0.100716
H5    H     H_    0.125429 0.016476 0.198031 0.139648
H6    H     H_    0.177849 0.987811 0.320893 0.101540
O1    O     O_R   0.267740 0.231990 0.575440 -0.486758
O2    O     O_R   0.685970 0.784630 0.430010 -0.473783
O3    O     O_R   0.502530 0.766960 0.423990 -0.471457
O4    O     O_R   0.288330 0.026310 0.429250 -0.518138
O5    O     O_3   0.499990 0.000020 0.499980 -0.301238
O6    O     O_R   0.821500 0.119550 0.952820 -0.505708
O7    O     O_R   0.037130 0.162750 0.957360 -0.491783
O8    O     O_R   0.056440 0.344950 0.951330 -0.506020
O9    O     O_R   0.797900 0.560570 0.957460 -0.493588
O10   O     O_R   0.596140 0.579600 0.952720 -0.499275
O11   O     O_R   0.639070 0.321380 0.958660 -0.494360
O12   O     O_R   0.527280 0.186680 0.570530 -0.512108
O13   O     O_R   0.821240 0.124490 0.104360 -0.472640
O14   O     O_R   0.036900 0.167320 0.097830 -0.501321
O15   O     O_R   0.056190 0.349890 0.102870 -0.553082
O16   O     O_R   0.797670 0.565150 0.097930 -0.486496
O17   O     O_R   0.595880 0.584540 0.104260 -0.527896
O18   O     O_R   0.638830 0.325960 0.099140 -0.528242
O19   O     O_3   0.824590 0.350480 0.028090 -0.271759
O20   O     O_R   0.728090 0.003480 0.576380 -0.505080
O21   O     O_R   0.682970 0.789220 0.570490 -0.491240
O22   O     O_R   0.499290 0.771920 0.575530 -0.511301
O23   O     O_R   0.285330 0.030900 0.569730 -0.488773
O24   O     O_R   0.270980 0.227040 0.423900 -0.434221
O25   O     O_R   0.530280 0.182090 0.430050 -0.508081
O26   O     O_R   0.731330 0.998530 0.424830 -0.457987
O27   O     O_3   0.488465 0.594364 0.350432 -0.548472
C43   C     C_3   0.360655 0.676947 0.323016 -0.114784
H7    H     H_    0.341312 0.625693 0.279837 0.076565
H8    H     H_    0.347032 0.774088 0.305769 0.125843
H9    H     H_    0.285286 0.697909 0.363738 0.129713
O28   O     O_3   0.799008 0.943633 0.171801 -0.511653
C44   C     C_3   0.705438 0.932673 0.129598 -0.043340
H10   H     H_    0.654769 0.017470 0.094076 0.083650
H11   H     H_    0.630145 0.923127 0.160997 0.134212
H12   H     H_    0.759032 0.841491 0.096987 0.174957
O29   O     O_3   0.839016 0.688777 0.205488 -0.513475
C45   C     C_3   0.976239 0.609488 0.192713 -0.022760
H13   H     H_    0.994522 0.583552 0.137345 0.146143
H14   H     H_    0.022656 0.518904 0.223712 0.134825
H15   H     H_    0.024638 0.669169 0.204929 0.169578
C46   C     C_2   0.901640 0.604250 0.354511 0.653353
O30   O     O_2   0.926872 0.540543 0.407453 -0.493348
O31   O     O_R   0.980020 0.658579 0.335544 -0.646049
H16   H     H_    0.050411 0.642307 0.370951 0.329391
O32   O     O_3   0.183359 0.379862 0.329226 -0.519850
C47   C     C_3   0.267777 0.424330 0.303385 -0.119506
H17   H     H_    0.212175 0.510341 0.269537 0.097614
H18   H     H_    0.353562 0.345934 0.274341 0.111551
H19   H     H_    0.304329 0.458258 0.347399 0.157525
O33   O     O_3   0.849788 0.915424 0.309763 -0.461400
C48   C     C_3   0.966414 0.925532 0.312971 -0.063480
H20   H     H_    0.950298 0.015262 0.342867 0.097048
H21   H     H_    0.004302 0.925631 0.260460 0.122785
H22   H     H_    0.045240 0.838369 0.339711 0.124013

loop_
_geom_bond_atom_site_label_1
_geom_bond_atom_site_label_2
_ccdc_geom_bond_type
C21   H5    S    
C44   H10   S    
C47   H17   S    
C41   C42   S    
C31   O7    A    
C19   C20   A    
C2    C12   S    
Cr5   O8    S    
O27   C43   S    
C25   O33   S    
C22   H6    S    
C11   O27   S    
Cr1   O24   S    
Cr3   O3    S    
C26   C27   A    
Cr3   O22   S    
C18   C24   A    
C1    O20   A    
C45   H13   S    
C28   C29   A    
C14   C36   S    
Cr6   O10   S    
C48   H20   S    
C2    C41   T    
Cr1   O25   S    
C15   C16   A    
C24   C39   S    
C18   C19   A    
Cr5   O15   S    
C34   O26   A    
C13   H3    S    
C20   C35   S    
C19   H4    S    
C11   C17   A    
C8    C9    S    
C46   O31   S    
Cr6   O11   S    
C36   O17   A    
Cr1   O5    S    
C40   C42   T    
C47   H18   S    
C21   C22   A    
C7    C33   S    
C31   O8    A    
C18   O32   S    
Cr6   O18   S    
C36   O16   A    
C29   H2    S    
Cr3   O4    S    
C16   C46   S    
C30   C34   S    
Cr4   O7    S    
C33   O11   A    
C39   O24   A    
Cr2   O26   S    
Cr5   O19   S    
C4    C6    T    
O29   C45   S    
O28   C44   S    
C16   C17   A    
C25   C26   A    
C39   O4    A    
C45   H15   S    
Cr2   O21   S    
C3    C31   S    
Cr5   O16   S    
Cr4   O14   S    
C29   C30   A    
C34   O25   A    
C38   O3    A    
C28   H1    S    
Cr2   O2    S    
C26   O28   S    
C46   O30   D    
C45   H14   S    
C1    O12   A    
C23   O23   A    
Cr2   O20   S    
C32   O10   A    
Cr1   O1    S    
O31   H16   S    
C33   O6    A    
C43   H8    S    
C12   O22   A    
C22   C24   A    
C37   O18   A    
Cr6   O17   S    
C25   C30   A    
C7    C9    T    
Cr3   O5    S    
Cr4   O6    S    
Cr6   O19   S    
C1    C10   S    
C32   O9    A    
C4    C5    S    
C3    C5    T    
C23   O1    A    
C47   H19   S    
C43   H9    S    
O33   C48   S    
C44   H11   S    
Cr4   O13   S    
Cr5   O9    S    
C11   C13   A    
C48   H21   S    
C35   O14   A    
C27   C37   S    
Cr1   O12   S    
C6    C23   S    
C37   O13   A    
O32   C47   S    
C17   C38   S    
C32   C40   S    
C12   O21   A    
C15   O29   S    
C38   O2    A    
C20   C21   A    
C35   O15   A    
C8    C10   T    
C43   H7    S    
C44   H12   S    
C27   C28   A    
C14   C15   A    
Cr3   O23   S    
Cr2   O5    S    
C13   C14   A    
Cr4   O19   S    
C48   H22   S    
