data_mof_unit_35372.cif
_audit_creation_date              2012-12-10T17:58:20-0500
_audit_creation_method            fapswitch 2.2
_symmetry_space_group_name_H-M    P1
_symmetry_Int_Tables_number       1
_space_group_crystal_system       triclinic
_cell_length_a                    9.5045
_cell_length_b                    10.833365
_cell_length_c                    15.381354
_cell_angle_alpha                 89.867972
_cell_angle_beta                  74.91756
_cell_angle_gamma                 89.987925
_cell_volume                      1529.19154776

loop_
_atom_site_label
_atom_site_type_symbol
_atom_type_description
_atom_site_fract_x
_atom_site_fract_y
_atom_site_fract_z
_atom_type_partial_charge
C1    C     C_R   0.999940 0.262027 0.500076 0.801832
C2    C     C_R   0.000060 0.737973 0.499924 0.801832
C3    C     C_R   0.566830 0.591908 0.084749 0.264419
C4    C     C_R   0.433193 0.408066 0.915258 0.264405
C5    C     C_R   0.715985 0.593110 0.045137 -0.156449
C6    C     C_R   0.284037 0.406864 0.954868 -0.156457
C7    C     C_R   0.871908 0.063864 0.500533 -0.144270
C8    C     C_R   0.128092 0.936136 0.499467 -0.144273
C9    C     C_R   0.871960 0.936164 0.500429 -0.160011
C10   C     C_R   0.128039 0.063836 0.499571 -0.160012
C11   C     C_R   0.000041 0.871797 0.499920 -0.025945
C12   C     C_R   0.999959 0.128203 0.500080 -0.025944
C13   C     C_R   0.550373 0.424585 0.556998 0.008582
C14   C     C_R   0.449627 0.575415 0.443002 0.008587
C15   C     C_R   0.401456 0.424664 0.557006 0.037132
C16   C     C_R   0.598544 0.575336 0.442994 0.037136
C17   C     C_R   0.919043 0.503285 0.672732 0.841760
C18   C     C_R   0.080957 0.496715 0.327268 0.841759
C19   C     C_R   0.875941 0.511891 0.772071 -0.130636
C20   C     C_R   0.124064 0.488105 0.227929 -0.130640
C21   C     C_R   0.919911 0.565118 0.915794 -0.210534
C22   C     C_R   0.080103 0.434871 0.084204 -0.210540
C23   C     C_R   0.973888 0.543776 0.823749 0.268537
C24   C     C_R   0.026121 0.456217 0.176249 0.268531
C25   C     C_R   0.728299 0.494683 0.816001 -0.201135
C26   C     C_R   0.271708 0.505311 0.184001 -0.201137
C27   C     C_R   0.676120 0.501991 0.909831 0.108511
C28   C     C_R   0.323893 0.497996 0.090172 0.108504
C29   C     C_R   0.771661 0.549126 0.958185 0.038713
C30   C     C_R   0.228355 0.450858 0.041817 0.038724
C31   C     C_R   0.527993 0.477046 0.955233 -0.021930
C32   C     C_R   0.472025 0.522936 0.044772 -0.021934
Cu1   Cu    Cu3+1 0.140660 0.500020 0.500000 0.994671
Cu2   Cu    Cu3+1 0.859340 0.499980 0.500000 0.994671
H1    H     H_    0.787154 0.641094 0.078654 0.191655
H2    H     H_    0.212873 0.358870 0.921352 0.191651
H3    H     H_    0.348012 0.515096 0.224421 0.208242
H4    H     H_    0.651991 0.484896 0.775584 0.208233
H5    H     H_    0.993238 0.599583 0.953587 0.175610
H6    H     H_    0.006778 0.400403 0.046410 0.175611
H7    H     H_    0.771756 0.111913 0.500977 0.162005
H8    H     H_    0.228243 0.888087 0.499023 0.162005
H9    H     H_    0.771860 0.888135 0.500772 0.158723
H10   H     H_    0.228140 0.111864 0.499228 0.158723
H11   H     H_    0.587321 0.364043 0.602533 0.157269
H12   H     H_    0.412679 0.635957 0.397467 0.157277
H13   H     H_    0.325946 0.364366 0.602633 0.150541
H14   H     H_    0.674054 0.635633 0.397366 0.150545
N1    N     N_R   0.352080 0.500030 0.499980 -0.172101
N2    N     N_R   0.647920 0.499970 0.500020 -0.172102
O1    O     O_R   0.118740 0.319660 0.500000 -0.594029
O2    O     O_R   0.881260 0.680340 0.500000 -0.594028
O3    O     O_R   0.881170 0.319630 0.500010 -0.580578
O4    O     O_R   0.118830 0.680370 0.499990 -0.580579
O5    O     O_R   0.055570 0.500030 0.629830 -0.537914
O6    O     O_R   0.944430 0.499970 0.370170 -0.537914
O7    O     O_R   0.818000 0.500000 0.629840 -0.587867
O8    O     O_R   0.182000 0.500000 0.370160 -0.587867
Br1   Br    Br    0.821622 0.425273 0.225934 -0.510934
Br2   Br    Br    0.178384 0.574715 0.774061 -0.510943
Br3   Br    Br    0.504190 0.712285 0.179373 -0.533855
Br4   Br    Br    0.495850 0.287677 0.820645 -0.533836

loop_
_geom_bond_atom_site_label_1
_geom_bond_atom_site_label_2
_ccdc_geom_bond_type
Cu1   O5    S    
Cu2   O7    S    
C19   C23   A    
C26   H3    S    
Cu2   O6    S    
Cu1   O8    S    
C18   O6    A    
C25   H4    S    
C27   C29   A    
C9    C11   A    
C17   O5    A    
C26   C28   A    
C31   C32   A    
C21   H5    S    
C10   H10   S    
C15   H13   S    
C8    H8    S    
C4    Br4   S    
C22   H6    S    
C16   H14   S    
C3    Br3   S    
Cu1   Cu2   S    
C3    C5    A    
C3    C32   A    
C14   H12   S    
C15   N1    A    
C13   H11   S    
C1    O1    A    
C7    C12   A    
C1    C12   S    
C2    O2    A    
Cu2   O3    S    
C24   Br1   S    
C2    C11   S    
C10   C12   A    
C22   C24   A    
C28   C30   A    
C17   C19   S    
C6    H2    S    
C5    C29   A    
C13   C15   A    
C21   C23   A    
C23   Br2   S    
C19   C25   A    
C14   C16   A    
C9    H9    S    
C4    C31   A    
Cu2   N2    S    
C8    C11   A    
Cu1   N1    S    
C13   N2    A    
C14   N1    A    
C5    H1    S    
C28   C32   A    
C27   C31   A    
C18   C20   S    
C8    C10   A    
C4    C6    A    
C2    O4    A    
C17   O7    A    
Cu1   O4    S    
C7    C9    A    
C1    O3    A    
Cu2   O2    S    
C22   C30   A    
C6    C30   A    
C21   C29   A    
C18   O8    A    
Cu1   O1    S    
C20   C24   A    
C7    H7    S    
C16   N2    A    
C20   C26   A    
C25   C27   A    
