data_mof_unit_57928.cif
_audit_creation_date              2012-12-10T17:43:54-0500
_audit_creation_method            fapswitch 2.2
_symmetry_space_group_name_H-M    P1
_symmetry_Int_Tables_number       1
_space_group_crystal_system       triclinic
_cell_length_a                    15.874639
_cell_length_b                    15.082664
_cell_length_c                    13.694197
_cell_angle_alpha                 89.78214
_cell_angle_beta                  90.357171
_cell_angle_gamma                 90.126811
_cell_volume                      3278.73159922

loop_
_atom_site_label
_atom_site_type_symbol
_atom_type_description
_atom_site_fract_x
_atom_site_fract_y
_atom_site_fract_z
_atom_type_partial_charge
C1    C     C_R   0.500346 0.328459 0.500139 0.818994
C2    C     C_R   0.499824 0.671542 0.499871 0.819336
C3    C     C_R   0.499739 0.768385 0.499786 -0.069647
C4    C     C_R   0.500988 0.231619 0.500279 -0.072890
C5    C     C_R   0.506297 0.815086 0.411358 -0.244038
C6    C     C_R   0.494693 0.184915 0.588738 -0.244196
C7    C     C_R   0.506906 0.907472 0.410869 0.108172
C8    C     C_R   0.494566 0.092527 0.589280 0.108663
C9    C     C_R   0.500565 0.953527 0.500021 0.066179
C10   C     C_R   0.501014 0.046472 0.500142 0.063552
C11   C     C_R   0.493789 0.906735 0.589051 0.106494
C12   C     C_R   0.507862 0.093265 0.411119 0.107112
C13   C     C_R   0.513906 0.954534 0.322816 -0.210434
C14   C     C_R   0.487961 0.045464 0.677374 -0.206160
C15   C     C_R   0.514464 0.046973 0.322944 -0.207667
C16   C     C_R   0.487653 0.953031 0.677268 -0.221982
C17   C     C_R   0.555094 0.447183 0.793970 0.029171
C18   C     C_R   0.445671 0.553710 0.206060 0.029354
C19   C     C_R   0.445226 0.553435 0.792223 0.009816
C20   C     C_R   0.555052 0.446931 0.207761 0.006576
C21   C     C_R   0.444523 0.556725 0.895684 -0.050124
C22   C     C_R   0.558370 0.446691 0.104319 -0.051784
C23   C     C_R   0.339715 0.499972 0.499724 0.830149
C24   C     C_R   0.660284 0.499793 0.500255 0.830213
C25   C     C_R   0.500968 0.501649 0.948173 0.070496
C26   C     C_R   0.501475 0.501233 0.051834 0.071268
C27   C     C_R   0.556782 0.446618 0.896890 -0.014437
C28   C     C_R   0.444828 0.555277 0.103139 -0.013583
C29   C     C_R   0.388650 0.612058 0.948145 0.007526
C30   C     C_R   0.615705 0.393043 0.051911 0.006821
C31   C     C_R   0.388887 0.609989 0.051031 -0.249158
C32   C     C_R   0.613469 0.392753 0.949027 -0.246313
C33   C     C_3   0.971575 0.422852 0.540331 -0.228495
C34   C     C_3   0.028397 0.574685 0.459028 -0.222657
C35   C     C_3   0.026142 0.430107 0.447725 0.057896
C36   C     C_3   0.973882 0.567427 0.551643 0.061138
C37   C     C_1   0.250100 0.499494 0.499150 -0.144046
C38   C     C_1   0.749893 0.499412 0.500694 -0.148233
C39   C     C_3   0.029546 0.491764 0.591947 -0.227155
C40   C     C_3   0.970433 0.505757 0.407395 -0.238948
C41   C     C_3   0.082999 0.498157 0.498687 0.114091
C42   C     C_3   0.916987 0.499414 0.500685 0.113215
C43   C     C_1   0.174616 0.498899 0.498821 0.020927
C44   C     C_1   0.825374 0.499252 0.500776 0.012567
C45   C     C_R   0.493416 0.814389 0.588310 -0.240745
C46   C     C_R   0.507823 0.185617 0.411807 -0.234359
Cu1   Cu    Cu3+1 0.500010 0.499990 0.597420 0.951507
Cu2   Cu    Cu3+1 0.499990 0.500010 0.402580 0.949583
H1    H     H_    0.345728 0.652173 0.090555 0.143879
H2    H     H_    0.657230 0.351250 0.909523 0.144791
H3    H     H_    0.947461 0.360407 0.573127 0.155580
H4    H     H_    0.052487 0.637135 0.426219 0.154002
H5    H     H_    0.945338 0.510858 0.331721 0.146237
H6    H     H_    0.054598 0.486592 0.667631 0.154773
H7    H     H_    0.488122 0.778459 0.656730 0.152829
H8    H     H_    0.513154 0.221546 0.343365 0.158322
H9    H     H_    0.511298 0.779672 0.342878 0.156360
H10   H     H_    0.489501 0.220324 0.657200 0.156295
H11   H     H_    0.518944 0.919857 0.253942 0.143901
H12   H     H_    0.483046 0.080136 0.746263 0.143285
H13   H     H_    0.519937 0.082252 0.254169 0.143842
H14   H     H_    0.482644 0.917769 0.746093 0.139321
H15   H     H_    0.597797 0.405388 0.753569 0.126660
H16   H     H_    0.402853 0.595355 0.246484 0.126502
H17   H     H_    0.402101 0.593159 0.749330 0.148140
H18   H     H_    0.595799 0.404476 0.250617 0.145550
N1    N     N_R   0.499960 0.499930 0.743810 -0.186878
N2    N     N_R   0.500040 0.500070 0.256190 -0.185951
O1    O     O_R   0.500020 0.370250 0.582280 -0.591494
O2    O     O_R   0.499980 0.629750 0.417720 -0.591949
O3    O     O_R   0.500010 0.370270 0.417740 -0.587228
O4    O     O_R   0.499990 0.629730 0.582260 -0.587561
O5    O     O_R   0.379080 0.499980 0.582260 -0.582619
O6    O     O_R   0.620920 0.500020 0.417740 -0.585969
O7    O     O_R   0.379070 0.500000 0.417710 -0.572701
O8    O     O_R   0.620930 0.500000 0.582290 -0.571826
C47   C     C_2   0.053885 0.352091 0.388765 0.823489
O9    O     O_2   0.001061 0.302753 0.352896 -0.623045
O10   O     O_R   0.139615 0.335993 0.375073 -0.763041
H19   H     H_    0.150176 0.281400 0.334002 0.336192
C48   C     C_2   0.946508 0.645400 0.610905 0.823845
O11   O     O_2   0.999603 0.693862 0.647711 -0.610938
O12   O     O_R   0.860853 0.662373 0.623945 -0.764166
H20   H     H_    0.850568 0.716810 0.665360 0.334747
C49   C     C_R   0.329451 0.672908 0.897792 0.106173
C50   C     C_R   0.359987 0.743915 0.841349 -0.175532
C51   C     C_R   0.303839 0.800126 0.792337 -0.148463
C52   C     C_R   0.217032 0.786333 0.800038 -0.076783
C53   C     C_R   0.186217 0.716498 0.857036 -0.112359
C54   C     C_R   0.242158 0.660052 0.906083 -0.160712
H21   H     H_    0.427130 0.755210 0.834881 0.121652
H22   H     H_    0.327564 0.854290 0.748279 0.139044
H23   H     H_    0.173644 0.829807 0.761939 0.145579
H24   H     H_    0.118976 0.705955 0.862986 0.151061
H25   H     H_    0.217579 0.605822 0.949544 0.133933
C55   C     C_R   0.679740 0.337970 0.102400 0.104207
C56   C     C_R   0.743296 0.378089 0.158993 -0.179429
C57   C     C_R   0.802834 0.325972 0.208057 -0.114579
C58   C     C_R   0.799771 0.233642 0.200313 -0.078351
C59   C     C_R   0.737274 0.193327 0.143276 -0.150185
C60   C     C_R   0.677529 0.245242 0.094147 -0.158285
H26   H     H_    0.746262 0.449580 0.165561 0.134818
H27   H     H_    0.851234 0.357203 0.252149 0.164870
H28   H     H_    0.845856 0.193359 0.238420 0.155759
H29   H     H_    0.735003 0.121825 0.137319 0.133906
H30   H     H_    0.629094 0.213272 0.050656 0.126735

loop_
_geom_bond_atom_site_label_1
_geom_bond_atom_site_label_2
_ccdc_geom_bond_type
C51   C52   A    
C6    H10   S    
C36   C42   S    
C24   O6    A    
C56   C57   A    
C54   H25   S    
C39   C41   S    
C4    C46   A    
C47   O9    D    
C59   H29   S    
C33   C39   S    
C36   C39   S    
C16   H14   S    
C34   C40   S    
C33   C42   S    
C20   H18   S    
C19   C21   A    
C23   O5    A    
Cu1   O8    S    
C50   H21   S    
C49   C50   A    
C39   H6    S    
C18   N2    A    
C57   H27   S    
C53   H24   S    
Cu1   O1    S    
C30   C55   S    
O12   H20   S    
C24   C38   S    
C19   N1    A    
C9    C10   A    
C29   C49   S    
C56   H26   S    
C40   C42   S    
C58   H28   S    
C51   H22   S    
C41   C43   S    
Cu2   O7    S    
C34   C41   S    
C42   C44   S    
C31   H1    S    
C2    O4    A    
Cu1   N1    S    
C48   O12   S    
C48   O11   D    
C47   O10   S    
C17   N1    A    
C17   C27   A    
Cu2   O6    S    
C18   C28   A    
Cu1   O5    S    
C12   C46   A    
Cu2   O2    S    
C5    C7    A    
C50   C51   A    
C24   O8    A    
C6    C8    A    
C25   C26   A    
C23   C37   S    
C21   C29   A    
C35   C47   S    
C1    O1    A    
C37   C43   T    
C38   C44   T    
C11   C16   A    
Cu1   Cu2   S    
C12   C15   A    
C36   C48   S    
C55   C56   A    
C15   H13   S    
C1    O3    A    
Cu2   N2    S    
C9    C11   A    
C32   H2    S    
C10   C12   A    
C4    C6    A    
C20   C22   A    
C40   H5    S    
C13   C15   A    
C14   C16   A    
C11   C45   A    
C33   H3    S    
Cu2   O3    S    
C60   H30   S    
C7    C9    A    
C21   C25   A    
C52   H23   S    
C8    C14   A    
C22   C30   A    
C27   C32   A    
C34   H4    S    
C20   N2    A    
C28   C31   A    
C23   O7    A    
C3    C5    A    
C49   C54   A    
C13   H11   S    
C25   C27   A    
C14   H12   S    
C19   H17   S    
C26   C28   A    
C58   C59   A    
C5    H9    S    
C1    C4    S    
C35   C40   S    
C29   C31   A    
C2    O2    A    
C17   H15   S    
C30   C32   A    
C18   H16   S    
C59   C60   A    
C33   C35   S    
C3    C45   A    
C2    C3    S    
C34   C36   S    
C35   C41   S    
Cu1   O4    S    
O10   H19   S    
C7    C13   A    
C52   C53   A    
C45   H7    S    
C8    C10   A    
C57   C58   A    
C22   C26   A    
C46   H8    S    
C53   C54   A    
C55   C60   A    
