data_mof_unit_52586.cif
_audit_creation_date              2012-12-10T17:24:15-0500
_audit_creation_method            fapswitch 2.2
_symmetry_space_group_name_H-M    P1
_symmetry_Int_Tables_number       1
_space_group_crystal_system       triclinic
_cell_length_a                    19.312763
_cell_length_b                    10.795489
_cell_length_c                    9.637571
_cell_angle_alpha                 90.159017
_cell_angle_beta                  89.047096
_cell_angle_gamma                 93.361528
_cell_volume                      2005.6062242

loop_
_atom_site_label
_atom_site_type_symbol
_atom_type_description
_atom_site_fract_x
_atom_site_fract_y
_atom_site_fract_z
_atom_type_partial_charge
C1    C     C_R   0.496457 0.262719 0.500135 0.781882
C2    C     C_R   0.291358 0.495354 0.502896 -0.025770
C3    C     C_R   0.928606 0.478175 0.507236 0.409339
C4    C     C_R   0.069137 0.481181 0.507117 0.409713
C5    C     C_R   0.817284 0.542258 0.611760 -0.154000
C6    C     C_R   0.745529 0.547926 0.608912 -0.194047
C7    C     C_R   0.707670 0.491928 0.500344 -0.015034
C8    C     C_R   0.742198 0.427133 0.396559 -0.207379
C9    C     C_R   0.814196 0.422178 0.398684 -0.163804
C10   C     C_R   0.852426 0.480249 0.506083 0.056831
C11   C     C_R   0.388998 0.117982 0.659702 -0.191659
C12   C     C_R   0.367554 0.498867 0.500997 0.756874
C13   C     C_R   0.339626 0.047937 0.737849 -0.136244
C14   C     C_R   0.340035 0.919153 0.738469 -0.128591
C15   C     C_R   0.389827 0.859509 0.660992 -0.169208
C16   C     C_R   0.441334 0.928565 0.583038 0.101279
C17   C     C_R   0.440926 0.059808 0.582489 0.098660
C18   C     C_R   0.491029 0.128523 0.500316 -0.097430
C19   C     C_R   0.537724 0.068602 0.415783 -0.199569
C20   C     C_R   0.537969 0.941159 0.416315 -0.209300
C21   C     C_R   0.491769 0.870576 0.501126 -0.096151
C22   C     C_R   0.576119 0.696962 0.134752 0.305385
C23   C     C_R   0.497379 0.737046 0.500344 0.771847
C24   C     C_R   0.587417 0.807922 0.060353 -0.242519
C25   C     C_R   0.591611 0.801782 0.917481 -0.244302
C26   C     C_R   0.574488 0.690073 0.852124 -0.138461
C27   C     C_R   0.536573 0.593889 0.923351 0.169409
C28   C     C_R   0.536892 0.595228 0.072285 0.168134
C29   C     C_R   0.464536 0.410676 0.074792 -0.070011
C30   C     C_R   0.464497 0.410814 0.927214 -0.058689
C31   C     C_R   0.632155 0.497846 0.499428 0.789149
C32   C     C_R   0.254589 0.515712 0.626895 -0.201302
C33   C     C_R   0.182293 0.511170 0.628354 -0.157147
C34   C     C_R   0.145529 0.485318 0.506024 0.059519
C35   C     C_R   0.182438 0.464679 0.382174 -0.159332
C36   C     C_R   0.254665 0.470103 0.380528 -0.180494
Cu1   Cu    Cu3+1 0.500000 0.499990 0.640660 0.927469
Cu2   Cu    Cu3+1 0.500000 0.500010 0.359340 0.954384
H1    H     H_    0.281623 0.535715 0.722686 0.148805
H2    H     H_    0.384873 0.217371 0.658273 0.139974
H3    H     H_    0.300210 0.093745 0.796500 0.136265
H4    H     H_    0.300921 0.865051 0.797564 0.136977
H5    H     H_    0.386297 0.759295 0.660863 0.153960
H6    H     H_    0.575831 0.898111 0.352394 0.128305
H7    H     H_    0.435248 0.337486 0.130267 0.139251
H8    H     H_    0.611800 0.889046 0.109842 0.144462
H9    H     H_    0.615034 0.879275 0.858929 0.165541
H10   H     H_    0.592838 0.681842 0.747650 0.193023
H11   H     H_    0.155287 0.527401 0.725478 0.151715
H12   H     H_    0.435146 0.337692 0.873332 0.134437
H13   H     H_    0.155616 0.445025 0.286105 0.151882
H14   H     H_    0.281697 0.453522 0.283475 0.149637
H15   H     H_    0.845211 0.587873 0.695922 0.152656
H16   H     H_    0.719689 0.597471 0.690816 0.136244
H17   H     H_    0.713521 0.380931 0.313695 0.147499
H18   H     H_    0.839794 0.372710 0.316517 0.154788
H19   H     H_    0.575535 0.121039 0.351487 0.149203
N1    N     N_R   0.033143 0.440196 0.394506 -0.240307
N2    N     N_R   0.964220 0.438582 0.394599 -0.239906
N3    N     N_R   0.964597 0.518674 0.620005 -0.240760
N4    N     N_R   0.033481 0.519957 0.620057 -0.240568
N5    N     N_R   0.500660 0.501210 0.147910 -0.193232
N6    N     N_R   0.500680 0.501290 0.852040 -0.190748
O1    O     O_R   0.499990 0.319640 0.618810 -0.579458
O2    O     O_R   0.500000 0.319660 0.381240 -0.581994
O3    O     O_R   0.400140 0.499970 0.618820 -0.593331
O4    O     O_R   0.400150 0.500000 0.381250 -0.577708
O5    O     O_R   0.500000 0.680340 0.618760 -0.599923
O6    O     O_R   0.500010 0.680360 0.381190 -0.567584
O7    O     O_R   0.599850 0.500000 0.618750 -0.598542
O8    O     O_R   0.599860 0.500030 0.381180 -0.535849
N7    N     N_2   0.629194 0.675311 0.229671 -0.377502
H20   H     H_    0.640545 0.747607 0.296911 0.222359
C37   C     C_3   0.691814 0.633004 0.164241 -0.683039
H21   H     H_    0.733134 0.628848 0.242147 0.233130
H22   H     H_    0.711510 0.698627 0.082036 0.218532
H23   H     H_    0.681515 0.539383 0.118278 0.232378

loop_
_geom_bond_atom_site_label_1
_geom_bond_atom_site_label_2
_ccdc_geom_bond_type
C16   C21   A    
C23   O6    A    
C35   C36   A    
C2    C12   S    
C13   H3    S    
C7    C8    A    
C19   H19   S    
C1    C18   S    
Cu1   Cu2   S    
C37   H22   S    
C5    H15   S    
C34   C35   A    
C5    C6    A    
C33   H11   S    
C15   C16   A    
Cu1   O5    S    
C2    C32   A    
C18   C19   A    
C32   H1    S    
Cu1   N6    S    
C29   N5    A    
C31   O7    A    
C19   C20   A    
C8    C9    A    
C37   H23   S    
C1    O2    A    
C9    C10   A    
C25   H9    S    
C36   H14   S    
C26   H10   S    
C14   H4    S    
C3    N3    A    
C31   O8    A    
C30   H12   S    
Cu2   O6    S    
C22   C28   A    
C13   C14   A    
C6    H16   S    
C8    H17   S    
C22   N7    S    
C20   H6    S    
C17   C18   A    
C12   O4    A    
C4    C34   S    
C7    C31   S    
C37   H21   S    
C24   C25   A    
N7    C37   S    
C16   C17   A    
C25   C26   A    
C12   O3    A    
C4    N4    A    
C29   H7    S    
N3    N4    A    
C23   O5    A    
C29   C30   A    
Cu2   O2    S    
Cu1   O3    S    
C33   C34   A    
C26   C27   A    
C9    H18   S    
Cu2   O4    S    
C27   N6    A    
C21   C23   S    
C35   H13   S    
C22   C24   A    
C1    O1    A    
Cu1   O1    S    
C2    C36   A    
Cu2   O8    S    
C11   C17   A    
N7    H20   S    
C6    C7    A    
C24   H8    S    
C32   C33   A    
N1    N2    A    
C15   H5    S    
C5    C10   A    
C3    C10   S    
C11   C13   A    
C11   H2    S    
C20   C21   A    
C4    N1    A    
C27   C28   A    
C14   C15   A    
C30   N6    A    
Cu1   O7    S    
C3    N2    A    
Cu2   N5    S    
C28   N5    A    
