data_mof_unit_62926.cif
_audit_creation_date              2012-12-10T17:19:41-0500
_audit_creation_method            fapswitch 2.2
_symmetry_space_group_name_H-M    P1
_symmetry_Int_Tables_number       1
_space_group_crystal_system       triclinic
_cell_length_a                    10.15925
_cell_length_b                    10.50287
_cell_length_c                    11.55149
_cell_angle_alpha                 90.035197
_cell_angle_beta                  81.760175
_cell_angle_gamma                 94.903035
_cell_volume                      1215.28664182

loop_
_atom_site_label
_atom_site_type_symbol
_atom_type_description
_atom_site_fract_x
_atom_site_fract_y
_atom_site_fract_z
_atom_type_partial_charge
C1    C     C_R   0.555323 0.734901 0.488664 0.890634
C2    C     C_2   0.415140 0.128537 0.487734 0.105003
C3    C     C_2   0.499570 0.930882 0.408771 0.488424
C4    C     C_2   0.499277 0.068872 0.408615 0.492130
C5    C     C_2   0.927143 0.509215 0.511878 0.529957
C6    C     C_2   0.072171 0.487199 0.491221 0.539280
C7    C     C_R   0.444544 0.265140 0.503018 0.890054
C8    C     C_R   0.500561 0.499962 0.717995 0.909330
C9    C     C_R   0.499439 0.500037 0.281995 0.901234
C10   C     C_1   0.501423 0.499835 0.838343 -0.093011
C11   C     C_1   0.498584 0.500173 0.161651 -0.080130
C12   C     C_1   0.500743 0.499916 0.940581 0.058602
C13   C     C_1   0.499271 0.500096 0.059414 0.060748
C14   C     C_2   0.583997 0.871622 0.466599 0.075847
F1    F     F_    0.596176 0.136040 0.333493 -0.620627
F2    F     F_    0.403264 0.863259 0.357634 -0.617589
F3    F     F_    0.116026 0.398157 0.412840 -0.626523
F4    F     F_    0.882535 0.594248 0.593877 -0.617648
H1    H     H_    0.121581 0.618339 0.605076 0.197112
H2    H     H_    0.879097 0.384847 0.391979 0.208304
H3    H     H_    0.118160 0.096315 0.709425 0.393449
H4    H     H_    0.876961 0.905942 0.618685 0.405731
N1    N     N_2   0.842700 0.448890 0.453570 -0.198440
N2    N     N_2   0.157300 0.551110 0.546430 -0.193825
O1    O     O_R   0.431060 0.692470 0.509350 -0.560532
O2    O     O_2   0.331464 0.949410 0.653283 -0.289529
O3    O     O_3   0.195621 0.148851 0.666794 -0.517813
O4    O     O_2   0.812672 0.021851 0.428279 -0.205266
O5    O     O_2   0.664412 0.052718 0.611070 -0.291662
O6    O     O_3   0.799849 0.853182 0.595137 -0.464944
O7    O     O_R   0.568940 0.307530 0.490650 -0.561901
O8    O     O_R   0.651120 0.659650 0.479540 -0.539583
O9    O     O_R   0.348880 0.340350 0.520460 -0.529082
O10   O     O_R   0.389960 0.516400 0.680450 -0.608817
O11   O     O_R   0.610040 0.483600 0.319550 -0.606466
O12   O     O_R   0.610030 0.483580 0.650650 -0.551414
O13   O     O_R   0.389970 0.516420 0.349350 -0.549849
O14   O     O_2   0.186820 0.977905 0.504449 -0.211650
S1    S     S_3+6 0.279512 0.045866 0.579203 0.068140
S2    S     S_3+6 0.717950 0.955129 0.525707 0.076302
Zn1   Zn    Zn3+2 0.353060 0.521910 0.519900 1.125087
Zn2   Zn    Zn3+2 0.646940 0.478090 0.480100 1.120934

loop_
_geom_bond_atom_site_label_1
_geom_bond_atom_site_label_2
_ccdc_geom_bond_type
C2    C4    D    
O10   Zn1   S    
C5    F4    S    
O7    Zn2   S    
C3    C14   D    
C7    O9    A    
O12   Zn2   S    
C2    C7    S    
C5    N1    D    
H2    N1    S    
C6    N2    D    
C4    F1    S    
C9    O13   A    
H1    N2    S    
H3    O3    S    
O6    S2    S    
C8    O10   A    
C12   C13   S    
C1    O1    A    
N2    Zn1   S    
C9    C11   S    
C5    C6    S    
N1    Zn2   S    
C10   C12   T    
O5    S2    D    
O11   Zn2   S    
O13   Zn1   S    
O14   S1    D    
O2    S1    D    
C7    O7    A    
O4    S2    D    
C14   S2    S    
C3    C4    S    
C11   C13   T    
O9    Zn1   S    
C8    C10   S    
C8    O12   A    
O1    Zn1   S    
C9    O11   A    
C6    F3    S    
O8    Zn2   S    
C1    C14   S    
H4    O6    S    
C2    S1    S    
C1    O8    A    
C3    F2    S    
O3    S1    S    
