data_mof_unit_32506.cif
_audit_creation_date              2012-12-11T14:52:33-0500
_audit_creation_method            fapswitch 2.2
_symmetry_space_group_name_H-M    P1
_symmetry_Int_Tables_number       1
_space_group_crystal_system       triclinic
_cell_length_a                    18.792768
_cell_length_b                    10.937988
_cell_length_c                    18.717143
_cell_angle_alpha                 89.983898
_cell_angle_beta                  90.755855
_cell_angle_gamma                 89.353892
_cell_volume                      3846.82391545

loop_
_atom_site_label
_atom_site_type_symbol
_atom_type_description
_atom_site_fract_x
_atom_site_fract_y
_atom_site_fract_z
_atom_type_partial_charge
C1    C     C_R   0.271899 0.042582 0.853514 0.541967
C2    C     C_R   0.710566 0.998527 0.138727 0.558825
C3    C     C_R   0.771899 0.542582 0.853514 0.541966
C4    C     C_R   0.210566 0.498528 0.138727 0.558825
C5    C     C_3   0.528863 0.728428 0.973094 -0.115745
C6    C     C_3   0.469206 0.725876 0.028980 -0.113905
C7    C     C_3   0.028864 0.228428 0.973094 -0.115745
C8    C     C_3   0.969206 0.225876 0.028980 -0.113905
C9    C     C_R   0.299044 0.516532 0.959299 -0.146060
C10   C     C_R   0.696388 0.533574 0.037113 -0.140318
C11   C     C_R   0.799043 0.016532 0.959299 -0.146060
C12   C     C_R   0.196388 0.033574 0.037113 -0.140318
C13   C     C_R   0.288013 0.488055 0.030909 -0.141144
C14   C     C_R   0.700242 0.520013 0.963275 -0.147590
C15   C     C_R   0.788013 0.988055 0.030909 -0.141144
C16   C     C_R   0.200242 0.020013 0.963275 -0.147590
C17   C     C_R   0.223845 0.522458 0.063500 0.023923
C18   C     C_R   0.754044 0.579347 0.925575 0.026891
C19   C     C_R   0.723845 0.022458 0.063500 0.023923
C20   C     C_R   0.254044 0.079347 0.925575 0.026891
C21   C     C_R   0.169897 0.579162 0.023133 -0.148555
C22   C     C_R   0.802314 0.654172 0.961831 -0.136433
C23   C     C_R   0.669897 0.079162 0.023133 -0.148555
C24   C     C_R   0.302314 0.154172 0.961831 -0.136433
C25   C     C_R   0.180345 0.605666 0.952172 -0.139552
C26   C     C_R   0.800884 0.662047 0.034771 -0.146450
C27   C     C_R   0.680345 0.105666 0.952172 -0.139553
C28   C     C_R   0.300884 0.162047 0.034771 -0.146450
C29   C     C_R   0.245607 0.578261 0.920117 0.030428
C30   C     C_R   0.747600 0.603391 0.073235 0.028491
C31   C     C_R   0.745607 0.078261 0.920117 0.030428
C32   C     C_R   0.247600 0.103391 0.073235 0.028491
C33   C     C_R   0.555492 0.794539 0.549620 -0.133239
C34   C     C_R   0.568502 0.794274 0.476863 -0.098450
C35   C     C_R   0.055491 0.294530 0.549620 -0.133243
C36   C     C_R   0.068500 0.294265 0.476863 -0.098458
C37   C     C_R   0.514776 0.830510 0.428165 0.045281
C38   C     C_R   0.489227 0.834046 0.573311 0.050656
C39   C     C_R   0.014776 0.330510 0.428165 0.045273
C40   C     C_R   0.989228 0.334046 0.573312 0.050656
C41   C     C_R   0.448088 0.867187 0.451724 -0.129616
C42   C     C_R   0.435605 0.870630 0.524580 -0.108968
C43   C     C_R   0.948091 0.367198 0.451724 -0.129618
C44   C     C_R   0.935607 0.370641 0.524581 -0.108963
C45   C     C_R   0.469921 0.821158 0.855856 0.545517
C46   C     C_R   0.528177 0.822083 0.145186 0.542775
C47   C     C_R   0.969921 0.321158 0.855856 0.545518
C48   C     C_R   0.028177 0.322083 0.145186 0.542774
C49   C     C_R   0.170200 0.574243 0.550180 0.037545
C50   C     C_R   0.814896 0.623582 0.463420 0.024217
C51   C     C_R   0.670200 0.074246 0.550179 0.037546
C52   C     C_R   0.314899 0.123570 0.463417 0.024215
C53   C     C_R   0.160198 0.549898 0.478276 -0.153165
C54   C     C_R   0.812847 0.631802 0.535881 -0.111264
C55   C     C_R   0.660198 0.049900 0.478275 -0.153166
C56   C     C_R   0.312851 0.131788 0.535878 -0.111266
C57   C     C_R   0.215952 0.503108 0.438143 -0.061525
C58   C     C_R   0.756608 0.581059 0.573483 -0.045526
C59   C     C_R   0.715952 0.003109 0.438143 -0.061525
C60   C     C_R   0.256611 0.081051 0.573480 -0.045521
C61   C     C_R   0.278710 0.463933 0.472268 -0.132732
C62   C     C_R   0.698123 0.532420 0.537519 -0.139051
C63   C     C_R   0.778710 0.963935 0.472268 -0.132732
C64   C     C_R   0.198125 0.032411 0.537517 -0.139067
C65   C     C_R   0.292650 0.497066 0.543085 0.224527
C66   C     C_R   0.695726 0.534383 0.463604 0.209041
C67   C     C_R   0.792650 0.997067 0.543085 0.224525
C68   C     C_R   0.195729 0.034374 0.463602 0.209047
C69   C     C_R   0.239329 0.560658 0.581188 0.040699
C70   C     C_R   0.753204 0.585648 0.426133 0.023899
C71   C     C_R   0.739329 0.060659 0.581188 0.040699
C72   C     C_R   0.253206 0.085641 0.426131 0.023916
C73   C     C_R   0.260067 0.634385 0.851232 0.546076
C74   C     C_R   0.739021 0.638630 0.147381 0.538030
C75   C     C_R   0.760067 0.134385 0.851232 0.546075
C76   C     C_R   0.239021 0.138630 0.147381 0.538030
C77   C     C_R   0.271316 0.046510 0.646016 0.543848
C78   C     C_R   0.707632 0.993153 0.361114 0.571746
C79   C     C_R   0.771315 0.546512 0.646017 0.543844
C80   C     C_R   0.207632 0.493152 0.361114 0.571747
C81   C     C_R   0.470247 0.823650 0.647227 0.545906
C82   C     C_R   0.530447 0.823648 0.353282 0.540507
C83   C     C_R   0.970247 0.323650 0.647227 0.545909
C84   C     C_R   0.030447 0.323648 0.353282 0.540502
C85   C     C_R   0.257964 0.630584 0.645626 0.573083
C86   C     C_R   0.741197 0.634010 0.355373 0.566757
C87   C     C_R   0.757964 0.130584 0.645626 0.573083
C88   C     C_R   0.241197 0.134008 0.355372 0.566768
C89   C     C_3   0.464620 0.927466 0.028943 -0.126838
C90   C     C_3   0.524107 0.929930 0.972446 -0.127749
C91   C     C_3   0.964620 0.427466 0.028943 -0.126838
C92   C     C_3   0.024107 0.429930 0.972446 -0.127749
C93   C     C_3   0.426941 0.824618 0.986706 -0.104355
C94   C     C_3   0.566508 0.831135 0.014708 -0.109362
C95   C     C_3   0.926941 0.324618 0.986706 -0.104355
C96   C     C_3   0.066507 0.331135 0.014708 -0.109361
C97   C     C_3   0.487277 0.827101 0.931824 0.056776
C98   C     C_3   0.506535 0.828623 0.070040 0.052802
C99   C     C_3   0.987277 0.327101 0.931824 0.056776
C100  C     C_3   0.006535 0.328623 0.070040 0.052802
Cr1   Cr    Cr6+3 0.229630 0.835900 0.747350 1.031841
Cr2   Cr    Cr6+3 0.770370 0.835900 0.252650 1.028809
Cr3   Cr    Cr6+3 0.729630 0.335900 0.747350 1.031842
Cr4   Cr    Cr6+3 0.270370 0.335900 0.252650 1.028808
Cr5   Cr    Cr6+3 0.387410 0.989850 0.750850 1.050823
Cr6   Cr    Cr6+3 0.612590 0.989850 0.249150 1.008103
Cr7   Cr    Cr6+3 0.887410 0.489850 0.750850 1.050823
Cr8   Cr    Cr6+3 0.112590 0.489850 0.249150 1.008101
Cr9   Cr    Cr6+3 0.385800 0.677120 0.749340 1.031462
Cr10  Cr    Cr6+3 0.614200 0.677120 0.250660 1.027156
Cr11  Cr    Cr6+3 0.885800 0.177120 0.749340 1.031461
Cr12  Cr    Cr6+3 0.114200 0.177120 0.250660 1.027167
H1    H     H_    0.369237 0.821824 0.973187 0.125136
H2    H     H_    0.624316 0.831396 0.027580 0.117247
H3    H     H_    0.869237 0.321824 0.973187 0.125136
H4    H     H_    0.124316 0.331396 0.027580 0.117246
H5    H     H_    0.108838 0.568847 0.453437 0.174518
H6    H     H_    0.859543 0.667705 0.562787 0.211077
H7    H     H_    0.608839 0.068851 0.453436 0.174526
H8    H     H_    0.359548 0.167688 0.562784 0.211075
H9    H     H_    0.318244 0.412812 0.442934 0.173565
H10   H     H_    0.655063 0.491237 0.566538 0.143701
H11   H     H_    0.818244 0.912814 0.442934 0.173568
H12   H     H_    0.155066 0.991232 0.566536 0.143688
H13   H     H_    0.438072 0.008103 0.053337 0.119334
H14   H     H_    0.544323 0.012674 0.945880 0.111795
H15   H     H_    0.938072 0.508103 0.053337 0.119334
H16   H     H_    0.044323 0.512674 0.945880 0.111795
H17   H     H_    0.555590 0.647777 0.948892 0.120033
H18   H     H_    0.445930 0.643004 0.053222 0.122196
H19   H     H_    0.055590 0.147777 0.948892 0.120033
H20   H     H_    0.945930 0.143004 0.053222 0.122196
H21   H     H_    0.350119 0.495657 0.935806 0.126147
H22   H     H_    0.653739 0.490234 0.065696 0.131892
H23   H     H_    0.850119 0.995658 0.935806 0.126147
H24   H     H_    0.153739 0.990234 0.065696 0.131892
H25   H     H_    0.330330 0.443317 0.061137 0.124303
H26   H     H_    0.662866 0.460591 0.936232 0.129084
H27   H     H_    0.830330 0.943317 0.061137 0.124304
H28   H     H_    0.162866 0.960591 0.936232 0.129084
H29   H     H_    0.119471 0.604496 0.046692 0.133887
H30   H     H_    0.844361 0.701468 0.934445 0.136948
H31   H     H_    0.619471 0.104496 0.046692 0.133887
H32   H     H_    0.344361 0.201468 0.934445 0.136948
H33   H     H_    0.138140 0.653764 0.923499 0.131413
H34   H     H_    0.840771 0.718163 0.060545 0.130145
H35   H     H_    0.638140 0.153764 0.923499 0.131413
H36   H     H_    0.340771 0.218163 0.060545 0.130145
H37   H     H_    0.596393 0.763706 0.586994 0.117992
H38   H     H_    0.620333 0.765299 0.458224 0.137438
H39   H     H_    0.096390 0.263690 0.586994 0.117993
H40   H     H_    0.120330 0.265283 0.458223 0.137443
H41   H     H_    0.405947 0.891088 0.414065 0.134060
H42   H     H_    0.383145 0.896353 0.543032 0.126159
H43   H     H_    0.905950 0.391105 0.414066 0.134062
H44   H     H_    0.883149 0.396371 0.543032 0.126166
O1    O     O_R   0.214270 0.709000 0.827470 -0.520986
O2    O     O_R   0.785730 0.709000 0.172530 -0.530722
O3    O     O_R   0.714270 0.209000 0.827470 -0.520987
O4    O     O_R   0.285730 0.209000 0.172530 -0.530722
O5    O     O_R   0.445950 0.919440 0.676520 -0.471057
O6    O     O_R   0.554050 0.919440 0.323480 -0.510459
O7    O     O_R   0.945950 0.419440 0.676520 -0.471056
O8    O     O_R   0.054050 0.419440 0.323480 -0.510462
O9    O     O_R   0.456730 0.717630 0.669840 -0.539052
O10   O     O_R   0.543270 0.717630 0.330160 -0.490540
O11   O     O_R   0.956730 0.217630 0.669840 -0.539052
O12   O     O_R   0.043270 0.217630 0.330160 -0.490541
O13   O     O_R   0.320620 0.625640 0.672920 -0.464638
O14   O     O_R   0.679380 0.625640 0.327080 -0.456470
O15   O     O_R   0.820620 0.125640 0.672920 -0.464638
O16   O     O_R   0.179380 0.125640 0.327080 -0.456461
O17   O     O_3   0.334280 0.834290 0.749180 -0.261795
O18   O     O_3   0.665720 0.834290 0.250820 -0.301396
O19   O     O_3   0.834280 0.334290 0.749180 -0.261795
O20   O     O_3   0.165720 0.334290 0.250820 -0.301398
O21   O     O_R   0.236160 0.958490 0.823130 -0.508128
O22   O     O_R   0.763840 0.958490 0.176870 -0.495975
O23   O     O_R   0.736160 0.458490 0.823130 -0.508129
O24   O     O_R   0.263840 0.458490 0.176870 -0.495975
O25   O     O_R   0.332080 0.075470 0.831280 -0.520796
O26   O     O_R   0.667920 0.075470 0.168720 -0.510894
O27   O     O_R   0.832080 0.575470 0.831280 -0.520797
O28   O     O_R   0.167920 0.575470 0.168720 -0.510893
O29   O     O_R   0.446300 0.918110 0.826620 -0.498298
O30   O     O_R   0.553700 0.918110 0.173380 -0.518331
O31   O     O_R   0.946300 0.418110 0.826620 -0.498297
O32   O     O_R   0.053700 0.418110 0.173380 -0.518331
O33   O     O_R   0.457110 0.716200 0.831760 -0.524912
O34   O     O_R   0.542890 0.716200 0.168240 -0.517744
O35   O     O_R   0.957110 0.216200 0.831760 -0.524912
O36   O     O_R   0.042890 0.216200 0.168240 -0.517743
O37   O     O_R   0.320980 0.624310 0.823030 -0.506075
O38   O     O_R   0.679020 0.624310 0.176970 -0.507948
O39   O     O_R   0.820980 0.124310 0.823030 -0.506075
O40   O     O_R   0.179020 0.124310 0.176970 -0.507946
O41   O     O_R   0.213890 0.710430 0.665540 -0.493099
O42   O     O_R   0.786110 0.710430 0.334460 -0.499099
O43   O     O_R   0.713890 0.210430 0.665540 -0.493098
O44   O     O_R   0.286110 0.210430 0.334460 -0.499104
O45   O     O_R   0.235810 0.959820 0.673020 -0.504846
O46   O     O_R   0.764190 0.959820 0.326980 -0.489176
O47   O     O_R   0.735810 0.459820 0.673020 -0.504845
O48   O     O_R   0.264190 0.459820 0.326980 -0.489176
O49   O     O_R   0.331700 0.076900 0.669350 -0.507912
O50   O     O_R   0.668300 0.076900 0.330650 -0.523949
O51   O     O_R   0.831700 0.576900 0.669350 -0.507914
O52   O     O_R   0.168300 0.576900 0.330650 -0.523946
I1    I     I_    0.076421 0.631704 0.604602 -0.398733
I2    I     I_    0.914788 0.675815 0.419115 -0.454815
I3    I     I_    0.576421 0.131709 0.604601 -0.398719
I4    I     I_    0.414790 0.175800 0.419110 -0.454799
O53   O     O_3   0.355873 0.461137 0.576398 -0.541165
C101  C     C_3   0.414139 0.516591 0.542551 0.015805
H45   H     H_    0.410336 0.617532 0.547795 0.153975
H46   H     H_    0.417382 0.492931 0.484952 0.133358
C102  C     C_3   0.482995 0.471874 0.577608 -0.325653
H47   H     H_    0.490226 0.372669 0.567298 0.186739
H48   H     H_    0.528471 0.521668 0.554734 0.119054
H49   H     H_    0.481831 0.487448 0.636166 0.183811
O54   O     O_3   0.633610 0.500952 0.428975 -0.544766
C103  C     C_3   0.632698 0.372793 0.421577 -0.010263
H50   H     H_    0.619030 0.329683 0.473380 0.156513
H51   H     H_    0.684672 0.335087 0.402863 0.141398
C104  C     C_3   0.576037 0.340429 0.366351 -0.317604
H52   H     H_    0.591146 0.375848 0.313103 0.154117
H53   H     H_    0.570392 0.239797 0.363115 0.154241
H54   H     H_    0.524201 0.381985 0.381485 0.179376
O55   O     O_3   0.855873 0.961137 0.576398 -0.541167
C105  C     C_3   0.914139 0.016590 0.542551 0.015809
H55   H     H_    0.910338 0.117531 0.547795 0.153975
H56   H     H_    0.917383 0.992929 0.484953 0.133364
C106  C     C_3   0.982995 0.971871 0.577609 -0.325659
H57   H     H_    0.990224 0.872666 0.567301 0.186733
H58   H     H_    0.028471 0.021663 0.554735 0.119042
H59   H     H_    0.981831 0.987448 0.636167 0.183813
O56   O     O_3   0.133613 0.000941 0.428970 -0.544762
C107  C     C_3   0.132684 0.872776 0.421605 -0.010275
H60   H     H_    0.118979 0.829713 0.473412 0.156517
H61   H     H_    0.184663 0.835025 0.402930 0.141398
C108  C     C_3   0.076047 0.840400 0.366356 -0.317586
H62   H     H_    0.091191 0.875771 0.313108 0.154123
H63   H     H_    0.070387 0.739768 0.363142 0.154246
H64   H     H_    0.024208 0.881993 0.381452 0.179369

loop_
_geom_bond_atom_site_label_1
_geom_bond_atom_site_label_2
_ccdc_geom_bond_type
C58   C62   A    
C74   O38   A    
Cr11  O35   S    
C88   O16   A    
C73   O37   A    
C63   H11   S    
C34   C37   A    
Cr4   O44   S    
C41   C42   A    
C14   C18   A    
Cr9   O17   S    
Cr1   O17   S    
C35   C36   A    
C40   C83   S    
C87   O43   A    
C6    H18   S    
Cr3   O3    S    
Cr2   O2    S    
C1    O25   A    
C5    C94   S    
C34   H38   S    
C7    C8    S    
C35   H39   S    
C55   H7    S    
O53   C101  S    
C102  H49   S    
C15   C19   A    
C7    C96   S    
Cr8   O8    S    
C107  C108  S    
C10   H22   S    
C50   C54   A    
C91   H15   S    
C96   C100  S    
C105  C106  S    
Cr11  O19   S    
C64   C68   A    
C42   H42   S    
Cr4   O4    S    
C39   C84   S    
C48   O32   A    
C11   H23   S    
C68   O56   S    
Cr2   O42   S    
C82   O10   A    
C5    C6    S    
C30   C74   S    
C53   H5    S    
Cr3   O23   S    
C29   C73   S    
C94   C98   S    
C95   C99   S    
Cr12  O12   S    
C73   O1    A    
C92   C96   S    
C104  H54   S    
C47   C99   S    
C51   C55   A    
C3    C18   S    
C61   H9    S    
C108  H62   S    
C2    O26   A    
Cr1   O41   S    
Cr5   O29   S    
C57   C61   A    
C26   H34   S    
C9    C13   A    
Cr6   O26   S    
C3    O23   A    
C76   O40   A    
C11   C15   A    
C89   H13   S    
Cr12  O40   S    
C14   H26   S    
Cr9   O33   S    
Cr10  O38   S    
Cr8   O52   S    
Cr9   O37   S    
C23   C27   A    
C91   C100  S    
Cr3   O47   S    
C106  H57   S    
C90   C97   S    
Cr7   O51   S    
C84   O8    A    
C9    C29   A    
Cr8   O32   S    
C5    H17   S    
C65   O53   S    
C46   C98   S    
C11   C31   A    
C49   C69   A    
O56   C107  S    
C12   C32   A    
C89   C93   S    
C56   H8    S    
C57   C80   S    
C23   H31   S    
Cr6   O50   S    
C16   H28   S    
C8    C95   S    
C1    O21   A    
C4    O24   A    
C66   O54   S    
C43   H43   S    
C92   H16   S    
C59   C78   S    
C72   C88   S    
Cr9   O13   S    
C90   C94   S    
C15   H27   S    
Cr10  O18   S    
C25   C29   A    
C48   C100  S    
C107  H61   S    
C60   C77   S    
C28   H36   S    
Cr8   O28   S    
C27   C31   A    
C94   H2    S    
C12   C16   A    
C28   C32   A    
C62   C66   A    
Cr6   O30   S    
Cr4   O20   S    
C10   C14   A    
C95   H3    S    
C91   C92   S    
C74   O2    A    
C101  H45   S    
C36   H40   S    
C39   C43   A    
C82   O6    A    
C103  C104  S    
C78   O46   A    
C102  H47   S    
C64   H12   S    
C83   O11   A    
Cr10  O34   S    
C17   C21   A    
C56   C60   A    
Cr7   O27   S    
C68   C72   A    
C108  H63   S    
C13   H25   S    
Cr4   O24   S    
C105  H56   S    
C43   C44   A    
C78   O50   A    
C63   C67   A    
C8    H20   S    
O55   C105  S    
C52   C72   A    
C77   O49   A    
Cr12  O36   S    
O54   C103  S    
C10   C30   A    
C93   C97   S    
C31   C75   S    
C45   C97   S    
C16   C20   A    
C6    C93   S    
C87   O15   A    
C22   H30   S    
Cr3   O19   S    
C33   C34   A    
Cr6   O18   S    
C75   O39   A    
Cr3   O43   S    
C4    O28   A    
C103  H51   S    
Cr12  O16   S    
C106  H58   S    
C50   I2    S    
C7    C99   S    
C58   C79   S    
C86   O42   A    
C71   C87   S    
C4    C17   S    
Cr10  O14   S    
Cr4   O48   S    
C45   O33   A    
C44   H44   S    
Cr12  O20   S    
C5    C97   S    
C26   C30   A    
Cr9   O9    S    
C79   O47   A    
C54   H6    S    
C38   C81   S    
C12   H24   S    
Cr2   O22   S    
Cr5   O5    S    
C37   C82   S    
Cr2   O18   S    
C47   O31   A    
C70   C86   S    
C6    C98   S    
C62   H10   S    
C69   C85   S    
C55   C59   A    
C19   C23   A    
Cr5   O17   S    
C54   C58   A    
C75   O3    A    
C21   C25   A    
C107  H60   S    
C76   O4    A    
C1    C20   S    
C53   C57   A    
C41   H41   S    
C80   O52   A    
C2    C19   S    
C86   O14   A    
C7    H19   S    
C83   O7    A    
C36   C39   A    
C24   C28   A    
C67   O55   S    
Cr7   O7    S    
C101  C102  S    
C77   O45   A    
C32   C76   S    
C25   H33   S    
C51   C71   A    
C47   O35   A    
Cr5   O49   S    
Cr6   O6    S    
C102  H48   S    
C66   C70   A    
C59   C63   A    
C33   C38   A    
C13   C17   A    
C89   C98   S    
C60   C64   A    
C108  H64   S    
C88   O44   A    
C18   C22   A    
C35   C40   A    
C8    C100  S    
C101  H46   S    
C21   H29   S    
C105  H55   S    
C33   H37   S    
C81   O5    A    
Cr10  O10   S    
C45   O29   A    
C46   O34   A    
Cr7   O19   S    
C24   H32   S    
C65   C69   A    
Cr8   O20   S    
C104  H53   S    
C91   C95   S    
C93   H1    S    
C67   C71   A    
C79   O51   A    
C61   C65   A    
C37   C41   A    
C103  H50   S    
C106  H59   S    
C85   O13   A    
C50   C70   A    
C48   O36   A    
C49   C53   A    
Cr1   O21   S    
Cr1   O1    S    
C38   C42   A    
C51   I3    S    
C90   H14   S    
C40   C44   A    
Cr11  O11   S    
C84   O12   A    
C46   O30   A    
Cr2   O46   S    
C27   H35   S    
C22   C26   A    
C49   I1    S    
C52   I4    S    
C81   O9    A    
C85   O41   A    
C96   H4    S    
Cr7   O31   S    
Cr1   O45   S    
C2    O22   A    
Cr5   O25   S    
C89   C90   S    
C80   O48   A    
C3    O27   A    
C20   C24   A    
C52   C56   A    
C92   C99   S    
Cr11  O39   S    
C104  H52   S    
Cr11  O15   S    
C9    H21   S    
