data_mof_unit_49642.cif
_audit_creation_date              2012-12-11T16:34:23-0500
_audit_creation_method            fapswitch 2.2
_symmetry_space_group_name_H-M    P1
_symmetry_Int_Tables_number       1
_space_group_crystal_system       monoclinic
_cell_length_a                    25.652094
_cell_length_b                    7.259949
_cell_length_c                    23.278156
_cell_angle_alpha                 90.0
_cell_angle_beta                  104.348448
_cell_angle_gamma                 90.0
_cell_volume                      4199.92972339

loop_
_atom_site_label
_atom_site_type_symbol
_atom_type_description
_atom_site_fract_x
_atom_site_fract_y
_atom_site_fract_z
_atom_type_partial_charge
O1    O     O_R   0.438720 0.630760 0.439780 -0.536474
O2    O     O_R   0.061280 0.869240 0.060220 -0.530843
O3    O     O_R   0.561280 0.130760 0.560220 -0.536474
O4    O     O_R   0.938720 0.369240 0.939780 -0.530843
O5    O     O_R   0.546410 0.956760 0.446260 -0.542658
O6    O     O_R   0.953590 0.543240 0.053740 -0.543096
O7    O     O_R   0.453590 0.456760 0.553740 -0.542658
O8    O     O_R   0.046410 0.043240 0.946260 -0.543096
C1    C     C_R   0.562494 0.791689 0.434139 0.712672
C2    C     C_R   0.937438 0.708383 0.065822 0.708864
C3    C     C_R   0.437505 0.291689 0.565861 0.712674
C4    C     C_R   0.062562 0.208383 0.934178 0.708864
O9    O     O_R   0.438220 0.960230 0.432810 -0.539211
O10   O     O_R   0.061780 0.539770 0.067190 -0.535532
O11   O     O_R   0.561780 0.460230 0.567190 -0.539211
O12   O     O_R   0.938220 0.039770 0.932810 -0.535532
O13   O     O_R   0.452310 0.134250 0.546660 -0.536723
O14   O     O_R   0.047690 0.365750 0.953340 -0.539387
O15   O     O_R   0.547690 0.634250 0.453340 -0.536723
O16   O     O_R   0.952310 0.865750 0.046660 -0.539388
C5    C     C_R   0.418650 0.791712 0.416757 0.704536
C6    C     C_R   0.081024 0.708035 0.083073 0.697971
C7    C     C_R   0.581350 0.291712 0.583243 0.704536
C8    C     C_R   0.918975 0.208035 0.916927 0.697972
O17   O     O_3   0.504750 0.798450 0.537370 -0.377442
O18   O     O_3   0.995250 0.701550 0.962630 -0.375808
O19   O     O_3   0.495250 0.298450 0.462630 -0.377442
O20   O     O_3   0.004750 0.201550 0.037370 -0.375808
V1    V     V_3+5 0.499120 0.071860 0.493070 1.383484
V2    V     V_3+5 0.000880 0.428140 0.006930 1.407135
V3    V     V_3+5 0.500880 0.571860 0.506930 1.383484
V4    V     V_3+5 0.999120 0.928140 0.993070 1.407135
C9    C     C_R   0.713727 0.112359 0.681024 0.403839
C10   C     C_R   0.772121 0.241619 0.833349 0.445477
C11   C     C_R   0.286273 0.612360 0.318977 0.403840
C12   C     C_R   0.227879 0.741619 0.166651 0.445477
C13   C     C_R   0.665054 0.124907 0.636544 -0.253731
C14   C     C_R   0.819257 0.235818 0.879926 -0.262472
C15   C     C_R   0.334946 0.624908 0.363456 -0.253732
C16   C     C_R   0.180743 0.735818 0.120074 -0.262472
H1    H     H_    0.653461 0.013131 0.605305 0.133908
H2    H     H_    0.816208 0.244556 0.925451 0.110764
H3    H     H_    0.346539 0.513133 0.394696 0.133908
H4    H     H_    0.183792 0.744555 0.074549 0.110764
C17   C     C_R   0.631526 0.280402 0.631781 -0.092576
C18   C     C_R   0.869944 0.216834 0.867907 -0.069196
C19   C     C_R   0.368474 0.780402 0.368219 -0.092575
C20   C     C_R   0.130056 0.716834 0.132093 -0.069196
C21   C     C_R   0.646472 0.422553 0.673518 -0.198641
C22   C     C_R   0.873501 0.207068 0.808885 -0.170647
C23   C     C_R   0.353528 0.922552 0.326482 -0.198641
C24   C     C_R   0.126499 0.707068 0.191115 -0.170647
H5    H     H_    0.621528 0.543987 0.671269 0.138556
H6    H     H_    0.912342 0.192401 0.798877 0.115755
H7    H     H_    0.378472 0.043985 0.328731 0.138556
H8    H     H_    0.087658 0.692401 0.201123 0.115755
C25   C     C_R   0.693363 0.408021 0.719395 -0.163133
C26   C     C_R   0.827057 0.219438 0.762311 -0.153276
C27   C     C_R   0.306637 0.908020 0.280604 -0.163133
C28   C     C_R   0.172943 0.719438 0.237688 -0.153275
H9    H     H_    0.703720 0.518814 0.751343 0.161883
H10   H     H_    0.830881 0.215273 0.717022 0.131081
H11   H     H_    0.296281 0.018812 0.248656 0.161883
H12   H     H_    0.169119 0.715273 0.282978 0.131082
C29   C     C_R   0.727096 0.253296 0.723884 0.025643
C30   C     C_R   0.776102 0.239160 0.773918 0.035910
C31   C     C_R   0.272904 0.753296 0.276116 0.025643
C32   C     C_R   0.223898 0.739159 0.226082 0.035910
C33   C     C_R   0.124560 0.388439 0.886725 -0.225570
C34   C     C_R   0.388901 0.111811 0.628943 -0.229339
C35   C     C_R   0.875440 0.888439 0.113276 -0.225569
C36   C     C_R   0.611099 0.611811 0.371056 -0.229339
H13   H     H_    0.113339 0.513591 0.905972 0.135055
H14   H     H_    0.407450 0.986616 0.618250 0.137012
H15   H     H_    0.886661 0.013591 0.094028 0.135055
H16   H     H_    0.592549 0.486616 0.381749 0.137012
C37   C     C_R   0.163134 0.400049 0.853321 0.447138
C38   C     C_R   0.354942 0.100441 0.667768 0.448504
C39   C     C_R   0.836866 0.900049 0.146679 0.447138
C40   C     C_R   0.645058 0.600441 0.332231 0.448505
C41   C     C_R   0.177448 0.240280 0.825577 -0.082499
C42   C     C_R   0.327973 0.260212 0.680594 -0.082946
C43   C     C_R   0.822552 0.740280 0.174423 -0.082498
C44   C     C_R   0.672027 0.760212 0.319406 -0.082946
C45   C     C_R   0.153676 0.071326 0.834673 -0.191785
C46   C     C_R   0.338956 0.429522 0.656417 -0.196519
C47   C     C_R   0.846324 0.571326 0.165327 -0.191785
C48   C     C_R   0.661044 0.929522 0.343583 -0.196519
H17   H     H_    0.163599 0.946083 0.814493 0.198710
H18   H     H_    0.319595 0.554955 0.665427 0.199210
H19   H     H_    0.836401 0.446083 0.185506 0.198710
H20   H     H_    0.680404 0.054955 0.334572 0.199210
C49   C     C_R   0.116418 0.060669 0.869475 -0.175337
C50   C     C_R   0.374635 0.440283 0.619784 -0.181024
C51   C     C_R   0.883582 0.560669 0.130525 -0.175337
C52   C     C_R   0.625365 0.940283 0.380216 -0.181024
H21   H     H_    0.099264 0.927756 0.875315 0.145363
H22   H     H_    0.381822 0.573369 0.602170 0.144797
H23   H     H_    0.900736 0.427756 0.124684 0.145363
H24   H     H_    0.618178 0.073369 0.397830 0.144797
C53   C     C_R   0.101403 0.218987 0.896078 -0.109173
C54   C     C_R   0.399914 0.281466 0.605336 -0.109850
C55   C     C_R   0.898596 0.718987 0.103922 -0.109173
C56   C     C_R   0.600086 0.781466 0.394664 -0.109850
N1    N     N_R   0.235506 0.087577 0.768917 -0.293823
N2    N     N_R   0.269072 0.412553 0.736238 -0.293201
N3    N     N_R   0.764493 0.587577 0.231082 -0.293823
N4    N     N_R   0.730928 0.912553 0.263762 -0.293201
N5    N     N_R   0.270562 0.091640 0.735146 -0.239637
N6    N     N_R   0.233892 0.408479 0.769841 -0.239934
N7    N     N_R   0.729438 0.591640 0.264854 -0.239637
N8    N     N_R   0.766108 0.908479 0.230159 -0.239934
C57   C     C_R   0.288497 0.254172 0.718309 0.512152
C58   C     C_R   0.216495 0.246013 0.787336 0.512748
C59   C     C_R   0.711503 0.754172 0.281691 0.512152
C60   C     C_R   0.783505 0.746013 0.212664 0.512747
O21   O     O_3   0.745693 0.955212 0.687689 -0.580949
C61   C     C_3   0.757974 0.902104 0.633896 0.060083
H25   H     H_    0.802410 0.889528 0.642564 0.141614
H26   H     H_    0.745852 0.004416 0.597187 0.106492
C62   C     C_3   0.733112 0.713378 0.614485 -0.301744
H27   H     H_    0.752062 0.608520 0.647947 0.205476
H28   H     H_    0.689319 0.716133 0.611842 0.196639
C63   C     C_3   0.741251 0.657168 0.554162 -0.818568
H29   H     H_    0.720998 0.756807 0.519552 0.235396
H30   H     H_    0.723526 0.518627 0.542139 0.231519
H31   H     H_    0.784836 0.651640 0.555640 0.235425
O22   O     O_3   0.722179 0.259859 0.845509 -0.580399
C64   C     C_3   0.706899 0.091770 0.867606 0.050886
H32   H     H_    0.675278 0.124522 0.891084 0.154671
H33   H     H_    0.740406 0.025186 0.900915 0.114926
C65   C     C_3   0.682970 0.957450 0.817001 -0.318580
H34   H     H_    0.650792 0.027953 0.783370 0.212386
H35   H     H_    0.714832 0.912062 0.795398 0.214163
C66   C     C_3   0.659315 0.787530 0.839741 -0.816712
H36   H     H_    0.691203 0.711595 0.872076 0.245620
H37   H     H_    0.641753 0.694631 0.802020 0.235916
H38   H     H_    0.626977 0.828031 0.861336 0.227209
O23   O     O_3   0.254306 0.455213 0.312312 -0.580949
C67   C     C_3   0.242026 0.402103 0.366105 0.060085
H39   H     H_    0.197591 0.389524 0.357437 0.141614
H40   H     H_    0.254148 0.504415 0.402813 0.106492
C68   C     C_3   0.266890 0.213378 0.385516 -0.301745
H41   H     H_    0.247940 0.108519 0.352054 0.205476
H42   H     H_    0.310683 0.216136 0.388157 0.196640
C69   C     C_3   0.258752 0.157167 0.445839 -0.818566
H43   H     H_    0.279005 0.256809 0.480449 0.235395
H44   H     H_    0.276480 0.018629 0.457862 0.231519
H45   H     H_    0.215168 0.151634 0.444363 0.235425
O24   O     O_3   0.277821 0.759858 0.154491 -0.580399
C70   C     C_3   0.293101 0.591769 0.132394 0.050886
H46   H     H_    0.324722 0.624521 0.108916 0.154671
H47   H     H_    0.259594 0.525184 0.099086 0.114926
C71   C     C_3   0.317030 0.457450 0.182999 -0.318580
H48   H     H_    0.349208 0.527955 0.216630 0.212386
H49   H     H_    0.285168 0.412063 0.204602 0.214163
C72   C     C_3   0.340685 0.287530 0.160260 -0.816712
H50   H     H_    0.308797 0.211594 0.127925 0.245620
H51   H     H_    0.358248 0.194632 0.197981 0.235916
H52   H     H_    0.373024 0.328031 0.138664 0.227209
O25   O     O_3   0.183524 0.571618 0.845027 -0.569176
C73   C     C_3   0.232574 0.601725 0.887951 0.108302
H53   H     H_    0.256712 0.698454 0.867986 0.174573
H54   H     H_    0.257380 0.474353 0.899439 0.092790
C74   C     C_3   0.222611 0.689917 0.944181 -0.362017
H55   H     H_    0.192611 0.802245 0.931912 0.213324
H56   H     H_    0.206456 0.584992 0.969923 0.175235
C75   C     C_3   0.274323 0.769563 0.983352 -0.833904
H57   H     H_    0.304939 0.659368 0.996901 0.223798
H58   H     H_    0.265773 0.831526 0.023650 0.245562
H59   H     H_    0.290551 0.878836 0.959220 0.235076
O26   O     O_3   0.346562 0.929534 0.690190 -0.569450
C76   C     C_3   0.381976 0.905641 0.746994 0.099744
H60   H     H_    0.362201 0.809149 0.772051 0.170198
H61   H     H_    0.389397 0.035551 0.773471 0.097012
C77   C     C_3   0.435467 0.820435 0.742189 -0.349814
H62   H     H_    0.427489 0.695384 0.713910 0.211521
H63   H     H_    0.458012 0.920564 0.721509 0.186767
C78   C     C_3   0.470459 0.767760 0.803035 -0.824024
H64   H     H_    0.479383 0.891184 0.832023 0.230108
H65   H     H_    0.509047 0.708720 0.798076 0.235287
H66   H     H_    0.449720 0.663081 0.824230 0.230927
O27   O     O_3   0.816475 0.071618 0.154973 -0.569176
C79   C     C_3   0.767425 0.101725 0.112049 0.108302
H67   H     H_    0.743288 0.198454 0.132014 0.174574
H68   H     H_    0.742620 0.974353 0.100561 0.092790
C80   C     C_3   0.777389 0.189918 0.055819 -0.362018
H69   H     H_    0.807389 0.302245 0.068088 0.213324
H70   H     H_    0.793544 0.084992 0.030077 0.175236
C81   C     C_3   0.725677 0.269564 0.016648 -0.833904
H71   H     H_    0.695060 0.159369 0.003099 0.223798
H72   H     H_    0.734226 0.331526 0.976350 0.245562
H73   H     H_    0.709449 0.378836 0.040781 0.235076
O28   O     O_3   0.653438 0.429534 0.309810 -0.569449
C82   C     C_3   0.618024 0.405641 0.253005 0.099744
H74   H     H_    0.637799 0.309149 0.227948 0.170198
H75   H     H_    0.610602 0.535552 0.226528 0.097013
C83   C     C_3   0.564533 0.320435 0.257811 -0.349813
H76   H     H_    0.572511 0.195384 0.286089 0.211521
H77   H     H_    0.541987 0.420564 0.278491 0.186767
C84   C     C_3   0.529541 0.267761 0.196964 -0.824024
H78   H     H_    0.520617 0.391185 0.167977 0.230108
H79   H     H_    0.490952 0.208722 0.201924 0.235287
H80   H     H_    0.550280 0.163082 0.175769 0.230927

loop_
_geom_bond_atom_site_label_1
_geom_bond_atom_site_label_2
_ccdc_geom_bond_type
C26   H10   S    
C66   H38   S    
C6    C20   S    
C48   C52   A    
C9    O21   S    
C81   H71   S    
C7    C17   S    
C47   H19   S    
C34   C38   A    
O13   V1    S    
C84   H78   S    
O12   C8    A    
C33   C37   A    
C67   C68   S    
C40   C44   A    
O4    V2    S    
O15   V3    S    
O22   C64   S    
C10   C30   A    
C35   C39   A    
O25   C73   S    
C9    C29   A    
C66   H36   S    
C76   H60   S    
O1    C5    A    
C82   C83   S    
C74   H55   S    
N4    C59   A    
C63   H30   S    
C2    C55   S    
C67   H40   S    
C73   H53   S    
C20   C24   A    
C65   C66   S    
O16   V4    S    
O4    C8    A    
C51   H23   S    
C75   H58   S    
O19   V1    S    
C50   H22   S    
C68   H41   S    
C73   C74   S    
C68   H42   S    
O1    V3    S    
C21   C25   A    
C79   H67   S    
O2    V4    S    
C70   C71   S    
O3    V1    S    
C16   C20   A    
C61   H25   S    
C62   C63   S    
N1    N5    A    
C24   C28   A    
C81   H73   S    
C11   O23   S    
C45   C49   A    
C26   C30   A    
C72   H50   S    
C48   H20   S    
C2    O16   A    
C65   H34   S    
C80   C81   S    
C47   C51   A    
C41   C58   S    
C34   H14   S    
C70   H46   S    
C33   H13   S    
C83   H76   S    
O14   V2    S    
C11   C31   A    
C46   C50   A    
N6    C58   A    
C71   H49   S    
N5    C57   A    
C78   H66   S    
C27   C31   A    
O11   C7    A    
O28   C82   S    
C74   H56   S    
C84   H79   S    
O10   V2    S    
C43   C60   S    
C1    O15   A    
O7    C3    A    
C69   H44   S    
C77   C78   S    
C37   O25   S    
C62   H28   S    
C51   C55   A    
C31   C32   S    
O8    V4    S    
N1    C58   A    
C12   C16   A    
O7    V3    S    
C67   H39   S    
C71   C72   S    
C46   H18   S    
C68   C69   S    
C49   C53   A    
C45   H17   S    
O18   V4    S    
C19   C23   A    
N2    C57   A    
O3    C7    A    
C42   C46   A    
C9    C13   A    
N4    N8    A    
C61   C62   S    
C22   C26   A    
C72   H51   S    
C11   C15   A    
O27   C79   S    
O5    C1    A    
C69   H45   S    
N7    C59   A    
C38   C42   A    
C80   H69   S    
C37   C41   A    
O8    C4    A    
C83   C84   S    
C38   O26   S    
C17   C21   A    
C71   H48   S    
O9    C5    A    
C36   H16   S    
C22   H6    S    
C64   H33   S    
O11   V3    S    
C50   C54   A    
C62   H27   S    
C76   H61   S    
C63   H31   S    
C10   O22   S    
C75   H57   S    
O6    V2    S    
C44   C59   S    
C52   C56   A    
C84   H80   S    
C82   H75   S    
C23   C27   A    
C13   C17   A    
O5    V1    S    
C49   H21   S    
N8    C60   A    
C40   O28   S    
O26   C76   S    
C15   C19   A    
C69   H43   S    
N2    N6    A    
C76   C77   S    
O9    V1    S    
C12   O24   S    
C66   H37   S    
C35   C55   A    
C3    O13   A    
C81   H72   S    
C10   C14   A    
N3    N7    A    
O17   V3    S    
C44   C48   A    
C42   C57   S    
C25   C29   A    
C43   C47   A    
O6    C2    A    
C15   H3    S    
O23   C67   S    
C12   C32   A    
C25   H9    S    
C74   C75   S    
C33   C53   A    
C72   H52   S    
O12   V4    S    
C36   C56   A    
C18   C22   A    
C27   H11   S    
C79   H68   S    
C79   C80   S    
C28   H12   S    
C8    C18   S    
C64   C65   S    
O20   V2    S    
C64   H32   S    
C4    C53   S    
C36   C40   A    
C73   H54   S    
O2    C6    A    
C14   C18   A    
C35   H15   S    
O10   C6    A    
C34   C54   A    
C1    C56   S    
C21   H5    S    
C52   H24   S    
C77   H63   S    
C39   O27   S    
C3    C54   S    
C23   H7    S    
C70   H47   S    
C13   H1    S    
C61   H26   S    
N3    C60   A    
C80   H70   S    
C77   H62   S    
C82   H74   S    
C39   C43   A    
C14   H2    S    
C16   H4    S    
C28   C32   A    
C65   H35   S    
C29   C30   S    
C4    O14   A    
C78   H64   S    
O24   C70   S    
C83   H77   S    
C75   H59   S    
C78   H65   S    
O21   C61   S    
C41   C45   A    
C24   H8    S    
C63   H29   S    
C5    C19   S    
