data_mof_unit_18652.cif
_audit_creation_date              2012-12-11T14:38:29-0500
_audit_creation_method            fapswitch 2.2
_symmetry_space_group_name_H-M    P1
_symmetry_Int_Tables_number       1
_space_group_crystal_system       triclinic
_cell_length_a                    19.526037
_cell_length_b                    11.137182
_cell_length_c                    19.672532
_cell_angle_alpha                 89.999623
_cell_angle_beta                  96.833736
_cell_angle_gamma                 90.023111
_cell_volume                      4247.69420503

loop_
_atom_site_label
_atom_site_type_symbol
_atom_type_description
_atom_site_fract_x
_atom_site_fract_y
_atom_site_fract_z
_atom_type_partial_charge
C1    C     C_R   0.724427 0.954972 0.360641 0.582028
C2    C     C_3   0.176394 0.475868 0.466693 -0.240556
C3    C     C_3   0.921498 0.008969 0.413709 -0.303521
C4    C     C_3   0.315003 0.974920 0.525796 -0.256887
C5    C     C_3   0.683648 0.972853 0.473318 -0.258185
C6    C     C_3   0.764425 0.284953 0.554611 -0.257286
C7    C     C_3   0.234481 0.285042 0.445335 -0.256791
C8    C     C_3   0.269115 0.782505 0.561622 -0.250839
C9    C     C_3   0.735652 0.783197 0.438425 -0.252225
C10   C     C_3   0.761435 0.419791 0.568034 0.085234
C11   C     C_3   0.238317 0.419835 0.431960 0.085548
C12   C     C_3   0.259826 0.917840 0.568327 0.076541
C13   C     C_R   0.275713 0.954918 0.639316 0.577567
C14   C     C_3   0.740600 0.919000 0.431731 0.081367
C15   C     C_3   0.746608 0.388624 0.436098 0.039812
C16   C     C_3   0.252858 0.388659 0.563885 0.039783
C17   C     C_3   0.236949 0.859763 0.439557 0.034910
C18   C     C_3   0.762744 0.862207 0.560626 0.035808
C19   C     C_3   0.808110 0.472547 0.454985 -0.271089
C20   C     C_3   0.190996 0.471708 0.544920 -0.269496
C21   C     C_3   0.289245 0.964954 0.449132 -0.244864
C22   C     C_3   0.707902 0.963165 0.550334 -0.246867
C23   C     C_3   0.763328 0.269814 0.476721 -0.233186
C24   C     C_R   0.225535 0.451117 0.359516 0.575131
C25   C     C_3   0.236215 0.269630 0.523282 -0.231803
C26   C     C_3   0.267357 0.754927 0.485171 -0.260683
C27   C     C_3   0.735355 0.755901 0.514609 -0.261729
C28   C     C_3   0.493285 0.306324 0.961690 -0.230449
C29   C     C_3   0.510076 0.306318 0.037773 -0.230087
C30   C     C_3   0.991013 0.806343 0.962062 -0.230116
C31   C     C_3   0.007812 0.806334 0.038142 -0.230244
C32   C     C_3   0.427956 0.111633 0.968738 -0.224439
C33   C     C_3   0.571526 0.107967 0.031188 -0.224570
C34   C     C_3   0.928298 0.609090 0.968781 -0.224297
C35   C     C_R   0.774441 0.451143 0.640477 0.575284
C36   C     C_3   0.071879 0.610479 0.031231 -0.224271
C37   C     C_3   0.554432 0.108492 0.952693 -0.246782
C38   C     C_3   0.445002 0.112368 0.047193 -0.246909
C39   C     C_3   0.054823 0.611173 0.952761 -0.247041
C40   C     C_3   0.945374 0.609677 0.047264 -0.247002
C41   C     C_R   0.536476 0.180295 0.338785 0.541602
C42   C     C_R   0.463574 0.180327 0.661250 0.541653
C43   C     C_R   0.036237 0.680319 0.338654 0.533699
C44   C     C_R   0.963727 0.680333 0.661324 0.532459
C45   C     C_3   0.485867 0.175393 0.933960 0.053964
C46   C     C_3   0.679916 0.444434 0.458042 -0.214375
C47   C     C_3   0.514808 0.175401 0.065814 0.053360
C48   C     C_3   0.985410 0.675409 0.934112 0.053423
C49   C     C_3   0.014352 0.675384 0.065964 0.053685
C50   C     C_1   0.778397 0.468972 0.913681 -0.021115
C51   C     C_1   0.221532 0.469172 0.086286 -0.021105
C52   C     C_1   0.278468 0.969168 0.913711 -0.021143
C53   C     C_1   0.721618 0.968936 0.086323 -0.020971
C54   C     C_1   0.756621 0.431005 0.040631 -0.047905
C55   C     C_1   0.243340 0.431166 0.959341 -0.047564
C56   C     C_1   0.256676 0.931157 0.040662 -0.047833
C57   C     C_3   0.319468 0.445043 0.541980 -0.215378
C58   C     C_1   0.743409 0.930974 0.959379 -0.048015
C59   C     C_1   0.767651 0.452134 0.972021 -0.051069
C60   C     C_1   0.232280 0.452343 0.027945 -0.050930
C61   C     C_1   0.267728 0.952343 0.972056 -0.050838
C62   C     C_1   0.732374 0.952086 0.027989 -0.050938
C63   C     C_1   0.747615 0.405551 0.098455 -0.013358
C64   C     C_1   0.252373 0.405650 0.901531 -0.013162
C65   C     C_1   0.247645 0.905635 0.098472 -0.014013
C66   C     C_1   0.752409 0.905546 0.901553 -0.014145
C67   C     C_R   0.738611 0.358991 0.362616 0.543937
C68   C     C_3   0.168323 0.898819 0.465097 -0.219654
C69   C     C_R   0.261241 0.359189 0.637432 0.541809
C70   C     C_R   0.226499 0.818161 0.367937 0.551484
C71   C     C_R   0.773094 0.819733 0.632001 0.552263
C72   C     C_R   0.706413 0.993960 0.154502 0.548293
C73   C     C_R   0.293621 0.994036 0.845488 0.547374
C74   C     C_R   0.206373 0.494063 0.154502 0.550015
C75   C     C_R   0.793588 0.493949 0.845489 0.549698
C76   C     C_R   0.534647 0.179770 0.139869 0.538735
C77   C     C_R   0.465725 0.179753 0.859969 0.538437
C78   C     C_R   0.034395 0.679747 0.139978 0.538737
C79   C     C_3   0.830885 0.907500 0.536355 -0.218647
C80   C     C_R   0.965472 0.679776 0.860079 0.538651
C81   C     C_R   0.736585 0.360177 0.164491 0.540849
C82   C     C_R   0.263415 0.360208 0.835509 0.539885
C83   C     C_R   0.236589 0.860188 0.164493 0.548295
C84   C     C_R   0.763419 0.860197 0.835508 0.548178
C85   C     C_1   0.484894 0.172516 0.594155 -0.030121
C86   C     C_1   0.515279 0.172407 0.405931 -0.030867
C87   C     C_1   0.985142 0.672661 0.594224 -0.038587
C88   C     C_1   0.014728 0.672674 0.405717 -0.038717
C89   C     C_1   0.504782 0.168888 0.465034 -0.078641
C90   C     C_3   0.823538 0.474926 0.533179 -0.241428
C91   C     C_1   0.495456 0.168953 0.535073 -0.078715
C92   C     C_1   0.004342 0.669322 0.464877 -0.079045
C93   C     C_1   0.995486 0.669306 0.535053 -0.075916
C94   C     C_3   0.688402 0.463714 0.536018 0.013447
C95   C     C_3   0.311608 0.462656 0.463933 0.012672
C96   C     C_3   0.184087 0.951211 0.537887 0.023111
C97   C     C_3   0.814989 0.957793 0.463085 0.021214
C98   C     C_3   0.575512 0.481072 0.579619 -0.305018
C99   C     C_3   0.425153 0.475447 0.421341 -0.305241
C100  C     C_3   0.066512 0.970486 0.569954 -0.309058
Cr1   Cr    Cr6+3 0.765780 0.160710 0.267420 1.016042
Cr2   Cr    Cr6+3 0.383970 0.323720 0.751490 1.005971
Cr3   Cr    Cr6+3 0.116030 0.823720 0.248510 1.005579
Cr4   Cr    Cr6+3 0.883970 0.823720 0.751490 1.006618
Cr5   Cr    Cr6+3 0.234220 0.160710 0.732580 1.029038
Cr6   Cr    Cr6+3 0.265780 0.660710 0.267420 1.012196
Cr7   Cr    Cr6+3 0.734220 0.660710 0.732580 1.011892
Cr8   Cr    Cr6+3 0.612200 0.009560 0.248850 1.011776
Cr9   Cr    Cr6+3 0.387800 0.009560 0.751150 1.011113
Cr10  Cr    Cr6+3 0.112200 0.509560 0.248850 1.006528
Cr11  Cr    Cr6+3 0.887800 0.509560 0.751150 1.007852
Cr12  Cr    Cr6+3 0.616030 0.323720 0.248510 1.006436
H1    H     H_    0.684872 0.559012 0.545953 0.150173
H2    H     H_    0.129371 0.420239 0.452392 0.144103
H3    H     H_    0.363922 0.922651 0.535251 0.140376
H4    H     H_    0.635598 0.918551 0.462467 0.141622
H5    H     H_    0.854614 0.440810 0.432510 0.135574
H6    H     H_    0.144434 0.437987 0.566567 0.136334
H7    H     H_    0.334321 0.951298 0.420338 0.153641
H8    H     H_    0.662398 0.944954 0.577830 0.153447
H9    H     H_    0.444200 0.357165 0.949012 0.150950
H10   H     H_    0.560154 0.354230 0.050516 0.149853
H11   H     H_    0.941245 0.855156 0.949349 0.150120
H12   H     H_    0.316334 0.557626 0.453390 0.150245
H13   H     H_    0.057234 0.856259 0.050839 0.150528
H14   H     H_    0.534639 0.354675 0.938208 0.139007
H15   H     H_    0.469659 0.357547 0.061039 0.140164
H16   H     H_    0.031735 0.856696 0.938725 0.139928
H17   H     H_    0.966762 0.855588 0.061563 0.139384
H18   H     H_    0.377775 0.157925 0.954460 0.108335
H19   H     H_    0.622419 0.152028 0.045268 0.107640
H20   H     H_    0.877633 0.653835 0.954640 0.107556
H21   H     H_    0.122300 0.656078 0.045456 0.107817
H22   H     H_    0.403777 0.160325 0.070835 0.124127
H23   H     H_    0.181882 0.049379 0.533454 0.138818
H24   H     H_    0.596538 0.153569 0.928874 0.123715
H25   H     H_    0.903551 0.655660 0.071030 0.123246
H26   H     H_    0.096339 0.658263 0.929071 0.123315
H27   H     H_    0.550321 0.014622 0.933223 0.133813
H28   H     H_    0.447263 0.018622 0.066936 0.133335
H29   H     H_    0.051964 0.517383 0.933089 0.133400
H30   H     H_    0.948878 0.515834 0.066817 0.133475
H31   H     H_    0.575645 0.013321 0.049302 0.140541
H32   H     H_    0.422320 0.016954 0.950924 0.139626
H33   H     H_    0.077011 0.515798 0.049130 0.139947
H34   H     H_    0.814512 0.055451 0.467319 0.137173
H35   H     H_    0.923688 0.514425 0.950756 0.140386
H36   H     H_    0.635194 0.384559 0.442167 0.150427
H37   H     H_    0.364509 0.386331 0.558539 0.151164
H38   H     H_    0.133353 0.819878 0.464750 0.129812
H39   H     H_    0.868442 0.832141 0.538439 0.127068
H40   H     H_    0.668838 0.531658 0.431506 0.097354
H41   H     H_    0.329827 0.532906 0.568008 0.097284
H42   H     H_    0.141505 0.968321 0.431059 0.121597
H43   H     H_    0.854679 0.979805 0.570423 0.120693
H44   H     H_    0.334615 0.063855 0.541280 0.099064
H45   H     H_    0.815881 0.241372 0.467290 0.130103
H46   H     H_    0.664141 0.062236 0.458126 0.100717
H47   H     H_    0.843216 0.562488 0.553464 0.105949
H48   H     H_    0.157886 0.564462 0.446940 0.104190
H49   H     H_    0.263005 0.047834 0.429997 0.117520
H50   H     H_    0.731335 0.047755 0.570499 0.117286
H51   H     H_    0.796315 0.561827 0.434090 0.110094
H52   H     H_    0.201455 0.560844 0.566565 0.108527
H53   H     H_    0.812183 0.243845 0.581399 0.121415
H54   H     H_    0.186199 0.245004 0.418944 0.121468
H55   H     H_    0.319098 0.750442 0.588650 0.132539
H56   H     H_    0.184286 0.238560 0.533245 0.131306
H57   H     H_    0.687957 0.745827 0.409441 0.129973
H58   H     H_    0.720498 0.238662 0.573723 0.127128
H59   H     H_    0.277766 0.237825 0.425608 0.127390
H60   H     H_    0.228388 0.736601 0.585530 0.109881
H61   H     H_    0.780013 0.742736 0.417169 0.121327
H62   H     H_    0.726360 0.202431 0.457043 0.114358
H63   H     H_    0.273807 0.203687 0.542716 0.115114
H64   H     H_    0.236923 0.675948 0.473901 0.102581
H65   H     H_    0.766290 0.678027 0.527373 0.101580
H66   H     H_    0.618142 0.321773 0.548642 0.256297
H67   H     H_    0.321362 0.740168 0.474403 0.128286
H68   H     H_    0.534762 0.426636 0.599726 0.165206
H69   H     H_    0.553916 0.524849 0.531171 0.118706
H70   H     H_    0.592847 0.551244 0.617968 0.168968
H71   H     H_    0.380505 0.318237 0.452587 0.256516
H72   H     H_    0.464995 0.419777 0.400684 0.167163
H73   H     H_    0.447531 0.517376 0.470060 0.119655
H74   H     H_    0.408769 0.546935 0.383508 0.167161
H75   H     H_    0.128763 0.820914 0.587997 0.252941
H76   H     H_    0.034878 0.944836 0.610943 0.171876
H77   H     H_    0.039458 0.941012 0.520009 0.137258
H78   H     H_    0.680957 0.739472 0.523463 0.127297
H79   H     H_    0.072414 0.069720 0.570595 0.141115
H80   H     H_    0.884645 0.834485 0.425282 0.253991
H81   H     H_    0.961722 0.968887 0.385282 0.156977
H82   H     H_    0.945297 0.038273 0.465030 0.114098
H83   H     H_    0.899561 0.088631 0.384952 0.171844
H84   H     H_    0.870065 0.417768 0.546677 0.143612
N1    N     N_2   0.633049 0.405226 0.567712 -0.520503
N2    N     N_2   0.366607 0.401751 0.432949 -0.521132
N3    N     N_2   0.133038 0.912345 0.581849 -0.503542
N4    N     N_2   0.867595 0.921991 0.420180 -0.509519
O1    O     O_R   0.783100 0.287550 0.345460 -0.536500
O2    O     O_R   0.454350 0.284910 0.836260 -0.523809
O3    O     O_R   0.045650 0.784910 0.163740 -0.523723
O4    O     O_R   0.954350 0.784910 0.836260 -0.523465
O5    O     O_R   0.677950 0.374280 0.185410 -0.498170
O6    O     O_R   0.322050 0.374280 0.814590 -0.498388
O7    O     O_R   0.177950 0.874280 0.185410 -0.494270
O8    O     O_R   0.822050 0.874280 0.814590 -0.494365
O9    O     O_3   0.664670 0.164660 0.254930 -0.279258
O10   O     O_3   0.335330 0.164660 0.745070 -0.280252
O11   O     O_3   0.164670 0.664660 0.254930 -0.291980
O12   O     O_R   0.216900 0.287550 0.654540 -0.529661
O13   O     O_3   0.835330 0.664660 0.745070 -0.291407
O14   O     O_R   0.760020 0.037400 0.337700 -0.486406
O15   O     O_R   0.239980 0.037400 0.662300 -0.480417
O16   O     O_R   0.260020 0.537400 0.337700 -0.509008
O17   O     O_R   0.739980 0.537400 0.662300 -0.507964
O18   O     O_R   0.666600 0.921990 0.332020 -0.530418
O19   O     O_R   0.333400 0.921990 0.667980 -0.530883
O20   O     O_R   0.166600 0.421990 0.332020 -0.528728
O21   O     O_R   0.833400 0.421990 0.667980 -0.528226
O22   O     O_R   0.557260 0.082670 0.312540 -0.495172
O23   O     O_R   0.283100 0.787550 0.345460 -0.530029
O24   O     O_R   0.442740 0.082670 0.687460 -0.495484
O25   O     O_R   0.057260 0.582670 0.312540 -0.498102
O26   O     O_R   0.942740 0.582670 0.687460 -0.497306
O27   O     O_R   0.548410 0.285740 0.316480 -0.519855
O28   O     O_R   0.451590 0.285740 0.683520 -0.519672
O29   O     O_R   0.048410 0.785740 0.316480 -0.521718
O30   O     O_R   0.951590 0.785740 0.683520 -0.522876
O31   O     O_R   0.680500 0.375040 0.327000 -0.505424
O32   O     O_R   0.319500 0.375040 0.673000 -0.506542
O33   O     O_R   0.180500 0.875040 0.327000 -0.500626
O34   O     O_R   0.716900 0.787550 0.654540 -0.530647
O35   O     O_R   0.819500 0.875040 0.673000 -0.500677
O36   O     O_R   0.780350 0.286720 0.192720 -0.514510
O37   O     O_R   0.219650 0.286720 0.807280 -0.513760
O38   O     O_R   0.280350 0.786720 0.192720 -0.510866
O39   O     O_R   0.719650 0.786720 0.807280 -0.511032
O40   O     O_R   0.757470 0.036630 0.196110 -0.486677
O41   O     O_R   0.242530 0.036630 0.803890 -0.486034
O42   O     O_R   0.257470 0.536630 0.196110 -0.486786
O43   O     O_R   0.742530 0.536630 0.803890 -0.487088
O44   O     O_R   0.663840 0.921160 0.179280 -0.505566
O45   O     O_R   0.554710 0.081900 0.170950 -0.519435
O46   O     O_R   0.336160 0.921160 0.820720 -0.505851
O47   O     O_R   0.163840 0.421160 0.179280 -0.503565
O48   O     O_R   0.836160 0.421160 0.820720 -0.503538
O49   O     O_R   0.445290 0.081900 0.829050 -0.519607
O50   O     O_R   0.054710 0.581900 0.170950 -0.518454
O51   O     O_R   0.945290 0.581900 0.829050 -0.518321
O52   O     O_R   0.545650 0.284910 0.163740 -0.523637

loop_
_geom_bond_atom_site_label_1
_geom_bond_atom_site_label_2
_ccdc_geom_bond_type
C95   H12   S    
C58   C62   S    
C96   N3    S    
C46   H40   S    
C41   O27   A    
Cr3   O29   S    
C43   O29   A    
Cr5   O15   S    
C7    H59   S    
C17   C21   S    
C8    C26   S    
C32   C45   S    
C72   O44   A    
C4    H3    S    
C9    H57   S    
Cr10  O11   S    
C51   C74   S    
C82   O6    A    
C36   H21   S    
C32   H18   S    
Cr8   O9    S    
C85   C91   T    
C23   H62   S    
C26   H67   S    
C33   H31   S    
C22   H8    S    
C41   C86   S    
Cr9   O49   S    
C77   O49   A    
C3    H81   S    
Cr5   O12   S    
C63   C81   S    
Cr9   O19   S    
C17   C26   S    
Cr4   O4    S    
C30   C48   S    
C28   C29   S    
C100  H76   S    
C31   C49   S    
C47   C76   S    
C68   H42   S    
C52   C61   T    
C35   O21   A    
C30   C31   S    
C22   H50   S    
C65   C83   S    
C100  H77   S    
C54   C63   T    
C10   C94   S    
C88   C92   T    
Cr11  O51   S    
C40   C49   S    
C20   H52   S    
C82   O37   A    
C87   C93   T    
C11   C24   S    
C18   C71   S    
C49   C78   S    
Cr2   O10   S    
C44   O26   A    
Cr11  O21   S    
C71   O34   A    
C90   H47   S    
C44   O30   A    
C83   O7    A    
Cr7   O17   S    
Cr4   O30   S    
C58   C66   T    
Cr4   O35   S    
C46   H36   S    
C5    C22   S    
C76   O45   A    
Cr11  O48   S    
C80   O51   A    
C57   H37   S    
C40   H30   S    
C24   O16   A    
C72   O40   A    
C9    H61   S    
C10   C35   S    
C27   H78   S    
C71   O35   A    
C66   C84   S    
C89   C91   S    
C44   C87   S    
Cr10  O20   S    
C6    C23   S    
C41   O22   A    
C8    C12   S    
Cr8   O18   S    
C33   H19   S    
C15   C23   S    
C6    H53   S    
C67   O31   A    
C17   C70   S    
Cr3   O33   S    
Cr12  O27   S    
C55   C60   S    
C77   O2    A    
Cr1   O40   S    
Cr2   O32   S    
C97   N4    S    
Cr7   O43   S    
Cr6   O42   S    
C42   O24   A    
C2    C11   S    
C35   O17   A    
Cr5   O41   S    
C94   H1    S    
C28   H14   S    
Cr12  O52   S    
C96   H23   S    
C25   H63   S    
C54   C59   S    
C25   H56   S    
C30   H16   S    
C28   C45   S    
C81   O36   A    
C3    H82   S    
C21   H49   S    
C16   C69   S    
C2    C20   S    
H71   N2    S    
C39   H29   S    
C68   H38   S    
C78   O3    A    
C52   C73   S    
C69   O32   A    
Cr3   O11   S    
C69   O12   A    
C28   H9    S    
C18   C79   S    
H80   N4    S    
C73   O46   A    
Cr1   O9    S    
C57   H41   S    
Cr8   O45   S    
Cr10  O25   S    
C3    H83   S    
Cr5   O10   S    
H75   N3    S    
C70   O33   A    
C74   O42   A    
C98   H70   S    
C15   C19   S    
C9    C14   S    
C100  N3    S    
C6    C10   S    
C67   O1    A    
C8    H55   S    
C34   H35   S    
Cr8   O22   S    
C53   C62   T    
C84   O8    A    
C7    C11   S    
Cr6   O23   S    
Cr7   O13   S    
C26   H64   S    
Cr1   O14   S    
C16   C20   S    
C15   C67   S    
C29   H10   S    
Cr8   O44   S    
Cr1   O36   S    
Cr2   O28   S    
C3    N4    S    
C5    C14   S    
C37   H24   S    
C73   O41   A    
C43   C88   S    
C42   C85   S    
C19   H51   S    
C13   O19   A    
C4    C21   S    
Cr2   O6    S    
C64   C82   S    
C38   C47   S    
C1    O18   A    
Cr9   O24   S    
C40   H25   S    
C24   O20   A    
C2    H48   S    
C4    H44   S    
C7    H54   S    
C29   C47   S    
Cr9   O46   S    
C5    H46   S    
C32   C38   S    
C29   H15   S    
C5    H4    S    
Cr6   O38   S    
C33   C47   S    
C34   C40   S    
C11   C95   S    
C100  H79   S    
C4    C12   S    
C50   C59   T    
C56   C65   T    
C98   H68   S    
Cr9   O10   S    
C76   O52   A    
Cr12  O5    S    
C99   H73   S    
C19   H5    S    
Cr6   O16   S    
C9    C27   S    
C14   C97   S    
C81   O5    A    
C6    H58   S    
C79   H39   S    
C46   C94   S    
C16   C25   S    
C20   H6    S    
C17   C68   S    
Cr5   O37   S    
C98   N1    S    
C18   C22   S    
Cr11  O26   S    
Cr12  O31   S    
H66   N1    S    
C36   C39   S    
Cr10  O50   S    
C18   C27   S    
Cr11  O13   S    
Cr3   O7    S    
C86   C89   T    
Cr3   O3    S    
Cr4   O13   S    
C27   H65   S    
C79   C97   S    
C51   C60   T    
C55   C64   T    
C42   O28   A    
C38   H28   S    
C79   H43   S    
C70   O23   A    
C68   C96   S    
C34   C48   S    
C7    C25   S    
C39   H26   S    
C94   N1    S    
Cr12  O9    S    
C48   C80   S    
C98   H69   S    
Cr2   O2    S    
C21   H7    S    
C19   C90   S    
Cr1   O1    S    
C50   C75   S    
C74   O47   A    
C2    H2    S    
C13   O15   A    
C80   O4    A    
Cr7   O39   S    
C95   N2    S    
C78   O50   A    
Cr6   O11   S    
C23   H45   S    
C99   N2    S    
C92   C93   S    
C16   C57   S    
C38   H22   S    
C33   C37   S    
C83   O38   A    
C75   O43   A    
C36   C49   S    
C32   H32   S    
C34   H20   S    
C84   O39   A    
C97   H34   S    
C8    H60   S    
C36   H33   S    
C99   H72   S    
C90   H84   S    
C30   H11   S    
C10   C90   S    
Cr4   O8    S    
C31   H17   S    
Cr7   O34   S    
C57   C95   S    
C1    O14   A    
C31   H13   S    
C56   C61   S    
C12   C96   S    
C45   C77   S    
C1    C14   S    
C37   H27   S    
C15   C46   S    
C12   C13   S    
C53   C72   S    
C37   C45   S    
C99   H74   S    
C75   O48   A    
C43   O25   A    
C39   C48   S    
Cr10  O47   S    
