data_mof_unit_47861.cif
_audit_creation_date              2012-12-11T14:57:59-0500
_audit_creation_method            fapswitch 2.2
_symmetry_space_group_name_H-M    P1
_symmetry_Int_Tables_number       1
_space_group_crystal_system       triclinic
_cell_length_a                    6.938787
_cell_length_b                    16.759073
_cell_length_c                    17.044815
_cell_angle_alpha                 100.476535
_cell_angle_beta                  90.524194
_cell_angle_gamma                 90.389928
_cell_volume                      1948.90470991

loop_
_atom_site_label
_atom_site_type_symbol
_atom_type_description
_atom_site_fract_x
_atom_site_fract_y
_atom_site_fract_z
_atom_type_partial_charge
O1    O     O_R   0.506180 0.438940 0.579430 -0.540762
O2    O     O_R   0.170520 0.406230 0.413590 -0.537158
O3    O     O_R   0.005180 0.561060 0.420570 -0.540111
C1    C     C_R   0.339066 0.383389 0.385016 0.697712
O4    O     O_R   0.176140 0.429310 0.578370 -0.542964
O5    O     O_R   0.010830 0.584300 0.586530 -0.536532
C2    C     C_R   0.343799 0.413721 0.605298 0.691122
O6    O     O_R   0.500520 0.415700 0.413470 -0.534802
O7    O     O_3   0.340830 0.550820 0.502480 -0.367751
V1    V     V_3+5 0.064040 0.490570 0.499540 1.413825
O8    O     O_R   0.681400 0.593770 0.586410 -0.537125
C3    C     C_R   0.851240 0.616607 0.614712 0.695553
O9    O     O_R   0.675790 0.570690 0.421630 -0.544068
C4    C     C_R   0.842451 0.586483 0.394817 0.696997
V2    V     V_3+5 0.564650 0.509430 0.500460 1.416115
O10   O     O_3   0.837730 0.449180 0.497520 -0.367054
C5    C     C_R   0.928958 0.860311 0.166325 -0.059753
C6    C     C_R   0.837523 0.639597 0.333506 -0.063218
C7    C     C_R   0.645734 0.698245 0.237084 -0.209915
C8    C     C_R   0.665932 0.643331 0.289127 -0.164110
C9    C     C_R   0.990906 0.691813 0.323433 -0.248069
C10   C     C_R   0.970417 0.748182 0.271572 0.164770
C11   C     C_R   0.796097 0.751720 0.228253 0.164797
C12   C     C_R   0.775590 0.808093 0.176401 -0.248987
C13   C     C_R   0.100572 0.856571 0.210685 -0.164396
C14   C     C_R   0.120784 0.801655 0.262731 -0.209942
H1    H     H_    0.643520 0.809419 0.142187 0.119240
H2    H     H_    0.222030 0.895660 0.204319 0.122232
H3    H     H_    0.511335 0.699429 0.204427 0.121149
H4    H     H_    0.255189 0.800471 0.295383 0.122042
H5    H     H_    0.544462 0.604246 0.295484 0.122537
H6    H     H_    0.122963 0.690491 0.357656 0.120398
H7    H     H_    0.617957 0.646320 0.969002 0.111911
C15   C     C_R   0.051705 0.899026 0.728641 -0.089888
C16   C     C_R   0.116326 0.908880 0.653816 -0.096223
C17   C     C_R   0.098277 0.845643 0.588960 -0.129416
C18   C     C_R   0.015651 0.772041 0.598454 -0.130889
C19   C     C_R   0.950520 0.759839 0.673925 0.068724
C20   C     C_R   0.968791 0.824693 0.740392 0.055784
C21   C     C_R   0.864675 0.685156 0.683447 -0.182563
C22   C     C_R   0.796711 0.675387 0.759419 0.070320
C23   C     C_R   0.814989 0.740240 0.825886 0.068190
C24   C     C_R   0.900897 0.814910 0.816369 -0.188179
C25   C     C_R   0.713732 0.601065 0.771170 -0.147189
C26   C     C_R   0.649013 0.591231 0.845988 -0.124537
C27   C     C_R   0.667083 0.654466 0.910842 -0.118484
C28   C     C_R   0.749811 0.728048 0.901354 -0.133084
H8    H     H_    0.066491 0.950579 0.776774 0.140489
H9    H     H_    0.179558 0.966135 0.646044 0.126515
H10   H     H_    0.147348 0.853800 0.530796 0.115857
H11   H     H_    0.001985 0.725324 0.545773 0.104087
H12   H     H_    0.698959 0.549507 0.723041 0.108983
H13   H     H_    0.585704 0.533989 0.853758 0.116278
H14   H     H_    0.763501 0.774759 0.954039 0.098023
H15   H     H_    0.557555 0.488382 0.150424 0.116914
C29   C     C_R   0.244893 0.216718 0.396879 -0.140080
C30   C     C_R   0.207252 0.137055 0.405653 -0.114553
C31   C     C_R   0.237358 0.073389 0.342479 -0.125370
C32   C     C_R   0.305427 0.088884 0.270032 -0.136490
C33   C     C_R   0.343272 0.169135 0.258873 0.073662
C34   C     C_R   0.312239 0.234481 0.323783 0.065894
C35   C     C_R   0.414214 0.184462 0.185003 -0.182270
C36   C     C_R   0.454411 0.265460 0.176424 0.066808
C37   C     C_R   0.423373 0.330805 0.241333 0.072963
C38   C     C_R   0.352398 0.315479 0.315198 -0.186777
C39   C     C_R   0.521782 0.283226 0.103331 -0.139909
C40   C     C_R   0.559454 0.362887 0.094563 -0.117736
C41   C     C_R   0.529339 0.426551 0.157736 -0.126027
C42   C     C_R   0.461234 0.411056 0.230176 -0.135683
H16   H     H_    0.221101 0.263939 0.448132 0.106674
H17   H     H_    0.155496 0.124643 0.461985 0.118906
H18   H     H_    0.209159 0.011558 0.349793 0.118362
H19   H     H_    0.330220 0.037192 0.223285 0.096759
H20   H     H_    0.545577 0.236009 0.052076 0.102119
H21   H     H_    0.611238 0.375300 0.038235 0.113266
H22   H     H_    0.436436 0.462749 0.276921 0.096904
C43   C     C_R   0.425197 0.137499 0.831648 -0.196383
C44   C     C_R   0.341100 0.361311 0.667193 -0.071943
C45   C     C_R   0.158290 0.308235 0.769005 -0.157865
C46   C     C_R   0.178160 0.362687 0.716356 -0.167739
C47   C     C_R   0.486340 0.304571 0.672935 -0.209182
C48   C     C_R   0.465736 0.248624 0.725225 0.063540
C49   C     C_R   0.300269 0.250288 0.773605 0.153886
C50   C     C_R   0.280343 0.194575 0.826170 -0.306050
C51   C     C_R   0.586974 0.135215 0.781273 0.610988
C52   C     C_R   0.606644 0.190170 0.729116 -0.271182
H23   H     H_    0.155918 0.197481 0.864565 0.163170
H24   H     H_    0.030467 0.310885 0.805426 0.118048
H25   H     H_    0.733354 0.187193 0.692005 0.150799
H26   H     H_    0.063609 0.405691 0.713390 0.124624
H27   H     H_    0.611250 0.301969 0.634833 0.122860
O11   O     O_R   0.265840 0.084300 0.086750 -0.538601
O12   O     O_R   0.589750 0.070740 0.921690 -0.506948
O13   O     O_R   0.755020 0.915730 0.913400 -0.525901
C53   C     C_R   0.422194 0.085787 0.894319 0.757108
O14   O     O_R   0.595830 0.093740 0.086480 -0.542183
O15   O     O_R   0.761150 0.938890 0.079360 -0.544462
C54   C     C_R   0.427368 0.116571 0.115158 0.682385
O16   O     O_R   0.259710 0.061140 0.920790 -0.540522
O17   O     O_3   0.425260 0.949200 0.997610 -0.376760
V3    V     V_3+5 0.702060 0.009430 0.000450 1.479481
O18   O     O_R   0.090530 0.929220 0.078150 -0.546993
C55   C     C_R   0.923934 0.913443 0.105034 0.683634
O19   O     O_R   0.084440 0.906220 0.913360 -0.544515
C56   C     C_R   0.914524 0.883425 0.885123 0.721726
V4    V     V_3+5 0.201450 0.990520 0.999290 1.432458
O20   O     O_3   0.928380 0.050800 0.002390 -0.360421
F1    F     F_    0.728037 0.079633 0.782477 -0.697875

loop_
_geom_bond_atom_site_label_1
_geom_bond_atom_site_label_2
_ccdc_geom_bond_type
V3    O20   S    
C45   C49   A    
O13   C56   A    
C6    C9    A    
C22   C23   A    
C4    C6    S    
O2    C1    A    
C7    C8    A    
C50   H23   S    
C1    O6    A    
O19   V4    S    
H15   C41   S    
O11   C54   A    
C51   C52   A    
C13   H2    S    
C35   C36   A    
C17   C18   A    
O5    C3    A    
C19   C20   A    
C18   H11   S    
C44   C46   A    
V4    O20   S    
C53   O16   A    
V2    O10   S    
C39   H20   S    
C29   C30   A    
C42   H22   S    
C33   C35   A    
C15   C16   A    
C24   C56   S    
C45   H24   S    
C35   C54   S    
O8    V2    S    
C16   C17   A    
O13   V3    S    
C41   C42   A    
O14   C54   A    
C16   H9    S    
C11   C12   A    
C12   H1    S    
O1    V2    S    
C51   F1    S    
O7    V1    S    
C32   H19   S    
C25   H12   S    
C39   C40   A    
C36   C39   A    
C43   C51   A    
C32   C33   A    
O12   C53   A    
O9    C4    A    
C46   H26   S    
H7    C27   S    
O19   C56   A    
C13   C14   A    
C47   C48   A    
C9    H6    S    
C5    C12   A    
C40   C41   A    
O14   V3    S    
O12   V3    S    
O4    C2    A    
C20   C24   A    
C43   C50   A    
C31   C32   A    
C48   C52   A    
C43   C53   S    
C15   C20   A    
C33   C34   A    
C3    C21   S    
C7    C11   A    
C18   C19   A    
C34   C38   A    
C49   C50   A    
C29   C34   A    
C37   C42   A    
C30   H17   S    
O15   C55   A    
O3    C4    A    
C28   H14   S    
O11   V4    S    
C21   C22   A    
C14   H4    S    
O6    V2    S    
C29   H16   S    
C2    C44   S    
C22   C25   A    
C40   H21   S    
C23   C24   A    
O2    V1    S    
C17   H10   S    
C25   C26   A    
O16   V4    S    
C27   C28   A    
O1    C2    A    
C36   C37   A    
C52   H25   S    
O5    V1    S    
O8    C3    A    
O17   V4    S    
C5    C13   A    
C37   C38   A    
O9    V2    S    
C5    C55   S    
O4    V1    S    
O3    V1    S    
V1    O10   S    
C19   C21   A    
C44   C47   A    
C31   H18   S    
C30   C31   A    
C1    C38   S    
O17   V3    S    
O18   V4    S    
C6    C8    A    
C23   C28   A    
O7    V2    S    
O18   C55   A    
C26   H13   S    
C45   C46   A    
C47   H27   S    
C26   C27   A    
C15   H8    S    
C48   C49   A    
C10   C14   A    
C10   C11   A    
C9    C10   A    
O15   V3    S    
C8    H5    S    
C7    H3    S    
