data_mof_unit_63708.cif
_audit_creation_date              2012-12-10T17:05:12-0500
_audit_creation_method            fapswitch 2.2
_symmetry_space_group_name_H-M    P1
_symmetry_Int_Tables_number       1
_space_group_crystal_system       triclinic
_cell_length_a                    10.871185
_cell_length_b                    10.995527
_cell_length_c                    9.880987
_cell_angle_alpha                 109.818932
_cell_angle_beta                  97.391219
_cell_angle_gamma                 93.340198
_cell_volume                      1095.33607477

loop_
_atom_site_label
_atom_site_type_symbol
_atom_type_description
_atom_site_fract_x
_atom_site_fract_y
_atom_site_fract_z
_atom_type_partial_charge
C1    C     C_R   0.491904 0.254791 0.442465 0.780049
C2    C     C_3   0.880003 0.508540 0.504049 -0.571665
C3    C     C_3   0.929657 0.600565 0.424145 0.678010
C4    C     C_3   0.910873 0.366384 0.416598 0.634382
C5    C     C_2   0.493836 0.116569 0.414430 0.411850
C6    C     C_2   0.543684 0.074320 0.519912 0.540255
C7    C     C_2   0.517999 0.884527 0.587572 0.515607
C8    C     C_2   0.550094 0.936642 0.490619 0.074441
C9    C     C_2   0.528808 0.462838 0.059991 0.385258
C10   C     C_2   0.492774 0.478679 0.915104 0.431462
C11   C     C_R   0.260839 0.501084 0.501957 0.993738
C12   C     C_R   0.512189 0.745427 0.557777 0.737619
C13   C     C_R   0.740514 0.506404 0.500713 0.926746
C14   C     C_3   0.098291 0.566292 0.666633 0.662769
C15   C     C_3   0.953997 0.556898 0.668512 0.235372
C16   C     C_3   0.070243 0.586940 0.414911 0.331351
C17   C     C_3   0.055705 0.362015 0.430926 0.585873
C18   C     C_3   0.123976 0.504167 0.505792 -0.578364
Cu1   Cu    Cu3+1 0.522160 0.521810 0.644910 1.186934
Cu2   Cu    Cu3+1 0.477840 0.478190 0.355090 1.239379
H1    H     H_    0.078954 0.536075 0.298674 0.266249
N1    N     N_2   0.444530 0.445420 0.137360 0.078703
N2    N     N_2   0.555520 0.554510 0.862630 -0.105274
O1    O     O_R   0.511820 0.332340 0.577400 -0.567459
O2    O     O_R   0.474400 0.295500 0.332650 -0.513862
O3    O     O_R   0.336400 0.518400 0.622370 -0.537991
O4    O     O_R   0.298980 0.481560 0.377620 -0.486099
O5    O     O_R   0.525600 0.704500 0.667350 -0.515285
O6    O     O_R   0.488180 0.667660 0.422600 -0.576972
O7    O     O_R   0.701020 0.518440 0.622380 -0.548496
O8    O     O_R   0.663600 0.481600 0.377630 -0.525275
Br1   Br    Br    0.187770 0.743664 0.760091 -0.090938
F1    F     F_    0.866784 0.336913 0.270462 -0.486102
F2    F     F_    0.866999 0.562921 0.283112 -0.536855
Br2   Br    Br    0.618854 0.843032 0.319889 -0.229080
F3    F     F_    0.592359 0.157838 0.656253 -0.566433
F4    F     F_    0.484013 0.960721 0.714622 -0.528356
F5    F     F_    0.444836 0.031681 0.279176 -0.556125
Br3   Br    Br    0.363394 0.346303 0.796507 -0.125875
Br4   Br    Br    0.674557 0.375803 0.062731 -0.064278
Br5   Br    Br    0.686340 0.675604 0.985985 -0.086967
F6    F     F_    0.152861 0.499966 0.750879 -0.541968
F7    F     F_    0.334627 0.485683 0.103565 -0.456150
Br6   Br    Br    0.911967 0.441659 0.776222 -0.093823
Br7   Br    Br    0.905317 0.721436 0.796297 -0.168697
F8    F     F_    0.140143 0.706665 0.453972 -0.568176
Br8   Br    Br    0.899626 0.783189 0.503358 -0.169489
F9    F     F_    0.086170 0.310456 0.291701 -0.520764
Br9   Br    Br    0.116359 0.241285 0.524736 -0.146016
Br10  Br    Br    0.818447 0.224944 0.454140 -0.233214

loop_
_geom_bond_atom_site_label_1
_geom_bond_atom_site_label_2
_ccdc_geom_bond_type
C17   C18   S    
C2    C4    S    
C11   C18   S    
C16   H1    S    
Cu1   O5    S    
Cu2   O4    S    
C10   N2    D    
C9    C10   S    
C14   C18   S    
C4    Br10  S    
Cu1   N2    S    
N1    F7    S    
C11   O3    A    
C17   F9    S    
C11   O4    A    
C14   F6    S    
Cu1   O1    S    
C7    F4    S    
C7    C8    D    
C5    F5    S    
C1    O2    A    
C2    C15   S    
C5    C6    D    
C12   O5    A    
C1    C5    S    
C4    C17   S    
C3    Br8   S    
C6    F3    S    
C15   Br6   S    
C2    C3    S    
Cu2   O6    S    
C7    C12   S    
C12   O6    A    
C9    N1    D    
Cu2   O2    S    
C15   Br7   S    
C16   F8    S    
Cu2   O8    S    
C13   O7    A    
C14   Br1   S    
C1    O1    A    
C16   C18   S    
C17   Br9   S    
Cu1   O3    S    
C2    C13   S    
C4    F1    S    
C6    C8    S    
C3    F2    S    
C14   C15   S    
Cu1   O7    S    
C13   O8    A    
C9    Br4   S    
C3    C16   S    
Cu1   Cu2   S    
Cu2   N1    S    
C10   Br3   S    
C8    Br2   S    
N2    Br5   S    
