data_mof_unit_37754.cif
_audit_creation_date              2012-12-10T20:36:38-0500
_audit_creation_method            fapswitch 2.2
_symmetry_space_group_name_H-M    P1
_symmetry_Int_Tables_number       1
_space_group_crystal_system       triclinic
_cell_length_a                    10.495545
_cell_length_b                    10.681971
_cell_length_c                    9.925901
_cell_angle_alpha                 88.990192
_cell_angle_beta                  89.184334
_cell_angle_gamma                 91.252607
_cell_volume                      1112.26589166

loop_
_atom_site_label
_atom_site_type_symbol
_atom_type_description
_atom_site_fract_x
_atom_site_fract_y
_atom_site_fract_z
_atom_type_partial_charge
C1    C     C_R   0.505262 0.260019 0.500575 0.870261
C2    C     C_3   0.962396 0.493251 0.371646 -0.181177
C3    C     C_3   0.041976 0.392616 0.443364 -0.190946
C4    C     C_3   0.122585 0.498434 0.502834 -0.010722
C5    C     C_R   0.543214 0.061739 0.619630 0.134996
C6    C     C_R   0.529340 0.128991 0.499554 -0.106487
C7    C     C_R   0.543464 0.067696 0.376073 -0.224804
C8    C     C_R   0.543621 0.938146 0.374886 -0.239703
C9    C     C_R   0.529939 0.871427 0.497183 -0.104189
C10   C     C_R   0.543197 0.933818 0.618304 0.133677
C11   C     C_3   0.466872 0.921067 0.746087 -0.465447
C12   C     C_R   0.257561 0.499440 0.500956 0.873543
C13   C     C_3   0.466958 0.062562 0.747691 -0.508800
C14   C     C_R   0.396551 0.456379 0.073421 0.182604
C15   C     C_R   0.592351 0.564716 0.067938 0.168726
C16   C     C_R   0.593763 0.560991 0.923320 0.133138
C17   C     C_R   0.395716 0.457911 0.931895 0.157747
C18   C     C_3   0.333534 0.331477 0.929905 -0.512605
C19   C     C_3   0.335382 0.329725 0.083178 -0.488630
C20   C     C_R   0.505657 0.739890 0.498914 0.866866
C21   C     C_R   0.742429 0.499294 0.499182 0.868658
C22   C     C_3   0.038281 0.502713 0.629800 -0.155158
C23   C     C_3   0.955204 0.398450 0.569034 0.238237
C24   C     C_3   0.877466 0.497797 0.498047 0.023179
C25   C     C_3   0.958705 0.603181 0.557638 -0.224324
C26   C     C_3   0.045858 0.598928 0.431109 -0.169281
H1    H     H_    0.522066 0.879128 0.829567 0.197400
H2    H     H_    0.370451 0.101358 0.733760 0.203461
H3    H     H_    0.523367 0.101117 0.831945 0.200573
H4    H     H_    0.235913 0.333931 0.888044 0.199976
H5    H     H_    0.396854 0.262254 0.885111 0.213485
H6    H     H_    0.238675 0.331872 0.130112 0.200676
H7    H     H_    0.399425 0.258293 0.126242 0.207862
H8    H     H_    0.072863 0.505751 0.734923 0.139264
H9    H     H_    0.920171 0.688785 0.603539 0.141580
H10   H     H_    0.087796 0.681038 0.374947 0.140057
H11   H     H_    0.928980 0.488126 0.266434 0.145393
H12   H     H_    0.080435 0.306770 0.397908 0.131508
H13   H     H_    0.544120 0.118223 0.280490 0.168213
H14   H     H_    0.544005 0.891402 0.278900 0.172721
H15   H     H_    0.370582 0.878343 0.731294 0.205905
N1    N     N_R   0.499140 0.499140 0.142800 -0.118603
N2    N     N_R   0.499140 0.499180 0.857150 -0.122789
O1    O     O_R   0.500020 0.316790 0.614690 -0.614271
O2    O     O_R   0.500000 0.316760 0.385350 -0.623433
O3    O     O_R   0.313960 0.499990 0.614650 -0.623468
O4    O     O_R   0.313940 0.499950 0.385310 -0.613607
O5    O     O_R   0.500000 0.683240 0.614650 -0.605398
O6    O     O_R   0.499980 0.683210 0.385310 -0.637333
O7    O     O_R   0.686060 0.500050 0.614690 -0.594680
O8    O     O_R   0.686040 0.500010 0.385350 -0.633808
Zn1   Zn    Zn3+2 0.500010 0.500020 0.653130 0.950151
Zn2   Zn    Zn3+2 0.499990 0.499980 0.346870 0.933879
C27   C     C_3   0.900474 0.284894 0.646353 -0.946510
H16   H     H_    0.979409 0.227282 0.684473 0.237938
H17   H     H_    0.841703 0.315963 0.732851 0.255545
H18   H     H_    0.840167 0.227756 0.578810 0.239450
C28   C     C_3   0.693381 0.643906 0.133866 -0.868008
H19   H     H_    0.670562 0.666220 0.238081 0.293933
H20   H     H_    0.786317 0.596901 0.128245 0.217773
H21   H     H_    0.702650 0.736892 0.082873 0.193358
N3    N     N_3   0.693161 0.622508 0.845169 -0.390981
H22   H     H_    0.689344 0.719025 0.858920 0.160378
H23   H     H_    0.781253 0.590317 0.877188 0.173053

loop_
_geom_bond_atom_site_label_1
_geom_bond_atom_site_label_2
_ccdc_geom_bond_type
C4    C26   S    
C23   C24   S    
C17   N2    A    
C13   H2    S    
C20   O6    A    
C18   H4    S    
C4    C12   S    
C4    C22   S    
C9    C10   A    
C9    C20   S    
O7    Zn1   S    
C14   C17   A    
C11   H1    S    
O4    Zn2   S    
C1    O1    A    
C5    C13   S    
O1    Zn1   S    
C28   H21   S    
C17   C18   S    
C28   H19   S    
O2    Zn2   S    
C7    C8    A    
C2    C26   S    
C14   N1    A    
C11   C13   S    
C2    H11   S    
C1    O2    A    
C20   O5    A    
C16   N3    S    
C25   H9    S    
C12   O4    A    
O6    Zn2   S    
C19   H6    S    
C26   H10   S    
C21   O7    A    
C11   H15   S    
C6    C7    A    
C2    C3    S    
N1    Zn2   S    
C2    C24   S    
C5    C6    A    
C22   H8    S    
C15   C28   S    
C27   H17   S    
N2    Zn1   S    
C16   N2    A    
C21   O8    A    
C10   C11   S    
C5    C10   A    
C15   C16   A    
C15   N1    A    
O3    Zn1   S    
O5    Zn1   S    
C24   C25   S    
C3    C4    S    
C23   C27   S    
C12   O3    A    
C18   C19   S    
C19   H7    S    
C21   C24   S    
C13   H3    S    
C3    C23   S    
C7    H13   S    
C27   H16   S    
N3    H23   S    
C18   H5    S    
C8    H14   S    
C25   C26   S    
C22   C23   S    
C28   H20   S    
C14   C19   S    
C22   C25   S    
N3    H22   S    
C1    C6    S    
C3    H12   S    
C8    C9    A    
O8    Zn2   S    
C27   H18   S    
