data_mof_unit_36771.cif
_audit_creation_date              2013-03-05T16:01:05-0500
_audit_creation_method            fapswitch 2.2
_symmetry_space_group_name_H-M    P1
_symmetry_Int_Tables_number       1
_space_group_crystal_system       triclinic
_cell_length_a                    14.708486
_cell_length_b                    14.719594
_cell_length_c                    15.901778
_cell_angle_alpha                 76.901728
_cell_angle_beta                  102.734009
_cell_angle_gamma                 114.837146
_cell_volume                      3012.35710449

loop_
_atom_site_label
_atom_site_type_symbol
_atom_site_description
_atom_site_fract_x
_atom_site_fract_y
_atom_site_fract_z
_atom_type_partial_charge
O1    O     O_R   0.977900 0.338120 0.529810 -0.590022
O2    O     O_R   0.022100 0.661880 0.470190 -0.590167
O3    O     O_R   0.839850 0.379180 0.491620 -0.590882
O4    O     O_R   0.160150 0.620820 0.508380 -0.590573
C1    C     C_R   0.880311 0.312323 0.515122 0.808294
C2    C     C_R   0.119670 0.687665 0.486183 0.806803
O5    O     O_R   0.069010 0.479460 0.640020 -0.578282
O6    O     O_R   0.930990 0.520540 0.359980 -0.577743
O7    O     O_R   0.930960 0.520530 0.601820 -0.567534
O8    O     O_R   0.069040 0.479470 0.398180 -0.566432
C3    C     C_R   0.999619 0.500058 0.659826 0.822445
C4    C     C_R   0.000387 0.499952 0.340170 0.824183
Cu1   Cu    Cu3+1 0.081740 0.475690 0.522610 0.969232
Cu2   Cu    Cu3+1 0.918260 0.524310 0.477390 0.969174
C5    C     C_3   0.981444 0.407372 0.042810 0.287260
C6    C     C_3   0.018590 0.592725 0.957156 0.287566
C7    C     C_3   0.910064 0.438117 0.967493 0.287411
C8    C     C_3   0.089971 0.561980 0.032474 0.287642
H1    H     H_    0.868391 0.556779 0.014178 0.211895
H2    H     H_    0.131642 0.443320 0.985785 0.212085
C9    C     C_1   0.998984 0.500299 0.748993 -0.106776
C10   C     C_1   0.001039 0.499745 0.250993 -0.106880
C11   C     C_3   0.072471 0.468809 0.991598 -0.363383
C12   C     C_3   0.927563 0.531288 0.008369 -0.363826
C13   C     C_3   0.999363 0.500296 0.915748 -0.106144
C14   C     C_3   0.000672 0.499800 0.084221 -0.106021
C15   C     C_1   0.998948 0.500376 0.824263 0.161982
C16   C     C_1   0.001084 0.499698 0.175716 0.162323
C17   C     C_R   0.812658 0.204773 0.526917 -0.048435
C18   C     C_R   0.187332 0.794898 0.484293 -0.049424
C19   C     C_R   0.784118 0.027071 0.558147 -0.165788
C20   C     C_R   0.216804 0.969794 0.482122 -0.164381
C21   C     C_R   0.850494 0.128352 0.548484 -0.165938
C22   C     C_R   0.149921 0.869883 0.477067 -0.163085
C23   C     C_R   0.708250 0.178922 0.516933 -0.225738
C24   C     C_R   0.291792 0.821011 0.495325 -0.221316
C25   C     C_R   0.639904 0.077511 0.529202 0.094365
C26   C     C_R   0.360896 0.920110 0.504870 0.094494
C27   C     C_R   0.679350 0.001124 0.547665 0.156612
C28   C     C_R   0.321715 0.995402 0.496151 0.156778
C29   C     C_R   0.533566 0.050121 0.520965 0.072138
C30   C     C_R   0.467461 0.946454 0.521774 0.070372
C31   C     C_R   0.510079 0.872499 0.541465 -0.199728
C32   C     C_R   0.491306 0.122613 0.513646 -0.196193
C33   C     C_R   0.614000 0.899633 0.554990 -0.200624
C34   C     C_R   0.387421 0.095335 0.502030 -0.202348
H3    H     H_    0.643356 0.840532 0.570110 0.155624
H4    H     H_    0.358346 0.153233 0.497078 0.153983
H5    H     H_    0.317318 0.762440 0.495261 0.145889
H6    H     H_    0.681726 0.239469 0.497001 0.151161
H7    H     H_    0.069280 0.851231 0.468500 0.161476
H8    H     H_    0.931064 0.146726 0.556769 0.160015
H9    H     H_    0.814657 0.968901 0.573278 0.147554
H10   H     H_    0.186520 0.026947 0.476114 0.145187
H11   H     H_    0.465400 0.792268 0.549624 0.147342
H12   H     H_    0.536479 0.201071 0.519402 0.140877
N1    N     N_R   0.795440 0.560790 0.443380 -0.183812
N2    N     N_R   0.204560 0.439210 0.556620 -0.183225
C35   C     C_R   0.715877 0.668797 0.356006 -0.288587
C36   C     C_R   0.283719 0.330590 0.643501 -0.292586
C37   C     C_R   0.797192 0.638939 0.378429 0.092287
C38   C     C_R   0.202607 0.360769 0.621323 0.092281
C39   C     C_R   0.714620 0.508942 0.487812 0.025426
C40   C     C_R   0.285370 0.490992 0.512182 0.023977
C41   C     C_R   0.628640 0.534915 0.467637 -0.018627
C42   C     C_R   0.371141 0.464684 0.532104 -0.017758
C43   C     C_R   0.631712 0.617556 0.400575 0.145626
C44   C     C_R   0.367902 0.381810 0.598952 0.147791
C45   C     C_R   0.541010 0.483098 0.511551 0.076578
C46   C     C_R   0.458709 0.516394 0.488114 0.072500
C47   C     C_R   0.466897 0.600304 0.421729 -0.214281
C48   C     C_R   0.532705 0.399019 0.577777 -0.217508
C49   C     C_R   0.551347 0.649171 0.378747 -0.161929
C50   C     C_R   0.448123 0.349971 0.620590 -0.172291
H13   H     H_    0.553927 0.712967 0.327941 0.167187
H14   H     H_    0.445369 0.285921 0.671156 0.167062
H15   H     H_    0.280005 0.551220 0.461113 0.128833
H16   H     H_    0.720123 0.448923 0.539073 0.128685
H17   H     H_    0.137163 0.320731 0.655094 0.136120
H18   H     H_    0.862600 0.678948 0.344612 0.137628
H19   H     H_    0.719036 0.732011 0.304459 0.160787
H20   H     H_    0.280392 0.267153 0.694847 0.160079
H21   H     H_    0.409107 0.630630 0.401190 0.147738
H22   H     H_    0.590445 0.368617 0.598217 0.144705
N3    N     N_R   0.810561 0.367873 0.934402 0.167940
O9    O     O_R   0.742102 0.319840 0.986013 -0.290424
O10   O     O_R   0.789287 0.353186 0.853521 -0.343102
N4    N     N_R   0.189477 0.632222 0.065557 0.168129
O11   O     O_R   0.257926 0.680263 0.013937 -0.290654
O12   O     O_R   0.210770 0.646884 0.146446 -0.342851
N5    N     N_R   0.959005 0.303922 0.087489 0.168364
O13   O     O_R   0.944118 0.232926 0.043863 -0.290924
O14   O     O_R   0.954169 0.281929 0.170743 -0.334773
N6    N     N_R   0.041033 0.696172 0.912463 0.167787
O15   O     O_R   0.055909 0.767176 0.956076 -0.291692
O16   O     O_R   0.045901 0.718158 0.829215 -0.336981

loop_
_geom_bond_atom_site_label_1
_geom_bond_atom_site_label_2
_geom_bond_distance
_ccdc_geom_bond_type
N2    C38   1.356210 A    
C42   C44   1.416366 A    
C39   C41   1.421321 A    
C4    C10   1.420924 S    
C29   C30   1.422757 A    
C8    C14   1.537923 S    
N3    O9    1.300229 A    
C21   H8    1.083034 S    
C28   C34   1.390957 A    
C22   H7    1.083023 S    
C50   H14   1.084311 S    
O1    C1    1.301384 A    
C23   C25   1.403826 A    
C12   C14   1.555485 S    
C26   C30   1.424885 A    
C45   C46   1.435677 A    
C37   H18   1.081716 S    
C44   C50   1.393824 A    
C17   C21   1.399852 A    
C36   C38   1.390606 A    
C40   H15   1.075111 S    
O4    Cu1   1.941932 S    
C35   C43   1.401358 A    
C36   H20   1.083804 S    
C41   C43   1.416359 A    
C19   C21   1.392441 A    
C46   C47   1.412284 A    
C43   C49   1.393660 A    
C47   H21   1.076452 S    
C27   C33   1.390462 A    
C5    C11   1.550244 S    
C9    C15   1.197287 T    
C6    C12   1.550268 S    
C10   C16   1.197340 T    
Cu1   Cu2   2.694667 S    
C49   H13   1.084297 S    
O2    C2    1.301356 A    
C20   H10   1.083919 S    
C32   C34   1.387033 A    
N1    C39   1.363263 A    
C1    C17   1.468279 S    
C33   H3    1.084452 S    
N2    C40   1.363131 A    
C34   H4    1.084570 S    
C35   C37   1.390443 A    
C7    C12   1.550277 S    
C18   C22   1.399692 A    
N3    O10   1.300248 A    
C8    C11   1.550262 S    
C38   H17   1.081734 S    
C48   C50   1.388708 A    
N5    O13   1.300272 A    
C47   C49   1.388630 A    
C5    C14   1.537961 S    
Cu1   N2    2.024063 S    
C3    C9    1.420820 S    
C8    N4    1.457286 S    
C20   C22   1.392965 A    
C45   C48   1.412306 A    
O5    C3    1.295291 A    
O7    Cu2   1.936225 S    
N5    O14   1.300165 A    
O7    C3    1.296338 A    
C32   H12   1.077056 S    
H2    C11   1.110079 S    
O6    C4    1.295301 A    
C23   H6    1.075404 S    
C19   H9    1.083919 S    
N6    O16   1.300173 A    
C31   C33   1.386831 A    
C48   H22   1.076489 S    
O3    Cu2   1.941930 S    
O8    C4    1.296363 A    
C31   H11   1.076823 S    
C2    C18   1.467923 S    
N4    O12   1.300244 A    
C29   C32   1.416872 A    
C7    N3    1.457302 S    
O4    C2    1.299726 A    
O1    Cu1   1.954525 S    
C30   C31   1.417130 A    
C6    C13   1.537938 S    
C5    C7    1.529922 S    
Cu2   N1    2.024064 S    
O6    Cu2   1.932285 S    
C6    N6    1.457167 S    
C35   H19   1.083803 S    
O3    C1    1.299833 A    
O8    Cu1   1.936225 S    
N1    C37   1.356094 A    
C13   C15   1.453189 S    
C17   C23   1.399028 A    
C14   C16   1.453270 S    
C18   C24   1.398137 A    
C7    C13   1.537893 S    
C24   C26   1.403826 A    
H1    C12   1.110078 S    
C25   C27   1.417881 A    
C26   C28   1.418189 A    
C42   C46   1.435236 A    
C41   C45   1.435329 A    
C19   C27   1.403373 A    
C20   C28   1.403800 A    
C25   C29   1.424742 A    
N6    O15   1.300271 A    
O2    Cu2   1.954524 S    
C5    N5    1.457151 S    
O5    Cu1   1.932286 S    
C11   C13   1.555442 S    
N4    O11   1.300232 A    
C36   C44   1.401352 A    
C6    C8    1.529933 S    
C24   H5    1.075537 S    
C40   C42   1.421435 A    
C39   H16   1.075202 S    
