data_mof_unit_11874.cif
_audit_creation_date              2012-12-10T17:32:14-0500
_audit_creation_method            fapswitch 2.2
_symmetry_space_group_name_H-M    P1
_symmetry_Int_Tables_number       1
_space_group_crystal_system       triclinic
_cell_length_a                    12.352342
_cell_length_b                    13.36096
_cell_length_c                    15.02756
_cell_angle_alpha                 77.640252
_cell_angle_beta                  101.518663
_cell_angle_gamma                 116.467564
_cell_volume                      2153.24872425

loop_
_atom_site_label
_atom_site_type_symbol
_atom_type_description
_atom_site_fract_x
_atom_site_fract_y
_atom_site_fract_z
_atom_type_partial_charge
C1    C     C_R   0.854346 0.287603 0.506780 0.884830
C2    C     C_R   0.081809 0.587197 0.090033 0.059169
C3    C     C_R   0.820471 0.309803 0.052606 -0.197742
C4    C     C_R   0.821605 0.308873 0.960676 -0.144945
C5    C     C_R   0.907337 0.399804 0.909588 0.089735
C6    C     C_R   0.992835 0.493813 0.952907 0.042107
C7    C     C_R   0.079502 0.586603 0.902815 0.073957
C8    C     C_R   0.165467 0.678459 0.945806 -0.209180
C9    C     C_R   0.167835 0.679346 0.038766 0.158622
C10   C     C_R   0.910503 0.398944 0.816566 0.075724
C11   C     C_R   0.995453 0.493937 0.767427 -0.067117
C12   C     C_R   0.998641 0.498171 0.670836 0.847028
C13   C     C_R   0.079377 0.586307 0.810201 -0.237266
C14   C     C_R   0.263085 0.029930 0.442691 -0.172697
C15   C     C_R   0.229041 0.833257 0.471743 -0.096469
C16   C     C_R   0.815881 0.086703 0.547450 -0.230741
C17   C     C_R   0.738009 0.973207 0.567527 0.042150
C18   C     C_R   0.612513 0.939350 0.546398 -0.143516
C19   C     C_R   0.563555 0.015462 0.496778 0.046733
C20   C     C_R   0.642773 0.130857 0.476417 0.097793
C21   C     C_R   0.435933 0.980525 0.472301 0.068804
C22   C     C_R   0.388371 0.062443 0.447134 0.150645
C23   C     C_R   0.145398 0.712715 0.484990 0.795891
C24   C     C_R   0.466244 0.174286 0.421212 -0.221673
C25   C     C_R   0.590525 0.205342 0.427499 -0.175084
C26   C     C_R   0.354350 0.867028 0.468487 -0.065472
C27   C     C_R   0.184788 0.916009 0.460492 -0.170106
C28   C     C_R   0.769991 0.167149 0.507146 -0.031815
C29   C     C_R   0.352565 0.333179 0.646980 -0.299660
C30   C     C_R   0.754290 0.644170 0.374625 0.339880
C31   C     C_R   0.654384 0.670467 0.347829 -0.222175
C32   C     C_R   0.552507 0.614183 0.393594 -0.203852
C33   C     C_R   0.548546 0.530302 0.468523 0.009529
C34   C     C_R   0.999660 0.499183 0.329362 0.870418
C35   C     C_R   0.652766 0.504504 0.494591 0.242346
C36   C     C_R   0.445390 0.472118 0.519135 -0.009817
C37   C     C_R   0.449245 0.389937 0.594766 0.125474
C38   C     C_R   0.549448 0.364160 0.618294 -0.230934
C39   C     C_R   0.648655 0.420217 0.569301 -0.145125
C40   C     C_R   0.338312 0.492069 0.498765 -0.026851
C41   C     C_R   0.251990 0.358111 0.626019 0.355748
C42   C     C_R   0.082594 0.585059 0.183498 -0.223498
C43   C     C_R   0.996675 0.494075 0.233297 -0.081676
C44   C     C_R   0.907193 0.401712 0.191197 -0.036241
C45   C     C_R   0.905376 0.401742 0.097085 0.054280
C46   C     C_R   0.992961 0.494508 0.046670 0.037297
Cu1   Cu    Cu3+1 0.098270 0.475420 0.521130 0.997220
Cu2   Cu    Cu3+1 0.901730 0.524580 0.478870 0.973171
H1    H     H_    0.148982 0.654303 0.218845 0.184942
H2    H     H_    0.430576 0.236675 0.391922 0.153081
H3    H     H_    0.226156 0.092492 0.426654 0.152249
H4    H     H_    0.912696 0.112930 0.567759 0.169813
H5    H     H_    0.553617 0.853916 0.572112 0.152741
H6    H     H_    0.642463 0.288179 0.393079 0.183479
H7    H     H_    0.551594 0.300107 0.675872 0.179211
H8    H     H_    0.355268 0.269391 0.704645 0.168540
H9    H     H_    0.325377 0.549009 0.439724 0.134937
H10   H     H_    0.478462 0.638469 0.368699 0.184818
H11   H     H_    0.655363 0.735435 0.290370 0.193713
H12   H     H_    0.720690 0.394992 0.592762 0.223559
H13   H     H_    0.752887 0.236588 0.088405 0.156049
H14   H     H_    0.753908 0.235778 0.930729 0.187558
H15   H     H_    0.144926 0.657974 0.770953 0.139814
H16   H     H_    0.231940 0.749683 0.907134 0.171088
H17   H     H_    0.088883 0.892647 0.460771 0.181407
N1    N     N_R   0.246280 0.438190 0.553160 -0.203327
N2    N     N_R   0.754320 0.561190 0.447410 -0.231286
O1    O     O_R   0.972510 0.318130 0.526570 -0.548946
O2    O     O_R   0.806530 0.359650 0.490890 -0.635744
O3    O     O_R   0.082980 0.479210 0.647590 -0.546902
O4    O     O_R   0.917000 0.520730 0.611900 -0.593518
O5    O     O_R   0.193470 0.640350 0.509110 -0.613800
O6    O     O_R   0.027490 0.681870 0.473430 -0.560206
O7    O     O_R   0.083000 0.479270 0.388100 -0.574577
O8    O     O_R   0.917020 0.520790 0.352410 -0.573419
C47   C     C_2   0.395748 0.793693 0.436669 0.367451
H18   H     H_    0.406228 0.723749 0.483030 0.077626
O9    O     O_2   0.422579 0.814545 0.358806 -0.519427
C48   C     C_2   0.789194 0.891550 0.614092 0.396955
H19   H     H_    0.886801 0.920598 0.633140 0.074060
O10   O     O_2   0.723525 0.791037 0.631160 -0.535618
I1    I     I_    0.113418 0.260734 0.712450 -0.316068
C49   C     C_2   0.818737 0.304268 0.246047 0.321647
H20   H     H_    0.721951 0.272045 0.222536 0.081418
O11   O     O_2   0.854396 0.256775 0.316233 -0.554684
I2    I     I_    0.897969 0.743204 0.291991 -0.314997
I3    I     I_    0.795194 0.252569 0.750975 -0.418438
I4    I     I_    0.305328 0.823662 0.095326 -0.290097

loop_
_geom_bond_atom_site_label_1
_geom_bond_atom_site_label_2
_ccdc_geom_bond_type
C16   C28   A    
C21   C26   A    
C19   C20   A    
C32   H10   S    
Cu2   O2    S    
C44   C49   S    
C1    O1    A    
C7    C8    A    
C45   C46   A    
C2    C46   A    
C49   H20   S    
C5    C6    A    
C36   C37   A    
C19   C21   A    
C47   O9    D    
C9    I4    S    
C30   C31   A    
C20   C25   A    
C39   H12   S    
C4    H14   S    
C17   C48   S    
C33   C36   A    
C18   C19   A    
C31   H11   S    
C18   H5    S    
C38   H7    S    
C31   C32   A    
C8    C9    A    
C1    C28   S    
C26   C47   S    
C14   C27   A    
C30   I2    S    
Cu1   N1    S    
C30   N2    A    
C34   O8    A    
C15   C23   S    
C40   N1    A    
C21   C22   A    
Cu2   O8    S    
C23   O6    A    
C23   O5    A    
C47   H18   S    
C3    H13   S    
C24   H2    S    
C10   I3    S    
C36   C40   A    
C24   C25   A    
C48   O10   D    
C16   C17   A    
C15   C26   A    
C20   C28   A    
C3    C45   A    
C1    O2    A    
C35   C39   A    
C43   C44   A    
Cu1   O3    S    
C37   C38   A    
C27   H17   S    
C15   C27   A    
Cu1   Cu2   S    
C13   H15   S    
C35   N2    A    
C17   C18   A    
C25   H6    S    
C41   N1    A    
C8    H16   S    
C49   O11   D    
C12   O4    A    
C34   O7    A    
C22   C24   A    
C42   C43   A    
Cu2   O4    S    
C3    C4    A    
Cu1   O1    S    
C44   C45   A    
C12   O3    A    
C40   H9    S    
C6    C46   A    
C29   C41   A    
Cu2   O6    S    
C34   C43   S    
C16   H4    S    
Cu1   O7    S    
C4    C5    A    
C11   C12   S    
C6    C7    A    
C29   H8    S    
C32   C33   A    
C14   C22   A    
C5    C10   A    
C11   C13   A    
C38   C39   A    
C2    C42   A    
C41   I1    S    
C33   C35   A    
Cu2   N2    S    
Cu1   O5    S    
C10   C11   A    
C42   H1    S    
C48   H19   S    
C7    C13   A    
C14   H3    S    
C29   C37   A    
C2    C9    A    
