data_mof_unit_43742.cif
_audit_creation_date              2012-12-11T14:40:14-0500
_audit_creation_method            fapswitch 2.2
_symmetry_space_group_name_H-M    P1
_symmetry_Int_Tables_number       1
_space_group_crystal_system       triclinic
_cell_length_a                    19.508499
_cell_length_b                    10.930479
_cell_length_c                    19.474775
_cell_angle_alpha                 89.647019
_cell_angle_beta                  97.300305
_cell_angle_gamma                 89.930389
_cell_volume                      4118.99758151

loop_
_atom_site_label
_atom_site_type_symbol
_atom_type_description
_atom_site_fract_x
_atom_site_fract_y
_atom_site_fract_z
_atom_type_partial_charge
C1    C     C_R   0.725536 0.951320 0.360784 0.586006
C2    C     C_R   0.274526 0.952790 0.638628 0.567637
C3    C     C_R   0.207658 0.498841 0.366711 0.546526
C4    C     C_R   0.790680 0.495533 0.632550 0.533113
C5    C     C_3   0.705221 0.330889 0.498435 -0.174545
C6    C     C_3   0.303870 0.368465 0.506877 -0.184631
C7    C     C_3   0.233368 0.798686 0.483969 -0.133471
C8    C     C_3   0.740398 0.795775 0.516126 -0.161133
C9    C     C_3   0.741942 0.371768 0.437195 0.036968
C10   C     C_3   0.256349 0.377721 0.563358 0.006125
C11   C     C_3   0.245490 0.899559 0.431962 0.080690
C12   C     C_3   0.755360 0.901186 0.567686 0.072621
C13   C     C_3   0.734542 0.505263 0.456327 0.007726
C14   C     C_3   0.241854 0.511978 0.546515 0.007850
C15   C     C_3   0.202663 0.988520 0.468546 -0.033097
C16   C     C_3   0.810804 0.949919 0.525738 0.000478
C17   C     C_3   0.805887 0.499881 0.500880 -0.170027
C18   C     C_3   0.178325 0.476060 0.494974 -0.069849
C19   C     C_3   0.270187 0.030544 0.512838 -0.139073
C20   C     C_3   0.755171 0.031066 0.484666 -0.123853
C21   C     C_3   0.812804 0.364935 0.481782 0.013204
C22   C     C_3   0.193192 0.341000 0.512592 0.028356
C23   C     C_3   0.311824 0.937676 0.475636 0.012227
C24   C     C_3   0.700071 0.979139 0.527029 -0.014047
C25   C     C_3   0.776746 0.322229 0.543177 -0.078371
C26   C     C_3   0.240631 0.329200 0.455800 -0.104219
C27   C     C_3   0.301361 0.836532 0.528051 -0.141122
C28   C     C_3   0.683840 0.874913 0.475332 -0.135762
C29   C     C_3   0.769739 0.456930 0.562144 0.020751
C30   C     C_3   0.226233 0.464515 0.438566 0.008920
C31   C     C_3   0.259136 0.927462 0.565344 0.041092
C32   C     C_3   0.739841 0.924483 0.433682 0.046942
C33   C     C_3   0.555728 0.261324 0.964981 -0.152827
C34   C     C_3   0.505408 0.277549 0.019589 -0.127942
C35   C     C_3   0.055725 0.761335 0.964981 -0.152470
C36   C     C_3   0.005403 0.777544 0.019589 -0.127337
C37   C     C_3   0.593174 0.155393 0.008561 -0.166199
C38   C     C_3   0.455439 0.182925 0.982264 -0.121436
C39   C     C_3   0.093177 0.655409 0.008559 -0.166320
C40   C     C_3   0.955441 0.682913 0.982263 -0.121491
C41   C     C_3   0.542324 0.172385 0.062373 0.043629
C42   C     C_3   0.505924 0.167220 0.927609 0.038978
C43   C     C_3   0.042326 0.672385 0.062372 0.043324
C44   C     C_3   0.005927 0.667222 0.927608 0.038403
C45   C     C_R   0.534233 0.180237 0.337300 0.561940
C46   C     C_R   0.436263 0.184039 0.651845 0.545834
C47   C     C_R   0.034169 0.679902 0.337259 0.549409
C48   C     C_R   0.936784 0.683934 0.651824 0.530280
C49   C     C_3   0.493330 0.078661 0.024660 0.179788
C50   C     C_3   0.542157 0.062617 0.970191 0.153115
C51   C     C_3   0.993339 0.578653 0.024657 0.179643
C52   C     C_3   0.042166 0.562624 0.970187 0.152785
C53   C     C_1   0.757625 0.409934 0.899977 -0.011790
C54   C     C_1   0.242678 0.410424 0.100076 0.000502
C55   C     C_1   0.257622 0.909927 0.899974 -0.010806
C56   C     C_1   0.742682 0.910415 0.100079 0.002713
C57   C     C_1   0.734734 0.361780 0.026218 -0.050016
C58   C     C_1   0.265651 0.360033 0.974113 -0.049772
C59   C     C_1   0.234732 0.861778 0.026217 -0.050041
C60   C     C_1   0.765655 0.860024 0.974116 -0.049507
C61   C     C_1   0.745237 0.385066 0.957292 -0.054076
C62   C     C_1   0.255146 0.384633 0.042947 -0.032662
C63   C     C_1   0.245234 0.885060 0.957289 -0.054215
C64   C     C_1   0.755151 0.884621 0.042950 -0.032593
C65   C     C_1   0.728117 0.341289 0.085709 -0.012849
C66   C     C_1   0.272081 0.339391 0.914609 -0.020432
C67   C     C_1   0.228117 0.841291 0.085708 -0.010909
C68   C     C_1   0.772083 0.839385 0.914611 -0.018289
C69   C     C_R   0.727610 0.319984 0.368984 0.551108
C70   C     C_R   0.271726 0.322938 0.630994 0.517694
C71   C     C_R   0.239600 0.864817 0.360810 0.623471
C72   C     C_R   0.760775 0.864553 0.638806 0.611390
C73   C     C_R   0.722681 0.951260 0.164351 0.542431
C74   C     C_R   0.277294 0.950664 0.835512 0.551491
C75   C     C_R   0.222681 0.451261 0.164352 0.546481
C76   C     C_R   0.777295 0.450666 0.835512 0.558474
C77   C     C_R   0.562833 0.182342 0.136751 0.544442
C78   C     C_R   0.473133 0.177923 0.856857 0.557473
C79   C     C_R   0.062834 0.682342 0.136751 0.541538
C80   C     C_R   0.973135 0.677924 0.856855 0.552291
C81   C     C_R   0.722335 0.311267 0.156209 0.538636
C82   C     C_R   0.277734 0.310586 0.843900 0.562565
C83   C     C_R   0.222335 0.811269 0.156209 0.535662
C84   C     C_R   0.777735 0.810585 0.843900 0.557855
C85   C     C_1   0.455782 0.178009 0.583771 -0.006480
C86   C     C_1   0.505584 0.174230 0.401040 0.032536
C87   C     C_1   0.957066 0.677039 0.584094 -0.005116
C88   C     C_1   0.005824 0.671943 0.401130 0.002022
C89   C     C_1   0.487454 0.174724 0.457715 -0.034809
C90   C     C_1   0.470260 0.175965 0.525655 -0.065379
C91   C     C_1   0.988332 0.670318 0.458050 -0.047258
C92   C     C_1   0.971756 0.672811 0.526104 -0.051599
C93   C     C_3   0.697931 0.466192 0.518673 -0.143078
C94   C     C_3   0.289609 0.504838 0.488973 -0.153780
C95   C     C_3   0.191166 0.889094 0.522354 -0.140513
C96   C     C_3   0.796181 0.845260 0.473477 -0.160001
Cr1   Cr    Cr6+3 0.765830 0.160660 0.268180 1.065382
Cr2   Cr    Cr6+3 0.234170 0.160660 0.731820 1.040434
Cr3   Cr    Cr6+3 0.265830 0.660660 0.268180 1.036906
Cr4   Cr    Cr6+3 0.734170 0.660660 0.731820 1.031021
Cr5   Cr    Cr6+3 0.612110 0.009150 0.248770 1.026971
Cr6   Cr    Cr6+3 0.387890 0.009150 0.751230 1.004262
Cr7   Cr    Cr6+3 0.112110 0.509150 0.248770 1.048739
Cr8   Cr    Cr6+3 0.887890 0.509150 0.751230 1.031368
Cr9   Cr    Cr6+3 0.615930 0.324050 0.248450 1.040152
Cr10  Cr    Cr6+3 0.384070 0.324050 0.751550 1.024534
Cr11  Cr    Cr6+3 0.115930 0.824050 0.248450 1.065398
Cr12  Cr    Cr6+3 0.884070 0.824050 0.751550 1.065698
H1    H     H_    0.662419 0.264199 0.493780 0.101612
H2    H     H_    0.355375 0.324713 0.512628 0.126272
H3    H     H_    0.214035 0.708569 0.465804 0.106243
H4    H     H_    0.733340 0.701663 0.534103 0.121219
H5    H     H_    0.651349 0.509692 0.535311 0.129266
H6    H     H_    0.328470 0.573654 0.477571 0.129415
H7    H     H_    0.142109 0.868438 0.543330 0.154071
H8    H     H_    0.834887 0.790169 0.450026 0.143018
H9    H     H_    0.287320 0.123627 0.528485 0.078742
H10   H     H_    0.762292 0.124503 0.466106 0.144173
H11   H     H_    0.845868 0.571507 0.502129 0.098195
H12   H     H_    0.127186 0.522340 0.488304 0.154446
H13   H     H_    0.793434 0.246601 0.579794 0.203622
H14   H     H_    0.243273 0.256186 0.417134 0.202353
H15   H     H_    0.342004 0.773796 0.553029 0.105636
H16   H     H_    0.631600 0.842450 0.453937 0.124032
H17   H     H_    0.649753 0.141027 0.020422 0.102799
H18   H     H_    0.398446 0.192933 0.971110 0.105986
H19   H     H_    0.149757 0.641052 0.020419 0.102383
H20   H     H_    0.898448 0.692909 0.971109 0.105125
H21   H     H_    0.581685 0.336086 0.939415 0.140675
H22   H     H_    0.489517 0.366549 0.039820 0.147181
H23   H     H_    0.081676 0.836104 0.939415 0.141367
H24   H     H_    0.989507 0.866539 0.039822 0.148141
O1    O     O_R   0.783230 0.287800 0.346510 -0.464509
O2    O     O_R   0.216770 0.287800 0.653490 -0.494075
O3    O     O_R   0.283230 0.787800 0.346510 -0.506975
O4    O     O_R   0.716770 0.787800 0.653490 -0.512639
O5    O     O_R   0.554500 0.081650 0.170370 -0.476411
O6    O     O_R   0.445500 0.081650 0.829630 -0.510612
O7    O     O_R   0.054500 0.581650 0.170370 -0.480158
O8    O     O_R   0.945500 0.581650 0.829630 -0.514074
O9    O     O_R   0.545430 0.285140 0.163100 -0.512466
O10   O     O_R   0.454570 0.285140 0.836900 -0.515879
O11   O     O_R   0.045430 0.785140 0.163100 -0.510572
O12   O     O_R   0.954570 0.785140 0.836900 -0.513588
O13   O     O_R   0.677850 0.374730 0.185500 -0.482466
O14   O     O_R   0.322150 0.374730 0.814500 -0.478692
O15   O     O_R   0.177850 0.874730 0.185500 -0.485914
O16   O     O_R   0.822150 0.874730 0.814500 -0.475973
O17   O     O_3   0.664630 0.164620 0.255130 -0.331589
O18   O     O_3   0.335370 0.164620 0.744870 -0.312122
O19   O     O_3   0.164630 0.664620 0.255130 -0.338994
O20   O     O_3   0.835370 0.664620 0.744870 -0.327217
O21   O     O_R   0.760130 0.037060 0.338610 -0.500842
O22   O     O_R   0.239870 0.037060 0.661390 -0.521790
O23   O     O_R   0.260130 0.537060 0.338610 -0.495578
O24   O     O_R   0.739870 0.537060 0.661390 -0.497242
O25   O     O_R   0.666620 0.921370 0.332440 -0.508554
O26   O     O_R   0.333380 0.921370 0.667560 -0.524762
O27   O     O_R   0.166620 0.421370 0.332440 -0.460267
O28   O     O_R   0.833380 0.421370 0.667560 -0.486187
O29   O     O_R   0.557170 0.082420 0.312350 -0.485879
O30   O     O_R   0.442830 0.082420 0.687650 -0.478043
O31   O     O_R   0.057170 0.582420 0.312350 -0.499340
O32   O     O_R   0.942830 0.582420 0.687650 -0.483955
O33   O     O_R   0.548310 0.285980 0.316250 -0.516539
O34   O     O_R   0.451690 0.285980 0.683750 -0.498155
O35   O     O_R   0.048310 0.785980 0.316250 -0.496747
O36   O     O_R   0.951690 0.785980 0.683750 -0.482906
O37   O     O_R   0.680520 0.375500 0.327470 -0.474547
O38   O     O_R   0.319480 0.375500 0.672530 -0.507060
O39   O     O_R   0.180520 0.875500 0.327470 -0.471937
O40   O     O_R   0.819480 0.875500 0.672530 -0.491443
O41   O     O_R   0.780350 0.286970 0.193350 -0.480704
O42   O     O_R   0.219650 0.286970 0.806650 -0.488274
O43   O     O_R   0.280350 0.786970 0.193350 -0.483893
O44   O     O_R   0.719650 0.786970 0.806650 -0.495012
O45   O     O_R   0.757460 0.036290 0.196640 -0.511839
O46   O     O_R   0.242540 0.036290 0.803360 -0.503553
O47   O     O_R   0.257460 0.536290 0.196640 -0.509124
O48   O     O_R   0.742540 0.536290 0.803360 -0.503428
O49   O     O_R   0.663740 0.920540 0.179290 -0.523726
O50   O     O_R   0.336260 0.920540 0.820710 -0.518248
O51   O     O_R   0.163740 0.420540 0.179290 -0.518670
O52   O     O_R   0.836260 0.420540 0.820710 -0.509973
C97   C     C_2   0.709852 0.600744 0.403467 0.255917
H25   H     H_    0.658127 0.637976 0.401635 0.098772
O53   O     O_2   0.746766 0.633362 0.360702 -0.481443
C98   C     C_2   0.242485 0.603911 0.603267 0.255445
H26   H     H_    0.290844 0.627838 0.633994 0.119162
O54   O     O_2   0.188670 0.650396 0.616009 -0.500221
C99   C     C_2   0.143307 0.056188 0.428778 0.229831
H27   H     H_    0.092660 0.052140 0.446099 0.134582
O55   O     O_2   0.150847 0.113905 0.376478 -0.476924
C100  C     C_2   0.881663 0.991711 0.554350 0.305938
H28   H     H_    0.926616 0.951567 0.535673 0.113252
O56   O     O_2   0.889201 0.071540 0.598136 -0.472127
C101  C     C_2   0.880446 0.315253 0.464973 0.312975
H29   H     H_    0.923888 0.376511 0.463076 0.141420
O57   O     O_2   0.887065 0.206813 0.453020 -0.479865
C102  C     C_2   0.136194 0.257349 0.528118 0.286402
H30   H     H_    0.148434 0.169264 0.552452 0.107387
O58   O     O_2   0.075866 0.288770 0.515054 -0.486238
C103  C     C_2   0.378299 0.958851 0.447169 0.229929
H31   H     H_    0.426824 0.937363 0.478551 0.099718
O59   O     O_2   0.378254 0.000409 0.388869 -0.486213
C104  C     C_2   0.646794 0.050863 0.558194 0.215671
H32   H     H_    0.604415 0.090967 0.524748 0.095213
O60   O     O_2   0.650431 0.063762 0.620734 -0.472475
N1    N     N_2   0.456495 0.983946 0.057398 -0.491709
H33   H     H_    0.407460 0.967045 0.032848 0.245766
C105  C     C_3   0.494697 0.874098 0.079668 -0.233390
H34   H     H_    0.487601 0.803975 0.038481 0.126085
H35   H     H_    0.474812 0.836462 0.126339 0.157489
H36   H     H_    0.550701 0.892872 0.092465 0.200596
N2    N     N_2   0.566623 0.947898 0.945202 -0.525986
H37   H     H_    0.612693 0.954923 0.924768 0.263485
C106  C     C_3   0.516488 0.870338 0.905551 -0.263919
H38   H     H_    0.531942 0.773292 0.914734 0.138098
H39   H     H_    0.515391 0.889908 0.849445 0.170982
H40   H     H_    0.463994 0.883066 0.920828 0.172642
N3    N     N_2   0.956510 0.483927 0.057393 -0.493707
H41   H     H_    0.907476 0.467019 0.032844 0.245560
C107  C     C_3   0.994719 0.374084 0.079659 -0.231744
H42   H     H_    0.987631 0.303968 0.038467 0.126861
H43   H     H_    0.974835 0.336431 0.126326 0.160049
H44   H     H_    0.050721 0.392870 0.092460 0.200737
N4    N     N_2   0.066642 0.447914 0.945195 -0.527452
H45   H     H_    0.112713 0.454952 0.924766 0.262894
C108  C     C_3   0.016514 0.370351 0.905535 -0.260205
H46   H     H_    0.031976 0.273307 0.914710 0.140914
H47   H     H_    0.015419 0.389938 0.849430 0.174205
H48   H     H_    0.964019 0.383059 0.920811 0.172000

loop_
_geom_bond_atom_site_label_1
_geom_bond_atom_site_label_2
_ccdc_geom_bond_type
C58   C62   S    
C100  O56   D    
C103  H31   S    
Cr2   O22   S    
C67   C83   S    
Cr10  O18   S    
C83   O43   A    
C17   C29   S    
C14   C18   S    
C79   O7    A    
C35   C36   S    
C8    C96   S    
Cr1   O1    S    
C43   C51   S    
Cr6   O26   S    
C20   H10   S    
C48   O32   A    
C94   H6    S    
C107  H44   S    
C15   C99   S    
C38   C49   S    
Cr11  O39   S    
C10   C22   S    
C106  H40   S    
C15   C19   S    
C103  O59   D    
Cr2   O18   S    
C5    C9    S    
C108  H46   S    
C57   C61   S    
Cr9   O37   S    
Cr7   O51   S    
C33   C42   S    
C72   O40   A    
C22   C102  S    
C77   O5    A    
C38   C42   S    
C108  H48   S    
C36   H24   S    
C15   C95   S    
Cr2   O42   S    
C41   C77   S    
C104  O60   D    
C97   O53   D    
C49   N1    S    
C43   C79   S    
C40   H20   S    
Cr4   O48   S    
C7    C27   S    
C98   O54   D    
C75   O51   A    
Cr6   O6    S    
Cr5   O17   S    
C73   O45   A    
C101  O57   D    
C9    C13   S    
C7    C11   S    
C45   O29   A    
C108  H47   S    
C59   C67   T    
Cr12  O20   S    
C55   C74   S    
C11   C15   S    
C58   C66   T    
C79   O11   A    
C97   H25   S    
C20   C24   S    
C95   H7    S    
C102  H30   S    
C6    C94   S    
C55   C63   T    
Cr4   O44   S    
C69   O1    A    
C56   C64   T    
C18   C30   S    
Cr1   O21   S    
C48   C87   S    
Cr2   O46   S    
C75   O47   A    
C73   O49   A    
C4    C29   S    
C8    C12   S    
C46   C85   S    
Cr11  O19   S    
C44   C52   S    
C100  H28   S    
Cr12  O36   S    
C19   C31   S    
Cr5   O29   S    
C2    O22   A    
N3    C107  S    
C34   C38   S    
C87   C92   T    
C16   C100  S    
Cr3   O23   S    
C6    H2    S    
C34   C41   S    
C53   C61   T    
Cr8   O28   S    
C78   O6    A    
C28   C32   S    
C41   C49   S    
C38   H18   S    
Cr10  O10   S    
C37   H17   S    
Cr9   O17   S    
C84   O16   A    
C25   C29   S    
C33   C34   S    
Cr11  O35   S    
C24   C104  S    
C13   C97   S    
C29   C93   S    
C27   C31   S    
C51   C52   S    
Cr6   O50   S    
C12   C16   S    
C36   C40   S    
Cr1   O41   S    
C107  H42   S    
C10   C14   S    
C57   C65   T    
C91   C92   S    
C27   H15   S    
C104  H32   S    
C93   H5    S    
C54   C62   T    
C80   O12   A    
Cr11  O15   S    
C80   O8    A    
C78   O10   A    
Cr3   O19   S    
C1    C32   S    
Cr4   O20   S    
Cr8   O8    S    
C13   C93   S    
C2    C31   S    
C39   H19   S    
C68   C84   S    
C3    C30   S    
C35   C39   S    
N2    H37   S    
C99   O55   D    
C105  H34   S    
Cr3   O47   S    
N3    H41   S    
Cr7   O7    S    
C66   C82   S    
C47   O35   A    
C52   N4    S    
Cr1   O45   S    
N4    H45   S    
C74   O46   A    
C88   C91   T    
C44   C80   S    
C16   C20   S    
Cr9   O13   S    
C3    O23   A    
N1    H33   S    
C36   C43   S    
C16   C96   S    
Cr3   O3    S    
C3    O27   A    
C69   O37   A    
C1    O21   A    
C35   C44   S    
C60   C68   T    
C22   C26   S    
C42   C50   S    
C83   O15   A    
C10   C70   S    
C32   C96   S    
Cr6   O18   S    
C48   O36   A    
C26   C30   S    
C23   C27   S    
C25   H13   S    
Cr12  O40   S    
C46   O30   A    
C8    C28   S    
C71   O39   A    
C59   C63   S    
C53   C76   S    
Cr4   O24   S    
C82   O14   A    
Cr11  O11   S    
C89   C90   S    
C35   H23   S    
Cr12  O12   S    
C19   H9    S    
Cr5   O49   S    
Cr6   O30   S    
C19   C23   S    
Cr7   O27   S    
C20   C32   S    
C33   H21   S    
C99   H27   S    
C105  H35   S    
C21   C25   S    
Cr5   O5    S    
C56   C73   S    
C46   O34   A    
C4    O24   A    
C18   C22   S    
Cr10  O34   S    
Cr7   O31   S    
C96   H8    S    
Cr8   O20   S    
C24   C28   S    
C21   C101  S    
C76   O48   A    
C86   C89   T    
C4    O28   A    
Cr2   O2    S    
C5    C25   S    
C5    C93   S    
C85   C90   T    
C28   H16   S    
C42   C78   S    
C74   O50   A    
Cr7   O19   S    
C106  H39   S    
C40   C51   S    
C7    C95   S    
C12   C24   S    
C81   O13   A    
Cr10  O14   S    
C13   C17   S    
C60   C64   S    
C47   C88   S    
C9    C69   S    
C1    O25   A    
C45   C86   S    
C70   O38   A    
C82   O42   A    
C47   O31   A    
C30   C94   S    
N4    C108  S    
C76   O52   A    
C71   O3    A    
C37   C50   S    
C107  H43   S    
C9    C21   S    
Cr8   O32   S    
C6    C26   S    
C5    H1    S    
C50   N2    S    
C51   N3    S    
C31   C95   S    
C106  H38   S    
C11   C23   S    
N1    C105  S    
C8    H4    S    
Cr9   O33   S    
C39   C52   S    
C11   C71   S    
C37   C41   S    
C101  H29   S    
C12   C72   S    
Cr9   O9    S    
C33   C37   S    
N2    C106  S    
C72   O4    A    
C6    C10   S    
C17   H11   S    
Cr5   O25   S    
C54   C75   S    
C40   C44   S    
C105  H36   S    
Cr3   O43   S    
C2    O26   A    
C34   H22   S    
C77   O9    A    
C102  O58   D    
C49   C50   S    
Cr10  O38   S    
C39   C43   S    
C23   C103  S    
C70   O2    A    
Cr1   O17   S    
C65   C81   S    
C98   H26   S    
Cr8   O52   S    
C26   H14   S    
C14   C98   S    
C84   O44   A    
C45   O33   A    
C7    H3    S    
C14   C94   S    
Cr4   O4    S    
C81   O41   A    
C18   H12   S    
Cr12  O16   S    
C17   C21   S    
