data_mof_unit_19169.cif
_audit_creation_date              2012-12-11T17:35:34-0500
_audit_creation_method            fapswitch 2.2
_symmetry_space_group_name_H-M    P1
_symmetry_Int_Tables_number       1
_space_group_crystal_system       triclinic
_cell_length_a                    19.77424
_cell_length_b                    19.758298
_cell_length_c                    20.881773
_cell_angle_alpha                 107.859815
_cell_angle_beta                  107.065242
_cell_angle_gamma                 110.988006
_cell_volume                      6460.59334978

loop_
_atom_site_label
_atom_site_type_symbol
_atom_type_description
_atom_site_fract_x
_atom_site_fract_y
_atom_site_fract_z
_atom_type_partial_charge
C1    C     C_R   0.723606 0.719243 0.645461 -0.027304
C2    C     C_R   0.449960 0.223703 0.453648 -0.114401
C3    C     C_R   0.460147 0.481824 0.718647 -0.043776
C4    C     C_R   0.744352 0.499161 0.523989 -0.273934
C5    C     C_R   0.579379 0.579902 0.354789 0.535367
C6    C     C_R   0.270402 0.429513 0.499442 -0.071267
C7    C     C_R   0.457914 0.693856 0.526713 -0.056705
C8    C     C_R   0.340672 0.310233 0.281024 -0.263552
C9    C     C_R   0.268318 0.305173 0.345602 0.761807
C10   C     C_R   0.530156 0.697673 0.461598 -0.128687
C11   C     C_R   0.507673 0.444788 0.288676 -0.247436
C12   C     C_R   0.426368 0.269256 0.497796 0.524217
C13   C     C_R   0.337099 0.565247 0.561803 -0.134222
C14   C     C_R   0.553451 0.514854 0.285898 -0.048100
C15   C     C_R   0.265110 0.496492 0.536681 0.045543
C16   C     C_R   0.475554 0.719765 0.476271 0.053658
C17   C     C_R   0.262117 0.281158 0.273634 -0.038399
C18   C     C_3   0.047095 0.466172 0.639844 -0.384999
C19   C     C_3   0.036998 0.543215 0.659601 0.483753
C20   C     C_1   0.817258 0.498057 0.556263 0.097966
C21   C     C_1   0.206220 0.494151 0.562222 -0.064002
C22   C     C_3   0.962150 0.417368 0.569369 -0.124829
C23   C     C_R   0.491607 0.552757 0.711022 0.524434
C24   C     C_3   0.953870 0.494779 0.590608 0.019423
C25   C     C_3   0.002213 0.443049 0.521123 -0.160040
C26   C     C_3   0.085661 0.492203 0.591007 -0.018983
C27   C     C_3   0.993207 0.520180 0.542142 -0.341824
C28   C     C_3   0.076289 0.568508 0.611723 0.688284
C29   C     C_1   0.879299 0.496746 0.577682 0.027826
C30   C     C_1   0.153979 0.492605 0.579852 0.035229
C31   C     C_3   0.422123 0.939688 0.473584 0.598847
C32   C     C_3   0.475968 0.997291 0.452381 -0.483360
C33   C     C_1   0.421033 0.138466 0.424485 -0.009273
C34   C     C_R   0.668910 0.432788 0.471673 0.464913
C35   C     C_1   0.444749 0.763427 0.445888 -0.013690
C36   C     C_3   0.344879 0.935482 0.423421 -0.241590
C37   C     C_3   0.398046 0.991946 0.400177 0.097118
C38   C     C_3   0.330210 0.860148 0.356407 -0.247598
C39   C     C_3   0.407688 0.865476 0.408215 -0.022269
C40   C     C_3   0.382756 0.918130 0.332502 -0.223449
C41   C     C_3   0.459406 0.922679 0.385334 0.591486
C42   C     C_1   0.404410 0.069132 0.407299 -0.026582
C43   C     C_1   0.423646 0.805224 0.424411 0.070953
C44   C     C_R   0.579149 0.517341 0.226912 -0.087512
C45   C     C_R   0.434408 0.417953 0.649738 -0.202610
C46   C     C_R   0.578428 0.448278 0.179949 -0.240046
C47   C     C_R   0.592191 0.445780 0.117980 -0.243630
C48   C     C_R   0.612899 0.514566 0.105898 0.030531
C49   C     C_R   0.629008 0.588409 0.160451 0.370955
C50   C     C_R   0.602269 0.587126 0.215044 0.402224
C51   C     C_R   0.527838 0.547269 0.924887 0.529915
C52   C     C_R   0.517656 0.548336 0.857129 -0.416255
C53   C     C_R   0.493089 0.471700 0.925331 -0.163333
C54   C     C_R   0.462209 0.477688 0.788440 -0.147908
C55   C     C_R   0.414186 0.404864 0.788965 0.428486
C56   C     C_R   0.735761 0.567369 0.538309 0.636964
C57   C     C_R   0.431339 0.401463 0.857796 0.361132
C58   C     C_R   0.795772 0.843997 0.768762 -0.329620
C59   C     C_R   0.778956 0.906443 0.799544 0.545665
C60   C     C_R   0.842519 0.984284 0.853929 0.582053
C61   C     C_R   0.923148 0.000652 0.875340 -0.026588
C62   C     C_R   0.939692 0.941337 0.838724 -0.501561
C63   C     C_R   0.876626 0.861774 0.785446 0.530958
C64   C     C_R   0.108612 0.113073 0.080267 0.538258
C65   C     C_R   0.179638 0.163716 0.147677 -0.404217
C66   C     C_R   0.046025 0.133572 0.065459 0.050485
C67   C     C_R   0.495563 0.272195 0.430627 -0.085547
C68   C     C_R   0.186981 0.230935 0.203088 -0.011228
C69   C     C_R   0.122677 0.248690 0.191420 0.593056
C70   C     C_R   0.052611 0.200009 0.121289 -0.437598
C71   C     C_R   0.656355 0.713258 0.713493 0.579780
C72   C     C_R   0.729604 0.760368 0.714785 -0.002966
H1    H     H_    0.761616 0.745518 0.622010 0.176121
H2    H     H_    0.231044 0.367353 0.485945 0.173819
H3    H     H_    0.417671 0.702142 0.549893 0.111958
H4    H     H_    0.358188 0.300219 0.236062 0.153766
H5    H     H_    0.555975 0.709024 0.424653 0.155267
H6    H     H_    0.486888 0.382568 0.250054 0.133130
H7    H     H_    0.357496 0.626188 0.603158 0.120997
H8    H     H_    0.070951 0.444328 0.679525 0.155122
H9    H     H_    0.970887 0.542458 0.502157 0.165398
H10   H     H_    0.988685 0.401376 0.463804 0.139938
H11   H     H_    0.913597 0.355241 0.551485 0.136245
H12   H     H_    0.534017 0.054936 0.492717 0.144584
H13   H     H_    0.366858 0.910897 0.274334 0.129495
H14   H     H_    0.271336 0.802963 0.317473 0.158478
H15   H     H_    0.298304 0.942426 0.439828 0.143041
H16   H     H_    0.553314 0.605882 0.859450 0.219766
H17   H     H_    0.580698 0.388833 0.076423 0.170458
H18   H     H_    0.562165 0.394153 0.187833 0.161715
H19   H     H_    0.228271 0.148903 0.157657 0.179453
H20   H     H_    0.002667 0.956883 0.857715 0.203166
H21   H     H_    0.003992 0.214594 0.109489 0.183888
H22   H     H_    0.400991 0.353934 0.631957 0.198772
H23   H     H_    0.508900 0.249827 0.384402 0.160326
N1    N     N_R   0.652850 0.649780 0.604930 -0.100278
N2    N     N_R   0.343210 0.456700 0.500210 -0.051697
N3    N     N_R   0.498730 0.654240 0.540230 -0.048361
N4    N     N_R   0.391920 0.352990 0.355070 -0.072392
N5    N     N_R   0.347150 0.350220 0.395070 -0.109801
N6    N     N_R   0.543500 0.657010 0.500230 -0.048485
N7    N     N_R   0.505660 0.466740 0.355080 -0.060306
N8    N     N_R   0.384980 0.540480 0.540220 -0.054369
N9    N     N_2   0.592746 0.505241 0.032362 -0.013106
N10   N     N_2   0.517334 0.467382 0.993783 -0.048847
N11   N     N_2   0.989141 0.069341 0.941719 0.004049
N12   N     N_R   0.456500 0.342990 0.499770 -0.093180
N13   N     N_2   0.974007 0.083242 0.996708 -0.016985
N14   N     N_R   0.494340 0.533260 0.644920 -0.097532
N15   N     N_R   0.615020 0.459520 0.459780 -0.129753
N16   N     N_R   0.452560 0.449470 0.604910 -0.083563
N17   N     N_R   0.656790 0.543300 0.499790 -0.152392
N18   N     N_R   0.501270 0.345760 0.459770 -0.069095
N19   N     N_R   0.608080 0.647010 0.644930 -0.116504
N20   N     N_R   0.547440 0.550530 0.395090 -0.100679
Ni1   Ni    Ni4+2 0.599250 0.599260 0.500010 0.218619
Ni2   Ni    Ni4+2 0.400750 0.400740 0.499990 0.253987
Ni3   Ni    Ni4+2 0.496570 0.592910 0.591740 0.261677
Ni4   Ni    Ni4+2 0.503430 0.407090 0.408260 0.182384
F1    F     F_    0.206535 0.278830 0.363354 -0.748017
O1    O     O_3   0.050976 0.596621 0.730855 -0.653822
C73   C     C_3   0.130844 0.627479 0.785994 0.239680
H24   H     H_    0.158745 0.694882 0.817561 0.137533
H25   H     H_    0.171866 0.616072 0.762487 0.099794
C74   C     C_3   0.127362 0.591891 0.841248 -0.307020
H26   H     H_    0.092579 0.609908 0.869609 0.216719
H27   H     H_    0.095434 0.524129 0.809926 0.200656
C75   C     C_3   0.212362 0.622168 0.900954 -1.033114
H28   H     H_    0.246704 0.601132 0.874016 0.267568
H29   H     H_    0.207620 0.597314 0.941437 0.278122
H30   H     H_    0.246033 0.689957 0.932579 0.275091
F2    F     F_    0.136196 0.646239 0.634063 -0.701437
O2    O     O_3   0.356614 0.236932 0.506115 -0.670420
C76   C     C_3   0.359863 0.189655 0.544914 0.145107
H31   H     H_    0.371672 0.225397 0.603400 0.149470
H32   H     H_    0.408639 0.172906 0.550083 0.078219
C77   C     C_3   0.277266 0.111998 0.505325 -0.240012
H33   H     H_    0.228149 0.128261 0.495097 0.215147
H34   H     H_    0.268571 0.071101 0.449826 0.197574
C78   C     C_3   0.270105 0.066640 0.552517 -1.027034
H35   H     H_    0.318056 0.049133 0.563452 0.257340
H36   H     H_    0.209879 0.010285 0.521527 0.274469
H37   H     H_    0.275770 0.105690 0.607201 0.282848
O3    O     O_3   0.441669 0.946141 0.546667 -0.652434
C79   C     C_3   0.460561 0.023938 0.598386 0.181830
H38   H     H_    0.423583 0.014525 0.629166 0.136277
H39   H     H_    0.446196 0.061318 0.571694 0.077535
C80   C     C_3   0.550527 0.071580 0.655315 -0.263980
H40   H     H_    0.563607 0.037057 0.685868 0.232954
H41   H     H_    0.588343 0.078692 0.625073 0.195890
C81   C     C_3   0.573487 0.156031 0.712318 -0.974923
H42   H     H_    0.562547 0.192227 0.683001 0.259132
H43   H     H_    0.638937 0.188930 0.753021 0.280839
H44   H     H_    0.537186 0.150433 0.744057 0.273690
O4    O     O_3   0.514734 0.907145 0.361602 -0.679245
C82   C     C_3   0.579821 0.979770 0.375626 0.208808
H45   H     H_    0.626660 0.964592 0.367658 0.133594
H46   H     H_    0.609982 0.027612 0.435156 0.091847
C83   C     C_3   0.553647 0.012157 0.320118 -0.330226
H47   H     H_    0.522062 0.962335 0.261300 0.212323
H48   H     H_    0.511231 0.033578 0.330252 0.200203
C84   C     C_3   0.626663 0.083761 0.329359 -1.001294
H49   H     H_    0.658577 0.134551 0.387690 0.267163
H50   H     H_    0.605754 0.106356 0.289153 0.270458
H51   H     H_    0.669678 0.064250 0.317478 0.267498
O5    O     O_3   0.497389 0.626450 0.751617 -0.636961
C85   C     C_3   0.422677 0.614186 0.752392 0.150371
H52   H     H_    0.413370 0.589860 0.792107 0.097106
H53   H     H_    0.370174 0.570308 0.695790 0.093632
C86   C     C_3   0.424095 0.696046 0.778498 -0.207895
H54   H     H_    0.474760 0.739066 0.836365 0.205161
H55   H     H_    0.434840 0.722496 0.740193 0.218166
C87   C     C_3   0.344229 0.686311 0.779166 -1.018218
H56   H     H_    0.292974 0.645287 0.721416 0.288445
H57   H     H_    0.347468 0.746848 0.799271 0.288910
H58   H     H_    0.332787 0.660549 0.817676 0.257350
O6    O     O_3   0.575383 0.620691 0.990581 -0.637147
C88   C     C_3   0.524651 0.643233 0.017397 0.269784
H59   H     H_    0.564273 0.694896 0.075267 0.175714
H60   H     H_    0.480819 0.593020 0.022211 0.062762
C89   C     C_3   0.479532 0.672685 0.968964 -0.402636
H61   H     H_    0.522897 0.717407 0.958957 0.225557
H62   H     H_    0.431400 0.619791 0.913833 0.187983
C90   C     C_3   0.439208 0.712516 0.007146 -0.988333
H63   H     H_    0.394283 0.668050 0.016062 0.266395
H64   H     H_    0.407107 0.732908 0.970679 0.281329
H65   H     H_    0.485528 0.766544 0.062416 0.270747
O7    O     O_3   0.654130 0.658164 0.151339 -0.648904
C91   C     C_3   0.737818 0.692762 0.170425 0.252034
H66   H     H_    0.750725 0.733218 0.143489 0.139866
H67   H     H_    0.755188 0.646118 0.147815 0.081828
C92   C     C_3   0.789790 0.744504 0.256230 -0.326299
H68   H     H_    0.771625 0.790599 0.277500 0.225311
H69   H     H_    0.779486 0.704616 0.283970 0.194479
C93   C     C_3   0.880096 0.788131 0.277525 -1.010572
H70   H     H_    0.899699 0.742936 0.257746 0.269639
H71   H     H_    0.915806 0.824490 0.339880 0.279774
H72   H     H_    0.892648 0.830039 0.251962 0.269417
O8    O     O_3   0.596980 0.653847 0.254583 -0.614952
C94   C     C_3   0.517848 0.640239 0.215843 0.218839
H73   H     H_    0.472490 0.589013 0.218342 0.086540
H74   H     H_    0.501804 0.625485 0.155576 0.081450
C95   C     C_3   0.513825 0.717469 0.253080 -0.210681
H75   H     H_    0.530190 0.733887 0.313455 0.209911
H76   H     H_    0.558215 0.768810 0.250113 0.203858
C96   C     C_3   0.428784 0.705043 0.213918 -1.017822
H77   H     H_    0.411436 0.689283 0.153522 0.260740
H78   H     H_    0.427555 0.762060 0.241388 0.306232
H79   H     H_    0.383741 0.655335 0.217981 0.264869
O9    O     O_3   0.353851 0.335249 0.722952 -0.643663
C97   C     C_3   0.284639 0.344443 0.697353 0.167896
H80   H     H_    0.300047 0.402684 0.693481 0.087435
H81   H     H_    0.256544 0.343382 0.736298 0.094446
C98   C     C_3   0.222675 0.273711 0.618749 -0.253549
H82   H     H_    0.250486 0.273480 0.579583 0.215272
H83   H     H_    0.204923 0.214899 0.621429 0.207049
C99   C     C_3   0.146948 0.281155 0.587832 -1.012757
H84   H     H_    0.117224 0.280452 0.625434 0.266696
H85   H     H_    0.103199 0.228938 0.530828 0.278162
H86   H     H_    0.163277 0.338780 0.583150 0.266900
O10   O     O_3   0.391958 0.327374 0.857136 -0.610747
C100  C     C_3   0.335033 0.328259 0.885008 0.220991
H87   H     H_    0.298532 0.353610 0.859903 0.054666
H88   H     H_    0.366779 0.365345 0.947491 0.103905
C101  C     C_3   0.276917 0.240755 0.864910 -0.248713
H89   H     H_    0.244523 0.203060 0.802501 0.206755
H90   H     H_    0.312206 0.214429 0.889563 0.207824
C102  C     C_3   0.214581 0.237637 0.894714 -1.006324
H91   H     H_    0.245603 0.273760 0.957216 0.269912
H92   H     H_    0.173390 0.173317 0.879103 0.280801
H93   H     H_    0.177571 0.262357 0.869755 0.267259
O11   O     O_3   0.101924 0.044564 0.028310 -0.655352
C103  C     C_3   0.058331 0.976193 0.036680 0.173969
H94   H     H_    0.993236 0.960024 0.016059 0.109689
H95   H     H_    0.084048 0.988386 0.096844 0.094098
C104  C     C_3   0.063820 0.903523 0.990092 -0.248585
H96   H     H_    0.042230 0.892359 0.930531 0.207781
H97   H     H_    0.128255 0.917651 0.012675 0.197843
C105  C     C_3   0.012487 0.826092 0.992192 -0.995272
H98   H     H_    0.032942 0.835310 0.051241 0.263310
H99   H     H_    0.018860 0.774956 0.958831 0.276668
H100  H     H_    0.947402 0.809370 0.967248 0.271779
O12   O     O_3   0.650125 0.352121 0.439756 -0.662063
C106  C     C_3   0.680969 0.338105 0.386781 0.189313
H101  H     H_    0.684123 0.281104 0.377651 0.138482
H102  H     H_    0.744047 0.387150 0.407522 0.089691
C107  C     C_3   0.624259 0.326087 0.311024 -0.353151
H103  H     H_    0.561488 0.277599 0.291372 0.204741
H104  H     H_    0.623430 0.383830 0.318288 0.191857
C108  C     C_3   0.652296 0.301898 0.251177 -0.978532
H105  H     H_    0.714137 0.350705 0.268809 0.268269
H106  H     H_    0.609818 0.292912 0.196913 0.265987
H107  H     H_    0.653100 0.243851 0.242263 0.267958
O13   O     O_3   0.890021 0.797086 0.754564 -0.630861
C109  C     C_3   0.959927 0.818847 0.742318 0.321711
H108  H     H_    0.962320 0.761749 0.717878 0.171067
H109  H     H_    0.017028 0.859423 0.795894 0.049941
C110  C     C_3   0.955890 0.853511 0.685465 -0.384386
H110  H     H_    0.899022 0.809647 0.632084 0.246792
H111  H     H_    0.955816 0.912161 0.708095 0.197753
C111  C     C_3   0.028476 0.868695 0.668582 -0.934201
H112  H     H_    0.086218 0.911514 0.721477 0.264466
H113  H     H_    0.025684 0.896272 0.629549 0.265096
H114  H     H_    0.027694 0.810252 0.641585 0.283685
O14   O     O_3   0.134079 0.319550 0.245054 -0.660042
C112  C     C_3   0.070380 0.303827 0.266240 0.250004
H115  H     H_    0.097970 0.325524 0.328230 0.167911
H116  H     H_    0.024205 0.237883 0.239913 0.083045
C113  C     C_3   0.028814 0.352521 0.248810 -0.318371
H117  H     H_    0.074925 0.418431 0.277671 0.220742
H118  H     H_    0.000701 0.332003 0.187054 0.206987
C114  C     C_3   0.963298 0.341743 0.275394 -1.000533
H119  H     H_    0.915688 0.276427 0.246316 0.271750
H120  H     H_    0.934489 0.377926 0.262134 0.277047
H121  H     H_    0.990482 0.363529 0.337366 0.261074
F3    F     F_    0.825839 0.042681 0.887432 -0.644898
F4    F     F_    0.701179 0.891407 0.778513 -0.631088
F5    F     F_    0.797414 0.645299 0.580338 -0.730275
O15   O     O_3   0.629943 0.734477 0.766999 -0.588784
C115  C     C_3   0.685812 0.754391 0.839759 0.314917
H122  H     H_    0.656651 0.764141 0.877255 0.144161
H123  H     H_    0.742181 0.813144 0.864391 0.076605
C116  C     C_3   0.706928 0.686881 0.842019 -0.453796
H124  H     H_    0.651082 0.626350 0.809920 0.220376
H125  H     H_    0.748033 0.685275 0.815659 0.210081
C117  C     C_3   0.749475 0.702209 0.923036 -0.930698
H126  H     H_    0.805651 0.762762 0.956475 0.253137
H127  H     H_    0.766147 0.654192 0.923027 0.277216
H128  H     H_    0.708550 0.700326 0.950055 0.280878
O16   O     O_3   0.643519 0.658430 0.387166 -0.655950
C118  C     C_3   0.717391 0.657075 0.402644 0.234038
H129  H     H_    0.720233 0.627553 0.349663 0.086074
H130  H     H_    0.724989 0.623702 0.435858 0.094155
C119  C     C_3   0.787844 0.744773 0.448127 -0.246181
H131  H     H_    0.780254 0.779303 0.415916 0.209792
H132  H     H_    0.787363 0.774748 0.502450 0.195530
C120  C     C_3   0.869376 0.747289 0.464289 -1.009342
H133  H     H_    0.879637 0.715640 0.498833 0.300842
H134  H     H_    0.918998 0.811796 0.495820 0.273059
H135  H     H_    0.871141 0.717510 0.410693 0.265907

loop_
_geom_bond_atom_site_label_1
_geom_bond_atom_site_label_2
_ccdc_geom_bond_type
C119  H132  S    
C95   H75   S    
C13   H7    S    
C111  H112  S    
C7    N3    A    
C116  H125  S    
C47   H17   S    
C120  H133  S    
C3    C23   A    
C105  H98   S    
C18   C26   S    
C78   H37   S    
C2    C12   A    
C5    O16   S    
C76   C77   S    
C102  H92   S    
C79   H38   S    
C4    C56   A    
C39   C41   S    
C18   H8    S    
C57   O10   S    
C89   H61   S    
C106  H101  S    
C99   H86   S    
C77   H34   S    
O2    C76   S    
O10   C100  S    
C86   H55   S    
C38   H14   S    
C33   C42   T    
C14   C44   S    
C36   C37   S    
C118  H130  S    
C8    N4    A    
C80   H41   S    
C18   C19   S    
C37   C40   S    
N14   N16   A    
C16   C35   S    
C69   O14   S    
C119  H131  S    
C3    C54   S    
C98   H83   S    
C107  C108  S    
C63   O13   S    
C86   H54   S    
N6    Ni1   S    
C108  H106  S    
O12   C106  S    
C48   N9    S    
C8    H4    S    
C101  C102  S    
C90   H63   S    
O16   C118  S    
C46   C47   A    
C81   H44   S    
C37   C42   S    
C91   H67   S    
C114  H121  S    
C24   C29   S    
N12   N18   A    
N7    N20   A    
C6    C15   A    
N18   Ni4   S    
N12   Ni2   S    
C19   O1    S    
C31   C32   S    
C106  H102  S    
C94   H73   S    
C22   C25   S    
C62   H20   S    
C74   C75   S    
C114  H120  S    
O15   C115  S    
C83   H48   S    
C6    H2    S    
C13   N8    A    
C35   C43   T    
O14   C112  S    
C21   C30   T    
C61   C62   A    
N2    Ni2   S    
C93   H72   S    
C109  H109  S    
C65   C68   A    
C118  H129  S    
C87   H57   S    
C74   H26   S    
C109  C110  S    
O8    C94   S    
C38   C40   S    
C113  H117  S    
C75   H28   S    
C116  C117  S    
C67   H23   S    
C120  H134  S    
C83   H47   S    
N1    N19   A    
O5    C85   S    
C91   H66   S    
C23   N14   A    
C45   H22   S    
C115  C116  S    
C115  H123  S    
C102  H91   S    
C79   H39   S    
C10   H5    S    
C52   C54   A    
N14   Ni3   S    
N3    Ni3   S    
C85   C86   S    
C84   H50   S    
C20   C29   T    
C107  H104  S    
C36   H15   S    
C38   C39   S    
C32   H12   S    
C95   C96   S    
C4    C34   A    
O4    C82   S    
C1    C72   A    
C56   F5    S    
C51   C52   A    
C6    N2    A    
C88   H59   S    
C27   H9    S    
C118  C119  S    
C78   H35   S    
C119  C120  S    
C85   H53   S    
C104  H96   S    
C89   H62   S    
N1    Ni1   S    
C85   H52   S    
C111  H113  S    
C53   C57   A    
C96   H77   S    
C68   C69   A    
C7    H3    S    
C120  H135  S    
C44   C46   A    
C100  C101  S    
C108  H105  S    
C87   H56   S    
C98   C99   S    
C71   O15   S    
C71   N19   A    
C60   C61   A    
C51   C53   A    
C92   H69   S    
C40   H13   S    
N15   Ni4   S    
C91   C92   S    
C110  H111  S    
C93   H71   S    
C92   C93   S    
C97   H80   S    
C76   H32   S    
O13   C109  S    
C61   N11   S    
C11   H6    S    
C74   H27   S    
C111  H114  S    
C23   O5    S    
C95   H76   S    
C88   H60   S    
N4    N5    A    
C13   C15   A    
C52   H16   S    
C32   C41   S    
C24   C27   S    
C70   H21   S    
C62   C63   A    
C101  H89   S    
O1    C73   S    
C83   C84   S    
C105  H99   S    
C11   C14   A    
N2    N8    A    
C32   C37   S    
C80   H40   S    
C100  H88   S    
C19   C28   S    
C103  H95   S    
C5    C14   A    
N19   Ni3   S    
C112  H116  S    
O6    C88   S    
C46   H18   S    
C2    C33   S    
C9    C17   A    
C40   C41   S    
C97   H81   S    
C2    C67   A    
C9    N5    A    
C12   O2    S    
C55   C57   A    
C25   H10   S    
C34   N15   A    
C49   C50   A    
C22   C24   S    
C15   C21   S    
C58   C59   A    
C110  C111  S    
C99   H85   S    
C114  H119  S    
C73   H25   S    
C109  H108  S    
C75   H30   S    
C102  H93   S    
N17   Ni1   S    
C79   C80   S    
C36   C38   S    
C117  H126  S    
C64   O11   S    
C84   H49   S    
C103  H94   S    
C89   C90   S    
C44   C50   A    
C58   C63   A    
C65   H19   S    
C54   C55   A    
C82   H45   S    
C17   C68   S    
C60   F3    S    
C117  H128  S    
C34   O12   S    
C18   C22   S    
C84   H51   S    
C10   N6    A    
C7    C16   A    
C66   N13   S    
O3    C79   S    
C47   C48   A    
C112  C113  S    
C75   H29   S    
N9    N10   D    
C81   H42   S    
C12   N12   A    
C39   C43   S    
C50   O8    S    
C45   N16   A    
C87   H58   S    
C26   C30   S    
C76   H31   S    
C78   H36   S    
C4    C20   S    
C82   C83   S    
C25   C27   S    
N3    N6    A    
C77   H33   S    
C26   C28   S    
C8    C17   A    
C90   H64   S    
C90   H65   S    
C94   C95   S    
N16   Ni2   S    
C1    H1    S    
C92   H68   S    
C116  H124  S    
C73   C74   S    
C113  H118  S    
C19   C24   S    
C25   C26   S    
C3    C45   A    
C115  H122  S    
C80   C81   S    
C106  C107  S    
C10   C16   A    
C22   H11   S    
C55   O9    S    
C117  H127  S    
C96   H79   S    
C58   C72   S    
C66   C70   A    
C49   O7    S    
N11   N13   D    
C108  H107  S    
C1    N1    A    
C48   C49   A    
C77   C78   S    
C98   H82   S    
C64   C65   A    
C82   H46   S    
O11   C103  S    
C101  H90   S    
C104  H97   S    
C110  H110  S    
C11   N7    A    
C96   H78   S    
C81   H43   S    
C59   F4    S    
C67   N18   A    
C69   C70   A    
C103  C104  S    
N15   N17   A    
C31   O3    S    
C88   C89   S    
C99   H84   S    
C112  H115  S    
N4    Ni4   S    
C93   H70   S    
N8    Ni3   S    
C105  H100  S    
C53   N10   S    
C59   C60   A    
C97   C98   S    
C71   C72   A    
C94   H74   S    
O9    C97   S    
C113  C114  S    
C27   C28   S    
C31   C39   S    
C9    F1    S    
C31   C36   S    
O7    C91   S    
N5    Ni2   S    
C28   F2    S    
C73   H24   S    
C51   O6    S    
C100  H87   S    
C56   N17   A    
C104  C105  S    
C5    N20   A    
N7    Ni4   S    
N20   Ni1   S    
C107  H103  S    
C64   C66   A    
C41   O4    S    
C86   C87   S    
