data_mof_unit_39278.cif
_audit_creation_date              2012-12-10T20:42:44-0500
_audit_creation_method            fapswitch 2.2
_symmetry_space_group_name_H-M    P1
_symmetry_Int_Tables_number       1
_space_group_crystal_system       triclinic
_cell_length_a                    8.902293
_cell_length_b                    10.689664
_cell_length_c                    9.914258
_cell_angle_alpha                 89.928136
_cell_angle_beta                  90.003819
_cell_angle_gamma                 90.615845
_cell_volume                      943.410542582

loop_
_atom_site_label
_atom_site_type_symbol
_atom_type_description
_atom_site_fract_x
_atom_site_fract_y
_atom_site_fract_z
_atom_type_partial_charge
C1    C     C_R   0.502721 0.260244 0.500105 0.911812
C2    C     C_R   0.561961 0.936224 0.383090 -0.162349
C3    C     C_R   0.523290 0.871614 0.501459 -0.073846
C4    C     C_R   0.508054 0.936016 0.622534 0.112011
C5    C     C_3   0.389667 0.924995 0.729047 -0.460562
C6    C     C_3   0.383291 0.066942 0.727294 0.202493
C7    C     C_R   0.412197 0.416984 0.071138 0.113302
C8    C     C_R   0.596736 0.574451 0.071708 0.346759
C9    C     C_R   0.596219 0.574939 0.927935 0.344933
C10   C     C_R   0.412250 0.416918 0.929034 0.109122
C11   C     C_3   0.245161 0.406684 0.923803 -0.417051
C12   C     C_R   0.218878 0.499801 0.499988 0.945222
C13   C     C_3   0.245269 0.406559 0.076907 -0.445649
C14   C     C_R   0.503770 0.739830 0.500027 0.896458
C15   C     C_R   0.781134 0.500115 0.500024 0.951022
C16   C     C_1   0.065455 0.499857 0.500014 -0.148675
C17   C     C_1   0.934564 0.499983 0.500031 -0.122588
C18   C     C_R   0.503921 0.063426 0.621882 0.050321
C19   C     C_R   0.520335 0.128715 0.501155 -0.055013
C20   C     C_R   0.561331 0.065565 0.383124 -0.203646
H1    H     H_    0.584201 0.115053 0.289801 0.178147
N1    N     N_R   0.499010 0.499140 0.142800 -0.159301
N2    N     N_R   0.499010 0.499180 0.857150 -0.162027
O1    O     O_R   0.500020 0.316790 0.614690 -0.608990
O2    O     O_R   0.500000 0.316760 0.385350 -0.630522
O3    O     O_R   0.285350 0.500020 0.614650 -0.610276
O4    O     O_R   0.285340 0.499980 0.385310 -0.620080
O5    O     O_R   0.500000 0.683240 0.614650 -0.583036
O6    O     O_R   0.499980 0.683210 0.385310 -0.590441
O7    O     O_R   0.714660 0.500020 0.614690 -0.574433
O8    O     O_R   0.714650 0.499980 0.385350 -0.577022
Zn1   Zn    Zn3+2 0.500010 0.500020 0.653130 1.018517
Zn2   Zn    Zn3+2 0.499990 0.499980 0.346870 1.007370
H2    H     H_    0.206560 0.316331 0.880081 0.245983
H3    H     H_    0.192190 0.490844 0.121019 0.234041
H4    H     H_    0.207205 0.316040 0.121158 0.215675
H5    H     H_    0.583877 0.887825 0.289490 0.217456
H6    H     H_    0.285968 0.877088 0.692251 0.234199
H7    H     H_    0.435300 0.886984 0.824918 0.208145
Cl1   Cl    Cl    0.207646 0.123217 0.665113 -0.620088
H8    H     H_    0.421704 0.111241 0.822830 0.127366
Cl2   Cl    Cl    0.721920 0.674252 0.158161 -0.549092
Cl3   Cl    Cl    0.718176 0.677468 0.840948 -0.526007
H9    H     H_    0.192063 0.491037 0.879621 0.230341

loop_
_geom_bond_atom_site_label_1
_geom_bond_atom_site_label_2
_ccdc_geom_bond_type
C7    C10   A    
C8    N1    A    
O1    Zn1   S    
O3    Zn1   S    
C10   N2    A    
O7    Zn1   S    
C7    N1    A    
C19   C20   A    
C1    O1    A    
C7    C13   S    
C4    C18   A    
N2    Zn1   S    
O8    Zn2   S    
C2    C3    A    
C11   H9    S    
C5    H6    S    
O4    Zn2   S    
C1    O2    A    
C11   C13   S    
C2    H5    S    
C16   C17   T    
C3    C14   S    
C13   H4    S    
C8    Cl2   S    
C13   H3    S    
C5    H7    S    
C5    C6    S    
C6    C18   S    
C6    Cl1   S    
C9    Cl3   S    
C1    C19   S    
C10   C11   S    
C12   O4    A    
C2    C20   A    
C3    C4    A    
O6    Zn2   S    
O5    Zn1   S    
C20   H1    S    
C15   O7    A    
C18   C19   A    
O2    Zn2   S    
C15   C17   S    
N1    Zn2   S    
C8    C9    A    
C14   O6    A    
C14   O5    A    
C15   O8    A    
C11   H2    S    
C9    N2    A    
C12   C16   S    
C12   O3    A    
C4    C5    S    
C6    H8    S    
