data_mof_unit_37242.cif
_audit_creation_date              2012-12-10T20:35:55-0500
_audit_creation_method            fapswitch 2.2
_symmetry_space_group_name_H-M    P1
_symmetry_Int_Tables_number       1
_space_group_crystal_system       triclinic
_cell_length_a                    15.742439
_cell_length_b                    10.661496
_cell_length_c                    9.879841
_cell_angle_alpha                 89.980811
_cell_angle_beta                  89.574757
_cell_angle_gamma                 90.169171
_cell_volume                      1658.15926001

loop_
_atom_site_label
_atom_site_type_symbol
_atom_type_description
_atom_site_fract_x
_atom_site_fract_y
_atom_site_fract_z
_atom_type_partial_charge
C1    C     C_R   0.503155 0.259993 0.500152 0.879844
C2    C     C_R   0.518060 0.128774 0.501192 -0.114446
C3    C     C_R   0.535864 0.065108 0.380132 -0.172272
C4    C     C_R   0.338398 0.500688 0.500302 0.901660
C5    C     C_R   0.535190 0.935385 0.379721 -0.189938
C6    C     C_R   0.517181 0.871401 0.500665 -0.094733
C7    C     C_R   0.516812 0.935903 0.623111 0.079326
C8    C     C_3   0.456595 0.927930 0.740709 -0.486374
C9    C     C_3   0.457187 0.070635 0.741614 -0.220641
C10   C     C_R   0.434063 0.448009 0.071846 0.150635
C11   C     C_R   0.568020 0.543036 0.071056 -0.056389
C12   C     C_3   0.950598 0.361718 0.468186 -0.258178
C13   C     C_R   0.567781 0.543865 0.927285 -0.049411
C14   C     C_R   0.435175 0.443875 0.929401 0.181368
C15   C     C_3   0.342735 0.475990 0.922129 -0.344223
C16   C     C_R   0.502770 0.740034 0.499965 0.879402
C17   C     C_3   0.342571 0.486733 0.076257 -0.335368
C18   C     C_R   0.661620 0.500268 0.499399 0.902332
C19   C     C_3   0.049730 0.360692 0.474259 -0.245530
C20   C     C_3   0.051579 0.584242 0.374625 -0.418320
C21   C     C_3   0.951898 0.584356 0.368512 0.047708
C22   C     C_1   0.750369 0.500516 0.497372 -0.098639
C23   C     C_3   0.917320 0.499329 0.488904 0.131204
C24   C     C_3   0.083038 0.498424 0.490866 0.182989
C25   C     C_2   0.911478 0.265949 0.564420 0.949752
C26   C     C_2   0.495346 0.125250 0.868255 0.993487
C27   C     C_2   0.086992 0.288046 0.355315 0.943633
C28   C     C_2   0.288740 0.368639 0.872148 0.969025
C29   C     C_2   0.328392 0.619743 0.123789 1.011526
C30   C     C_2   0.919959 0.534842 0.231991 0.899324
C31   C     C_3   0.950546 0.550407 0.626195 -0.399479
C32   C     C_3   0.048183 0.551535 0.626203 -0.401357
C33   C     C_1   0.825586 0.500368 0.493625 -0.007510
C34   C     C_1   0.174473 0.500885 0.496264 0.028828
C35   C     C_1   0.249668 0.501418 0.499669 -0.059873
C36   C     C_R   0.517630 0.063873 0.623598 0.103667
H1    H     H_    0.930288 0.330829 0.365858 0.167930
H2    H     H_    0.621582 0.582593 0.872748 0.148094
H3    H     H_    0.330751 0.565602 0.867686 0.186521
H4    H     H_    0.301866 0.416507 0.129443 0.192992
H5    H     H_    0.075928 0.680967 0.392491 0.177854
H6    H     H_    0.081718 0.557349 0.277348 0.270850
H7    H     H_    0.071164 0.494749 0.712987 0.234431
H8    H     H_    0.071275 0.649288 0.641691 0.190641
H9    H     H_    0.926743 0.492802 0.712122 0.226329
H10   H     H_    0.833086 0.117147 0.586366 0.353038
H11   H     H_    0.481426 0.156035 0.068291 0.327362
H12   H     H_    0.070456 0.308626 0.566041 0.145699
H13   H     H_    0.161908 0.285069 0.188584 0.363116
H14   H     H_    0.189680 0.314545 0.757964 0.337321
H15   H     H_    0.366069 0.800853 0.119053 0.354448
H16   H     H_    0.944206 0.443233 0.056959 0.362686
H17   H     H_    0.948765 0.759144 0.464771 0.197687
H18   H     H_    0.938678 0.765969 0.297346 0.207655
H19   H     H_    0.926080 0.646095 0.647186 0.184750
H20   H     H_    0.544215 0.114453 0.285222 0.175403
H21   H     H_    0.542705 0.886457 0.284298 0.187855
H22   H     H_    0.394000 0.887368 0.712521 0.210319
H23   H     H_    0.486614 0.883464 0.830286 0.227244
H24   H     H_    0.394889 0.112645 0.715068 0.163085
H25   H     H_    0.622126 0.580737 0.124379 0.165604
N1    N     N_R   0.499430 0.499140 0.142800 -0.112826
N2    N     N_R   0.499430 0.499180 0.857150 -0.110412
N3    N     N_3   0.920404 0.714071 0.382772 -0.430041
O1    O     O_R   0.500010 0.316790 0.614690 -0.601235
O2    O     O_R   0.855216 0.176141 0.513639 -0.778103
O3    O     O_2   0.563118 0.181664 0.863963 -0.617388
O4    O     O_R   0.451584 0.112260 0.990973 -0.763925
O5    O     O_2   0.068848 0.177080 0.342467 -0.598896
O6    O     O_R   0.142172 0.344881 0.262030 -0.786330
O7    O     O_2   0.302016 0.261278 0.910119 -0.608815
O8    O     O_R   0.221773 0.393266 0.784489 -0.825634
O9    O     O_2   0.268715 0.642854 0.199501 -0.621631
O10   O     O_R   0.382289 0.716336 0.079791 -0.809568
O11   O     O_2   0.845562 0.550260 0.201166 -0.611036
O12   O     O_R   0.500000 0.316760 0.385350 -0.624096
O13   O     O_R   0.973974 0.470985 0.142581 -0.793710
O14   O     O_R   0.377150 0.500020 0.614720 -0.627061
O15   O     O_R   0.377140 0.499990 0.385380 -0.608194
O16   O     O_R   0.500000 0.683240 0.614650 -0.619067
O17   O     O_R   0.499990 0.683210 0.385310 -0.613550
O18   O     O_R   0.622860 0.500010 0.614620 -0.617754
O19   O     O_R   0.622850 0.499980 0.385280 -0.607553
O20   O     O_2   0.929298 0.265821 0.684696 -0.626913
Zn1   Zn    Zn3+2 0.500010 0.500020 0.653130 0.984478
Zn2   Zn    Zn3+2 0.499990 0.499980 0.346870 0.987314

loop_
_geom_bond_atom_site_label_1
_geom_bond_atom_site_label_2
_ccdc_geom_bond_type
C17   C29   S    
C7    C36   A    
H15   O10   S    
C11   N1    A    
C20   H5    S    
C7    C8    S    
C28   O8    S    
N1    Zn2   S    
C12   C23   S    
C26   O3    D    
H10   O2    S    
C8    H23   S    
C5    C6    A    
C34   C35   T    
H17   N3    S    
C29   O9    D    
C10   C17   S    
C1    C2    S    
C12   H1    S    
H14   O8    S    
C21   N3    S    
C8    H22   S    
C30   O13   S    
C20   C24   S    
C8    C9    S    
C23   C33   S    
C25   O20   D    
C1    O1    A    
C19   C27   S    
O17   Zn2   S    
C27   O5    D    
C4    C35   S    
N2    Zn1   S    
C10   N1    A    
C9    C26   S    
C4    O15   A    
C10   C14   A    
C19   H12   S    
C29   O10   S    
C3    C5    A    
C24   C34   S    
C16   O16   A    
C17   H4    S    
C23   C31   S    
C24   C32   S    
C4    O14   A    
O16   Zn1   S    
C9    C36   S    
C3    H20   S    
C31   C32   S    
C13   N2    A    
C18   O19   A    
C32   H8    S    
C15   H3    S    
C13   H2    S    
C27   O6    S    
O14   Zn1   S    
H13   O6    S    
C21   C23   S    
C28   O7    D    
H16   O13   S    
O12   Zn2   S    
H11   O4    S    
C2    C36   A    
C15   C17   S    
C22   C33   T    
C18   C22   S    
C1    O12   A    
C25   O2    S    
C11   H25   S    
C20   H6    S    
O1    Zn1   S    
C6    C7    A    
O18   Zn1   S    
C21   C30   S    
C5    H21   S    
C12   C25   S    
C9    H24   S    
C26   O4    S    
C19   C24   S    
C30   O11   D    
C11   C13   A    
C15   C28   S    
H18   N3    S    
C14   N2    A    
C12   C19   S    
C16   O17   A    
C18   O18   A    
C32   H7    S    
C2    C3    A    
C6    C16   S    
O19   Zn2   S    
C20   C21   S    
C31   H9    S    
C14   C15   S    
C31   H19   S    
O15   Zn2   S    
