data_mof_unit_43694.cif
_audit_creation_date              2012-12-10T17:23:09-0500
_audit_creation_method            fapswitch 2.2
_symmetry_space_group_name_H-M    P1
_symmetry_Int_Tables_number       1
_space_group_crystal_system       triclinic
_cell_length_a                    15.8465
_cell_length_b                    10.77302
_cell_length_c                    9.639872
_cell_angle_alpha                 90.058547
_cell_angle_beta                  91.096796
_cell_angle_gamma                 92.558019
_cell_volume                      1643.72353014

loop_
_atom_site_label
_atom_site_type_symbol
_atom_type_description
_atom_site_fract_x
_atom_site_fract_y
_atom_site_fract_z
_atom_type_partial_charge
C1    C     C_R   0.497096 0.262694 0.499887 0.785718
C2    C     C_3   0.082856 0.502622 0.495557 0.120687
C3    C     C_3   0.977292 0.607144 0.567283 -0.197468
C4    C     C_3   0.917334 0.502856 0.507831 0.145158
C5    C     C_3   0.028069 0.602638 0.432567 0.121500
C6    C     C_3   0.966736 0.499804 0.372169 -0.170388
C7    C     C_1   0.174671 0.501517 0.493343 -0.091555
C8    C     C_1   0.825560 0.502375 0.508134 -0.069223
C9    C     C_R   0.361441 0.120390 0.638363 -0.187311
C10   C     C_R   0.298039 0.051236 0.705610 -0.143389
C11   C     C_R   0.298087 0.922128 0.705543 -0.140914
C12   C     C_R   0.340024 0.499714 0.498664 0.801760
C13   C     C_R   0.361608 0.861366 0.638403 -0.172305
C14   C     C_R   0.427348 0.929546 0.571285 0.100425
C15   C     C_R   0.427224 0.060860 0.571195 0.097110
C16   C     C_R   0.491388 0.128447 0.499497 -0.098989
C17   C     C_R   0.551631 0.067439 0.424573 -0.194689
C18   C     C_R   0.551807 0.939391 0.424758 -0.209751
C19   C     C_R   0.491699 0.870445 0.499790 -0.085645
C20   C     C_R   0.611850 0.666066 0.146666 -0.134624
C21   C     C_R   0.666717 0.746611 0.076216 -0.216374
C22   C     C_R   0.667035 0.745782 0.933256 -0.203909
C23   C     C_R   0.497535 0.736991 0.499979 0.760432
C24   C     C_R   0.612343 0.664605 0.859742 -0.131875
C25   C     C_R   0.555071 0.581122 0.926989 0.204520
C26   C     C_R   0.554927 0.581430 0.076287 0.212746
C27   C     C_R   0.447658 0.422638 0.072008 -0.058264
C28   C     C_R   0.447643 0.422718 0.924411 -0.054329
C29   C     C_R   0.660005 0.500568 0.501377 0.805441
C30   C     C_3   0.971292 0.401630 0.572402 -0.169378
C31   C     C_3   0.022377 0.398928 0.436734 -0.200148
C32   C     C_1   0.250266 0.500606 0.495215 -0.183736
C33   C     C_1   0.749875 0.501605 0.505188 -0.182696
C34   C     C_3   0.032610 0.505733 0.629438 0.118981
Cu1   Cu    Cu3+1 0.499990 0.499990 0.640660 0.927736
Cu2   Cu    Cu3+1 0.500010 0.500010 0.359340 0.936581
H1    H     H_    0.042148 0.314269 0.382676 0.140793
H2    H     H_    0.248105 0.868721 0.756272 0.129642
H3    H     H_    0.357462 0.761005 0.637613 0.151405
H4    H     H_    0.600332 0.893824 0.368539 0.134802
H5    H     H_    0.404667 0.359065 0.125365 0.137858
H6    H     H_    0.617121 0.674408 0.256142 0.189905
H7    H     H_    0.709463 0.810084 0.133340 0.142297
H8    H     H_    0.710054 0.808538 0.878578 0.145681
H9    H     H_    0.617824 0.671276 0.750472 0.195618
H10   H     H_    0.404636 0.359160 0.868208 0.134284
H11   H     H_    0.946735 0.319755 0.631446 0.128711
H12   H     H_    0.934972 0.495073 0.268783 0.130677
H13   H     H_    0.957489 0.692280 0.620354 0.117012
H14   H     H_    0.600010 0.119479 0.368211 0.151117
H15   H     H_    0.357167 0.220240 0.637430 0.136354
H16   H     H_    0.248038 0.098023 0.756445 0.128448
N1    N     N_R   0.500800 0.501210 0.147910 -0.198681
N2    N     N_R   0.500830 0.501290 0.852040 -0.198792
O1    O     O_R   0.499990 0.319640 0.618810 -0.576350
O2    O     O_R   0.500000 0.319660 0.381240 -0.573861
O3    O     O_R   0.379070 0.499980 0.618770 -0.588417
O4    O     O_R   0.379080 0.500000 0.381190 -0.568155
O5    O     O_R   0.500000 0.680340 0.618760 -0.601408
O6    O     O_R   0.500010 0.680360 0.381190 -0.590014
O7    O     O_R   0.620920 0.500000 0.618810 -0.588264
O8    O     O_R   0.620930 0.500020 0.381230 -0.590769
C35   C     C_3   0.063577 0.718129 0.358266 -0.415491
C36   C     C_3   0.992685 0.798428 0.304131 -0.346955
C37   C     C_3   0.028304 0.909972 0.223381 -0.851779
H17   H     H_    0.071432 0.968650 0.290930 0.254089
H18   H     H_    0.063362 0.878356 0.132064 0.254482
H19   H     H_    0.975733 0.966909 0.186257 0.237378
H20   H     H_    0.948763 0.742616 0.234960 0.215761
H21   H     H_    0.956184 0.832306 0.392813 0.214956
H22   H     H_    0.104776 0.773055 0.432524 0.198521
H23   H     H_    0.103233 0.688904 0.271546 0.207557
C38   C     C_3   0.075682 0.509859 0.772127 -0.408007
C39   C     C_3   0.013281 0.537233 0.885544 -0.348076
C40   C     C_3   0.058589 0.548410 0.025772 -0.860719
H24   H     H_    0.081354 0.456935 0.059342 0.256283
H25   H     H_    0.112826 0.617213 0.021396 0.253352
H26   H     H_    0.013768 0.581496 0.102129 0.243592
H27   H     H_    0.983001 0.626321 0.863174 0.217297
H28   H     H_    0.963191 0.461769 0.889640 0.220041
H29   H     H_    0.104639 0.419371 0.792239 0.197379
H30   H     H_    0.126734 0.584093 0.771573 0.198615

loop_
_geom_bond_atom_site_label_1
_geom_bond_atom_site_label_2
_ccdc_geom_bond_type
C38   C39   S    
C2    C7    S    
C9    H15   S    
C4    C8    S    
C10   H16   S    
C3    H13   S    
C23   O5    A    
C28   H10   S    
C6    H12   S    
C24   H9    S    
C1    O2    A    
Cu2   O4    S    
C5    C6    S    
C15   C16   A    
C29   C33   S    
C5    C35   S    
Cu1   O5    S    
C18   C19   A    
C18   H4    S    
Cu2   N1    S    
C21   H7    S    
C22   H8    S    
Cu1   Cu2   S    
C16   C17   A    
C37   H18   S    
C36   H21   S    
C9    C10   A    
C12   O4    A    
C2    C34   S    
C6    C31   S    
C39   H28   S    
C13   C14   A    
C12   C32   S    
Cu1   N2    S    
Cu2   O8    S    
C38   H29   S    
C23   O6    A    
C29   O7    A    
C39   C40   S    
C30   C34   S    
Cu1   O1    S    
C30   H11   S    
C25   N2    A    
C4    C6    S    
C28   N2    A    
C3    C34   S    
C3    C5    S    
C25   C26   A    
C31   H1    S    
C2    C31   S    
C11   H2    S    
C19   C23   S    
C40   H24   S    
Cu2   O2    S    
C27   H5    S    
C37   H19   S    
C17   C18   A    
Cu1   O7    S    
C1    C16   S    
C36   H20   S    
C24   C25   A    
C40   H25   S    
C12   O3    A    
C35   H22   S    
C39   H27   S    
C22   C24   A    
C2    C5    S    
C3    C4    S    
C26   N1    A    
C38   H30   S    
C29   O8    A    
C7    C32   T    
C14   C19   A    
Cu2   O6    S    
C17   H14   S    
C20   H6    S    
C27   N1    A    
Cu1   O3    S    
C36   C37   S    
C1    O1    A    
C11   C13   A    
C30   C31   S    
C20   C26   A    
C35   H23   S    
C8    C33   T    
C9    C15   A    
C40   H26   S    
C13   H3    S    
C10   C11   A    
C34   C38   S    
C35   C36   S    
C20   C21   A    
C37   H17   S    
C27   C28   A    
C14   C15   A    
C21   C22   A    
C4    C30   S    
