data_mof_unit_64048.cif
_audit_creation_date              2012-12-10T20:40:33-0500
_audit_creation_method            fapswitch 2.2
_symmetry_space_group_name_H-M    P1
_symmetry_Int_Tables_number       1
_space_group_crystal_system       triclinic
_cell_length_a                    21.619443
_cell_length_b                    21.619407
_cell_length_c                    47.140423
_cell_angle_alpha                 90.000684
_cell_angle_beta                  90.000628
_cell_angle_gamma                 90.000283
_cell_volume                      22033.4118966

loop_
_atom_site_label
_atom_site_type_symbol
_atom_type_description
_atom_site_fract_x
_atom_site_fract_y
_atom_site_fract_z
_atom_type_partial_charge
C1    C     C_R   0.997909 0.879958 0.000009 0.883197
C2    C     C_R   0.120042 0.997909 0.000009 0.883195
C3    C     C_R   0.002091 0.120042 0.000009 0.883196
C4    C     C_R   0.879958 0.002092 0.000009 0.883195
C5    C     C_R   0.497909 0.379958 0.500009 0.883195
C6    C     C_R   0.620042 0.497910 0.500009 0.883195
C7    C     C_R   0.502091 0.620042 0.500009 0.883194
C8    C     C_R   0.379958 0.502091 0.500009 0.883194
C9    C     C_R   0.868379 0.193264 0.063007 -0.154336
C10   C     C_R   0.806733 0.868377 0.063003 -0.154327
C11   C     C_R   0.131622 0.806739 0.063007 -0.154338
C12   C     C_R   0.193269 0.131627 0.063004 -0.154328
C13   C     C_R   0.368377 0.693268 0.563005 -0.154318
C14   C     C_R   0.306737 0.368378 0.563005 -0.154329
C15   C     C_R   0.631625 0.306734 0.563004 -0.154322
C16   C     C_R   0.693264 0.631624 0.563006 -0.154332
C17   C     C_R   0.717454 0.038858 0.020280 0.129914
C18   C     C_R   0.961141 0.717454 0.020279 0.129928
C19   C     C_R   0.282547 0.961144 0.020280 0.129912
C20   C     C_R   0.038859 0.282547 0.020279 0.129927
C21   C     C_R   0.217454 0.538860 0.520278 0.129919
C22   C     C_R   0.461143 0.217454 0.520279 0.129910
C23   C     C_R   0.782547 0.461141 0.520278 0.129918
C24   C     C_R   0.538857 0.782547 0.520280 0.129910
C25   C     C_R   0.686509 0.000041 0.000846 -0.156799
C26   C     C_R   0.999960 0.686509 0.000846 -0.156802
C27   C     C_R   0.313491 0.999959 0.000846 -0.156798
C28   C     C_R   0.000040 0.313491 0.000846 -0.156801
C29   C     C_R   0.186509 0.500040 0.500845 -0.156801
C30   C     C_R   0.499960 0.186509 0.500846 -0.156799
C31   C     C_R   0.813491 0.499960 0.500845 -0.156800
C32   C     C_R   0.500039 0.813491 0.500846 -0.156799
C33   C     C_R   0.719320 0.964003 0.980973 -0.014082
C34   C     C_R   0.036000 0.719321 0.980974 -0.014085
C35   C     C_R   0.280679 0.035997 0.980973 -0.014080
C36   C     C_R   0.963999 0.280678 0.980974 -0.014086
C37   C     C_R   0.219320 0.463997 0.480973 -0.014084
C38   C     C_R   0.536000 0.219321 0.480973 -0.014082
C39   C     C_R   0.780679 0.536003 0.480974 -0.014082
C40   C     C_R   0.463998 0.780678 0.480973 -0.014082
C41   C     C_R   0.783032 0.965708 0.981219 -0.252242
C42   C     C_R   0.034295 0.783032 0.981220 -0.252242
C43   C     C_R   0.216967 0.034293 0.981220 -0.252240
C44   C     C_R   0.965703 0.216967 0.981221 -0.252241
C45   C     C_R   0.283032 0.465703 0.481220 -0.252233
C46   C     C_R   0.534295 0.283032 0.481220 -0.252240
C47   C     C_R   0.716967 0.534297 0.481221 -0.252235
C48   C     C_R   0.465704 0.716967 0.481221 -0.252239
C49   C     C_R   0.813897 0.003983 0.000190 -0.101824
C50   C     C_R   0.996017 0.813897 0.000190 -0.101821
C51   C     C_R   0.186103 0.996018 0.000191 -0.101824
C52   C     C_R   0.003981 0.186103 0.000191 -0.101817
C53   C     C_R   0.313897 0.503982 0.500189 -0.101817
C54   C     C_R   0.496018 0.313897 0.500190 -0.101819
C55   C     C_R   0.686103 0.496019 0.500190 -0.101817
C56   C     C_R   0.503981 0.686103 0.500191 -0.101817
C57   C     C_R   0.781852 0.042581 0.019190 0.035994
C58   C     C_R   0.957418 0.781851 0.019188 0.035992
C59   C     C_R   0.218149 0.957421 0.019190 0.035995
C60   C     C_R   0.042582 0.218149 0.019189 0.035992
C61   C     C_R   0.281852 0.542583 0.519188 0.035989
C62   C     C_R   0.457420 0.281851 0.519189 0.035991
C63   C     C_R   0.718149 0.457419 0.519188 0.035989
C64   C     C_R   0.542580 0.718150 0.519189 0.035990
C65   C     C_R   0.662257 0.870745 0.963209 -0.133405
C66   C     C_R   0.129261 0.662257 0.963215 -0.133400
C67   C     C_R   0.337741 0.129254 0.963209 -0.133405
C68   C     C_R   0.870737 0.337740 0.963215 -0.133401
C69   C     C_R   0.162256 0.370727 0.463223 -0.133394
C70   C     C_R   0.629262 0.162256 0.463216 -0.133397
C71   C     C_R   0.837744 0.629269 0.463222 -0.133393
C72   C     C_R   0.370736 0.837742 0.463216 -0.133399
C73   C     C_R   0.634918 0.837647 0.941056 -0.207254
C74   C     C_R   0.162360 0.634913 0.941064 -0.207246
C75   C     C_R   0.365080 0.162350 0.941057 -0.207253
C76   C     C_R   0.837637 0.365084 0.941064 -0.207245
C77   C     C_R   0.134906 0.337619 0.441077 -0.207234
C78   C     C_R   0.662362 0.134910 0.441066 -0.207241
C79   C     C_R   0.865095 0.662374 0.441076 -0.207231
C80   C     C_R   0.337636 0.865087 0.441066 -0.207239
C81   C     C_R   0.636148 0.860835 0.913326 0.198042
C82   C     C_R   0.139176 0.636139 0.913333 0.198041
C83   C     C_R   0.363849 0.139160 0.913327 0.198042
C84   C     C_R   0.860822 0.363860 0.913334 0.198038
C85   C     C_R   0.136124 0.360792 0.413344 0.198036
C86   C     C_R   0.639180 0.136136 0.413335 0.198037
C87   C     C_R   0.863873 0.639198 0.413343 0.198033
C88   C     C_R   0.360818 0.863862 0.413335 0.198036
C89   C     C_R   0.499999 0.999996 0.764734 -0.008240
C90   C     C_R   0.999998 0.500001 0.764736 -0.008245
C91   C     C_R   0.999996 0.499995 0.264739 -0.008248
C92   C     C_R   0.500000 0.000001 0.264736 -0.008244
C93   C     C_R   0.665461 0.917728 0.907805 0.173674
C94   C     C_R   0.082286 0.665453 0.907808 0.173670
C95   C     C_R   0.334537 0.082267 0.907805 0.173673
C96   C     C_R   0.917712 0.334546 0.907809 0.173668
C97   C     C_R   0.165439 0.417679 0.407813 0.173669
C98   C     C_R   0.582291 0.165453 0.407809 0.173673
C99   C     C_R   0.834554 0.582313 0.407812 0.173668
C100  C     C_R   0.417707 0.834546 0.407809 0.173670
C101  C     C_R   0.690979 0.951570 0.930194 -0.250598
C102  C     C_R   0.048441 0.690976 0.930196 -0.250597
C103  C     C_R   0.309018 0.048426 0.930195 -0.250598
C104  C     C_R   0.951557 0.309023 0.930196 -0.250596
C105  C     C_R   0.190970 0.451533 0.430197 -0.250596
C106  C     C_R   0.548445 0.190977 0.430196 -0.250597
C107  C     C_R   0.809024 0.548462 0.430197 -0.250596
C108  C     C_R   0.451553 0.809021 0.430196 -0.250595
C109  C     C_R   0.689067 0.928647 0.957979 0.081421
C110  C     C_R   0.071360 0.689068 0.957982 0.081422
C111  C     C_R   0.310931 0.071352 0.957980 0.081421
C112  C     C_R   0.928638 0.310930 0.957982 0.081423
C113  C     C_R   0.189066 0.428626 0.457985 0.081425
C114  C     C_R   0.571362 0.189067 0.457982 0.081422
C115  C     C_R   0.810931 0.571371 0.457984 0.081421
C116  C     C_R   0.428637 0.810930 0.457982 0.081423
C117  C     C_R   0.469404 0.046013 0.809342 0.625474
C118  C     C_R   0.953966 0.469427 0.809343 0.625468
C119  C     C_R   0.530593 0.953979 0.809342 0.625473
C120  C     C_R   0.046031 0.530571 0.809344 0.625468
C121  C     C_R   0.969457 0.546051 0.309346 0.625462
C122  C     C_R   0.453965 0.969430 0.309342 0.625469
C123  C     C_R   0.030532 0.453938 0.309346 0.625461
C124  C     C_R   0.546035 0.030568 0.309344 0.625467
C125  C     C_R   0.468836 0.953070 0.869121 0.431432
C126  C     C_R   0.046918 0.468823 0.869123 0.431448
C127  C     C_R   0.531162 0.046924 0.869122 0.431430
C128  C     C_R   0.953080 0.531175 0.869123 0.431445
C129  C     C_R   0.968798 0.453091 0.369125 0.431464
C130  C     C_R   0.546915 0.968819 0.369123 0.431445
C131  C     C_R   0.031195 0.546903 0.369125 0.431462
C132  C     C_R   0.453083 0.031178 0.369123 0.431444
C133  C     C_R   0.469793 0.952797 0.898687 -0.254467
C134  C     C_R   0.047193 0.469781 0.898688 -0.254463
C135  C     C_R   0.530205 0.047200 0.898687 -0.254464
C136  C     C_R   0.952805 0.530218 0.898688 -0.254462
C137  C     C_R   0.969758 0.452816 0.398690 -0.254461
C138  C     C_R   0.547191 0.969776 0.398688 -0.254463
C139  C     C_R   0.030238 0.547180 0.398690 -0.254459
C140  C     C_R   0.452808 0.030221 0.398688 -0.254462
C141  C     C_R   0.499999 0.999997 0.854083 0.109014
C142  C     C_R   0.999999 0.499999 0.854084 0.108995
C143  C     C_R   0.999995 0.499996 0.354087 0.108967
C144  C     C_R   0.499999 0.999999 0.354084 0.108997
C145  C     C_R   0.946937 0.481191 0.130897 0.418187
C146  C     C_R   0.480989 0.052988 0.130895 0.418171
C147  C     C_R   0.053067 0.518803 0.130898 0.418191
C148  C     C_R   0.519015 0.947017 0.130895 0.418168
C149  C     C_R   0.447068 0.980854 0.630893 0.418155
C150  C     C_R   0.980990 0.552989 0.630895 0.418174
C151  C     C_R   0.552935 0.019141 0.630894 0.418158
C152  C     C_R   0.019007 0.447014 0.630895 0.418171
C153  C     C_R   0.946951 0.481699 0.101353 -0.215286
C154  C     C_R   0.481493 0.052974 0.101350 -0.215292
C155  C     C_R   0.053052 0.518297 0.101354 -0.215287
C156  C     C_R   0.518508 0.947029 0.101350 -0.215290
C157  C     C_R   0.447079 0.981362 0.601348 -0.215297
C158  C     C_R   0.981496 0.552976 0.601351 -0.215294
C159  C     C_R   0.552923 0.018634 0.601349 -0.215295
C160  C     C_R   0.018502 0.447026 0.601351 -0.215291
C161  C     C_R   0.000001 0.499999 0.086434 -0.164705
C162  C     C_R   0.500000 0.000001 0.086432 -0.164599
C163  C     C_R   0.500001 0.999999 0.586431 -0.164539
C164  C     C_R   0.999999 0.500001 0.586432 -0.164602
C165  C     C_R   0.500000 1.000000 0.944565 0.920573
C166  C     C_R   1.000000 0.500000 0.944566 0.920572
C167  C     C_R   1.000000 0.500000 0.444566 0.920574
C168  C     C_R   0.500000 1.000000 0.444566 0.920570
C169  C     C_R   0.028978 0.452887 0.190244 0.621839
C170  C     C_R   0.547074 0.029039 0.190241 0.621859
C171  C     C_R   0.971024 0.547106 0.190244 0.621836
C172  C     C_R   0.452928 0.970967 0.190240 0.621855
C173  C     C_R   0.529078 0.952949 0.690238 0.621871
C174  C     C_R   0.047070 0.529040 0.690241 0.621857
C175  C     C_R   0.470925 0.047045 0.690238 0.621868
C176  C     C_R   0.952925 0.470965 0.690240 0.621855
C177  C     C_R   0.000002 0.499997 0.145779 0.112398
C178  C     C_R   0.500002 0.000003 0.145776 0.112513
C179  C     C_R   0.500001 0.999997 0.645774 0.112589
C180  C     C_R   0.999998 0.500002 0.645776 0.112509
C181  C     C_R   0.969936 0.547809 0.219943 -0.040655
C182  C     C_R   0.452220 0.969887 0.219938 -0.040641
C183  C     C_R   0.030062 0.452182 0.219943 -0.040659
C184  C     C_R   0.547782 0.030118 0.219940 -0.040642
C185  C     C_R   0.469847 0.047753 0.719937 -0.040636
C186  C     C_R   0.952217 0.469885 0.719939 -0.040645
C187  C     C_R   0.530154 0.952240 0.719937 -0.040638
C188  C     C_R   0.047777 0.530119 0.719940 -0.040645
C189  C     C_R   0.999998 0.499995 0.234850 -0.003604
C190  C     C_R   0.500001 0.000002 0.234846 -0.003574
C191  C     C_R   0.500000 0.999996 0.734844 -0.003556
C192  C     C_R   0.999997 0.500002 0.734846 -0.003577
C193  C     C_R   0.500000 0.000000 0.055377 0.948438
C194  C     C_R   0.000000 0.500000 0.055378 0.948505
C195  C     C_R   1.000000 0.500000 0.555377 0.948440
C196  C     C_R   0.500000 1.000000 0.555377 0.948394
C197  C     C_R   0.939663 0.594952 0.235012 -0.100600
C198  C     C_R   0.405104 0.939571 0.235007 -0.100623
C199  C     C_R   0.060333 0.405039 0.235013 -0.100600
C200  C     C_R   0.594897 0.060433 0.235010 -0.100626
C201  C     C_R   0.439497 0.094846 0.735007 -0.100638
C202  C     C_R   0.905103 0.439567 0.735008 -0.100620
C203  C     C_R   0.560502 0.905147 0.735007 -0.100638
C204  C     C_R   0.094891 0.560437 0.735009 -0.100622
C205  C     C_R   0.500000 0.999999 0.913554 -0.178585
C206  C     C_R   0.999999 0.499999 0.913555 -0.178577
C207  C     C_R   0.999998 0.499999 0.413556 -0.178562
C208  C     C_R   0.499999 0.999999 0.413555 -0.178575
C209  C     C_R   0.438971 0.094470 0.764577 -0.100180
C210  C     C_R   0.905482 0.439035 0.764578 -0.100180
C211  C     C_R   0.561027 0.905523 0.764577 -0.100179
C212  C     C_R   0.094513 0.560967 0.764580 -0.100179
C213  C     C_R   0.939121 0.594568 0.264582 -0.100187
C214  C     C_R   0.405482 0.939040 0.264577 -0.100182
C215  C     C_R   0.060871 0.405421 0.264582 -0.100186
C216  C     C_R   0.594518 0.060962 0.264580 -0.100181
C217  C     C_R   0.469173 0.047239 0.779642 -0.041437
C218  C     C_R   0.952735 0.469203 0.779643 -0.041438
C219  C     C_R   0.530825 0.952753 0.779642 -0.041436
C220  C     C_R   0.047261 0.530798 0.779644 -0.041437
C221  C     C_R   0.969240 0.547285 0.279647 -0.041436
C222  C     C_R   0.452736 0.969206 0.279643 -0.041436
C223  C     C_R   0.030751 0.452704 0.279647 -0.041437
C224  C     C_R   0.547265 0.030795 0.279644 -0.041434
C225  C     C_R   0.620227 0.000016 0.000286 0.910235
C226  C     C_R   0.999984 0.620227 0.000286 0.910252
C227  C     C_R   0.379773 0.999984 0.000286 0.910235
C228  C     C_R   0.000016 0.379773 0.000286 0.910252
C229  C     C_R   0.120227 0.500016 0.500285 0.910229
C230  C     C_R   0.499985 0.120227 0.500286 0.910219
C231  C     C_R   0.879773 0.499984 0.500285 0.910227
C232  C     C_R   0.500015 0.879773 0.500286 0.910219
C233  C     C_R   0.856160 0.138569 0.077846 0.423965
C234  C     C_R   0.861428 0.856159 0.077843 0.423976
C235  C     C_R   0.143842 0.861436 0.077846 0.423963
C236  C     C_R   0.138573 0.143843 0.077844 0.423978
C237  C     C_R   0.356159 0.638573 0.577844 0.423975
C238  C     C_R   0.361433 0.356161 0.577845 0.423965
C239  C     C_R   0.643844 0.361430 0.577843 0.423976
C240  C     C_R   0.638568 0.643842 0.577845 0.423967
C241  C     C_R   0.829211 0.087903 0.063760 0.375591
C242  C     C_R   0.912094 0.829211 0.063757 0.375585
C243  C     C_R   0.170791 0.912100 0.063760 0.375591
C244  C     C_R   0.087907 0.170791 0.063758 0.375584
C245  C     C_R   0.329211 0.587906 0.563757 0.375575
C246  C     C_R   0.412098 0.329211 0.563758 0.375578
C247  C     C_R   0.670792 0.412096 0.563757 0.375575
C248  C     C_R   0.587903 0.670791 0.563759 0.375578
C249  C     C_R   0.814365 0.092766 0.034695 -0.025158
C250  C     C_R   0.907233 0.814365 0.034693 -0.025158
C251  C     C_R   0.185636 0.907237 0.034695 -0.025158
C252  C     C_R   0.092768 0.185637 0.034693 -0.025161
C253  C     C_R   0.314365 0.592768 0.534693 -0.025159
C254  C     C_R   0.407235 0.314364 0.534694 -0.025158
C255  C     C_R   0.685637 0.407234 0.534693 -0.025159
C256  C     C_R   0.592766 0.685638 0.534694 -0.025160
C257  C     C_R   0.828119 0.147594 0.020029 -0.223877
C258  C     C_R   0.852404 0.828116 0.020025 -0.223871
C259  C     C_R   0.171883 0.852407 0.020029 -0.223875
C260  C     C_R   0.147596 0.171887 0.020026 -0.223871
C261  C     C_R   0.328118 0.647596 0.520026 -0.223870
C262  C     C_R   0.352406 0.328116 0.520027 -0.223872
C263  C     C_R   0.671884 0.352405 0.520026 -0.223868
C264  C     C_R   0.647595 0.671886 0.520028 -0.223871
C265  C     C_R   0.854797 0.197600 0.034169 -0.195546
C266  C     C_R   0.802398 0.854795 0.034165 -0.195559
C267  C     C_R   0.145204 0.802402 0.034168 -0.195547
C268  C     C_R   0.197603 0.145210 0.034166 -0.195558
C269  C     C_R   0.354795 0.697603 0.534166 -0.195564
C270  C     C_R   0.302400 0.354794 0.534167 -0.195559
C271  C     C_R   0.645207 0.302399 0.534165 -0.195564
C272  C     C_R   0.697600 0.645207 0.534168 -0.195561
H1    H     H_    0.888491 0.232578 0.073832 0.216821
H2    H     H_    0.767419 0.888488 0.073827 0.216830
H3    H     H_    0.111510 0.767426 0.073831 0.216821
H4    H     H_    0.232583 0.111516 0.073828 0.216829
H5    H     H_    0.388488 0.732582 0.573829 0.216835
H6    H     H_    0.267424 0.388490 0.573830 0.216829
H7    H     H_    0.611515 0.267420 0.573828 0.216834
H8    H     H_    0.732578 0.611512 0.573830 0.216830
H9    H     H_    0.713343 0.995425 0.925896 0.180757
H10   H     H_    0.004588 0.713341 0.925895 0.180758
H11   H     H_    0.286654 0.004571 0.925897 0.180756
H12   H     H_    0.995411 0.286659 0.925896 0.180757
H13   H     H_    0.213333 0.495384 0.425891 0.180759
H14   H     H_    0.504593 0.213343 0.425894 0.180759
H15   H     H_    0.786657 0.504611 0.425892 0.180760
H16   H     H_    0.495405 0.786656 0.425895 0.180758
H17   H     H_    0.916159 0.632148 0.224026 0.211285
H18   H     H_    0.367932 0.916028 0.224021 0.211269
H19   H     H_    0.083838 0.367843 0.224027 0.211285
H20   H     H_    0.632069 0.083976 0.224024 0.211268
H21   H     H_    0.415925 0.131999 0.724021 0.211264
H22   H     H_    0.867932 0.416023 0.724021 0.211275
H23   H     H_    0.584075 0.867994 0.724020 0.211264
H24   H     H_    0.132062 0.583982 0.724024 0.211275
H25   H     H_    0.415004 0.131366 0.775566 0.210026
H26   H     H_    0.868570 0.415091 0.775567 0.210031
H27   H     H_    0.584994 0.868626 0.775566 0.210026
H28   H     H_    0.131426 0.584910 0.775569 0.210031
H29   H     H_    0.915211 0.631503 0.275571 0.210035
H30   H     H_    0.368568 0.915098 0.275566 0.210027
H31   H     H_    0.084780 0.368487 0.275572 0.210035
H32   H     H_    0.631432 0.084903 0.275570 0.210027
H33   H     H_    0.445672 0.916538 0.910060 0.202392
H34   H     H_    0.083446 0.445650 0.910062 0.202385
H35   H     H_    0.554327 0.083459 0.910060 0.202392
H36   H     H_    0.916552 0.554349 0.910061 0.202385
H37   H     H_    0.945610 0.416574 0.410064 0.202373
H38   H     H_    0.583441 0.945642 0.410062 0.202383
H39   H     H_    0.054386 0.583422 0.410064 0.202374
H40   H     H_    0.416557 0.054356 0.410061 0.202383
H41   H     H_    0.905806 0.467002 0.090095 0.205699
H42   H     H_    0.466630 0.094052 0.090092 0.205596
H43   H     H_    0.094196 0.532996 0.090097 0.205699
H44   H     H_    0.533370 0.905950 0.090092 0.205597
H45   H     H_    0.406043 0.966398 0.590089 0.205532
H46   H     H_    0.966638 0.594055 0.590092 0.205596
H47   H     H_    0.593959 0.033599 0.590090 0.205532
H48   H     H_    0.033361 0.405947 0.590092 0.205596
H49   H     H_    0.817106 0.151935 0.997697 0.166268
H50   H     H_    0.848064 0.817103 0.997694 0.166271
H51   H     H_    0.182896 0.848065 0.997697 0.166268
H52   H     H_    0.151936 0.182901 0.997695 0.166272
H53   H     H_    0.317105 0.651936 0.497694 0.166271
H54   H     H_    0.348064 0.317101 0.497695 0.166270
H55   H     H_    0.682896 0.348064 0.497694 0.166272
H56   H     H_    0.651935 0.682900 0.497696 0.166271
H57   H     H_    0.864413 0.240036 0.022826 0.175250
H58   H     H_    0.759963 0.864409 0.022821 0.175250
H59   H     H_    0.135589 0.759966 0.022825 0.175250
H60   H     H_    0.240039 0.135596 0.022822 0.175250
H61   H     H_    0.364410 0.740038 0.522823 0.175247
H62   H     H_    0.259964 0.364409 0.522823 0.175244
H63   H     H_    0.635592 0.259963 0.522821 0.175247
H64   H     H_    0.740036 0.635593 0.522824 0.175246
H65   H     H_    0.808774 0.937230 0.966371 0.175671
H66   H     H_    0.062774 0.808775 0.966373 0.175667
H67   H     H_    0.191224 0.062770 0.966372 0.175671
H68   H     H_    0.937223 0.191223 0.966373 0.175667
H69   H     H_    0.308775 0.437223 0.466372 0.175665
H70   H     H_    0.562773 0.308775 0.466372 0.175669
H71   H     H_    0.691224 0.562778 0.466373 0.175665
H72   H     H_    0.437224 0.691223 0.466372 0.175668
H73   H     H_    0.662181 0.851515 0.984426 0.155429
H74   H     H_    0.148487 0.662183 0.984432 0.155428
H75   H     H_    0.337818 0.148485 0.984426 0.155429
H76   H     H_    0.851510 0.337813 0.984432 0.155426
H77   H     H_    0.162187 0.351510 0.484442 0.155421
H78   H     H_    0.648486 0.162182 0.484434 0.155424
H79   H     H_    0.837816 0.648488 0.484441 0.155422
H80   H     H_    0.351512 0.837816 0.484433 0.155424
H81   H     H_    0.613298 0.793512 0.945424 0.171107
H82   H     H_    0.206494 0.613292 0.945434 0.171103
H83   H     H_    0.386701 0.206486 0.945424 0.171107
H84   H     H_    0.793503 0.386705 0.945434 0.171102
H85   H     H_    0.113284 0.293488 0.445452 0.171096
H86   H     H_    0.706495 0.113288 0.445437 0.171101
H87   H     H_    0.886719 0.706504 0.445450 0.171096
H88   H     H_    0.293503 0.886710 0.445437 0.171101
N1    N     N_R   0.499998 0.999996 0.823591 -0.334526
N2    N     N_R   0.999999 0.499999 0.823592 -0.334532
N3    N     N_R   0.999994 0.499995 0.323595 -0.334541
N4    N     N_R   0.500000 0.999999 0.323592 -0.334532
N5    N     N_R   0.000002 0.499997 0.176130 -0.335050
N6    N     N_R   0.500002 0.000003 0.176126 -0.335024
N7    N     N_R   0.500002 0.999997 0.676124 -0.335008
N8    N     N_R   0.999998 0.500002 0.676126 -0.335027
O1    O     O_R   0.000020 0.908410 0.023640 -0.595063
O2    O     O_R   0.091590 0.000020 0.023640 -0.595068
O3    O     O_R   0.999980 0.091590 0.023640 -0.595064
O4    O     O_R   0.908410 0.999980 0.023640 -0.595066
O5    O     O_R   0.500020 0.408410 0.523640 -0.595066
O6    O     O_R   0.591590 0.500020 0.523640 -0.595065
O7    O     O_R   0.499980 0.591590 0.523640 -0.595067
O8    O     O_R   0.408410 0.499980 0.523640 -0.595064
O9    O     O_R   0.000040 0.908440 0.976310 -0.627968
O10   O     O_R   0.091560 0.000040 0.976310 -0.627968
O11   O     O_R   0.999960 0.091560 0.976310 -0.627967
O12   O     O_R   0.908440 0.999960 0.976310 -0.627968
O13   O     O_R   0.500040 0.408440 0.476310 -0.627967
O14   O     O_R   0.591560 0.500040 0.476310 -0.627966
O15   O     O_R   0.499960 0.591560 0.476310 -0.627966
O16   O     O_R   0.408440 0.499960 0.476310 -0.627966
O17   O     O_R   0.591640 0.051770 0.999960 -0.598424
O18   O     O_R   0.948230 0.591640 0.999960 -0.598429
O19   O     O_R   0.408360 0.948230 0.999960 -0.598425
O20   O     O_R   0.051770 0.408360 0.999960 -0.598430
O21   O     O_R   0.091640 0.551770 0.499960 -0.598424
O22   O     O_R   0.448230 0.091640 0.499960 -0.598420
O23   O     O_R   0.908360 0.448230 0.499960 -0.598425
O24   O     O_R   0.551770 0.908360 0.499960 -0.598421
O25   O     O_R   0.591650 0.948320 0.999970 -0.630192
O26   O     O_R   0.051680 0.591650 0.999970 -0.630178
O27   O     O_R   0.408350 0.051680 0.999970 -0.630192
O28   O     O_R   0.948320 0.408350 0.999970 -0.630177
O29   O     O_R   0.091650 0.448320 0.499970 -0.630192
O30   O     O_R   0.551680 0.091650 0.499970 -0.630202
O31   O     O_R   0.908350 0.551680 0.499970 -0.630194
O32   O     O_R   0.448320 0.908350 0.499970 -0.630201
O33   O     O_2   0.056555 0.406987 0.175528 -0.482979
O34   O     O_2   0.592935 0.056680 0.175524 -0.483050
O35   O     O_2   0.943450 0.593006 0.175527 -0.482983
O36   O     O_2   0.407068 0.943328 0.175521 -0.483053
O37   O     O_2   0.556761 0.907115 0.675520 -0.483087
O38   O     O_2   0.092930 0.556680 0.675524 -0.483043
O39   O     O_2   0.443243 0.092879 0.675520 -0.483090
O40   O     O_2   0.907065 0.443324 0.675522 -0.483043
O41   O     O_2   0.439403 0.090542 0.823884 -0.485865
O42   O     O_2   0.909425 0.439443 0.823884 -0.485852
O43   O     O_2   0.560593 0.909450 0.823884 -0.485865
O44   O     O_2   0.090573 0.560554 0.823886 -0.485855
O45   O     O_2   0.939499 0.590611 0.323888 -0.485843
O46   O     O_2   0.409422 0.939449 0.323884 -0.485854
O47   O     O_2   0.060489 0.409378 0.323889 -0.485841
O48   O     O_2   0.590578 0.060548 0.323887 -0.485856
O49   O     O_R   0.500040 0.051770 0.958040 -0.616724
O50   O     O_R   0.948230 0.500040 0.958040 -0.616723
O51   O     O_R   0.499960 0.948230 0.958040 -0.616725
O52   O     O_R   0.051770 0.499960 0.958040 -0.616722
O53   O     O_R   0.000040 0.551770 0.458040 -0.616720
O54   O     O_R   0.448230 0.000040 0.458040 -0.616722
O55   O     O_R   0.999960 0.448230 0.458040 -0.616721
O56   O     O_R   0.551770 0.999960 0.458040 -0.616722
O57   O     O_R   0.500000 0.051760 0.041880 -0.609632
O58   O     O_R   0.948240 0.500000 0.041880 -0.609679
O59   O     O_R   0.500000 0.948240 0.041880 -0.609631
O60   O     O_R   0.051760 0.500000 0.041880 -0.609679
O61   O     O_R   1.000000 0.551760 0.541880 -0.609632
O62   O     O_R   0.448240 0.000000 0.541880 -0.609600
O63   O     O_R   1.000000 0.448240 0.541880 -0.609631
O64   O     O_R   0.551760 0.000000 0.541880 -0.609601
Zn1   Zn    Zn3+2 1.000000 0.000000 0.031580 1.119540
Zn2   Zn    Zn3+2 0.500000 0.500000 0.531580 1.119541
Zn3   Zn    Zn3+2 1.000000 0.000000 0.968370 0.998619
Zn4   Zn    Zn3+2 0.500000 0.500000 0.468370 0.998626
Zn5   Zn    Zn3+2 0.500020 0.069110 0.999960 1.015110
Zn6   Zn    Zn3+2 0.930890 0.500020 0.999960 1.015098
Zn7   Zn    Zn3+2 0.499980 0.930890 0.999960 1.015110
Zn8   Zn    Zn3+2 0.069110 0.499980 0.999960 1.015097
Zn9   Zn    Zn3+2 0.000020 0.569110 0.499960 1.015106
Zn10  Zn    Zn3+2 0.430890 0.000020 0.499960 1.015115
Zn11  Zn    Zn3+2 0.999980 0.430890 0.499960 1.015108
Zn12  Zn    Zn3+2 0.569110 0.999980 0.499960 1.015114
I1    I     I_    0.593932 0.807395 0.881042 -0.130632
I2    I     I_    0.192617 0.593912 0.881053 -0.130652
I3    I     I_    0.406066 0.192597 0.881042 -0.130634
I4    I     I_    0.807381 0.406089 0.881054 -0.130654
I5    I     I_    0.093882 0.307340 0.381071 -0.130691
I6    I     I_    0.692622 0.093906 0.381055 -0.130664
I7    I     I_    0.906117 0.692644 0.381069 -0.130691
I8    I     I_    0.307377 0.906093 0.381055 -0.130666
I9    I     I_    0.676502 0.953902 0.866407 -0.173106
I10   I     I_    0.046120 0.676488 0.866408 -0.173104
I11   I     I_    0.323495 0.046090 0.866408 -0.173104
I12   I     I_    0.953878 0.323513 0.866409 -0.173102
I13   I     I_    0.176462 0.453824 0.366409 -0.173082
I14   I     I_    0.546130 0.176488 0.366408 -0.173088
I15   I     I_    0.823525 0.546164 0.366409 -0.173077
I16   I     I_    0.453869 0.823511 0.366409 -0.173086
Cl1   Cl    Cl    0.426325 0.895268 0.851473 -0.496364
Cl2   Cl    Cl    0.104708 0.426295 0.851476 -0.496369
Cl3   Cl    Cl    0.573673 0.104726 0.851474 -0.496368
Cl4   Cl    Cl    0.895289 0.573703 0.851476 -0.496372
Cl5   Cl    Cl    0.926238 0.395319 0.351479 -0.496375
Cl6   Cl    Cl    0.604702 0.926285 0.351476 -0.496368
Cl7   Cl    Cl    0.073753 0.604673 0.351478 -0.496379
Cl8   Cl    Cl    0.395296 0.073711 0.351475 -0.496368
Cl9   Cl    Cl    0.880263 0.456003 0.148910 -0.490203
Cl10  Cl    Cl    0.455552 0.119557 0.148910 -0.490210
Cl11  Cl    Cl    0.119742 0.543990 0.148912 -0.490197
Cl12  Cl    Cl    0.544453 0.880449 0.148910 -0.490211
Cl13  Cl    Cl    0.380568 0.955254 0.648909 -0.490238
Cl14  Cl    Cl    0.955559 0.619561 0.648910 -0.490228
Cl15  Cl    Cl    0.619435 0.044739 0.648910 -0.490236
Cl16  Cl    Cl    0.044440 0.380444 0.648910 -0.490230
Cl17  Cl    Cl    0.874128 0.135168 0.114208 -0.352556
Cl18  Cl    Cl    0.864828 0.874127 0.114205 -0.352497
Cl19  Cl    Cl    0.125873 0.864838 0.114208 -0.352557
Cl20  Cl    Cl    0.135175 0.125875 0.114206 -0.352496
Cl21  Cl    Cl    0.374126 0.635174 0.614206 -0.352460
Cl22  Cl    Cl    0.364835 0.374131 0.614206 -0.352499
Cl23  Cl    Cl    0.625878 0.364829 0.614205 -0.352461
Cl24  Cl    Cl    0.635168 0.625872 0.614207 -0.352499
Cl25  Cl    Cl    0.813365 0.019321 0.082560 -0.481159
Cl26  Cl    Cl    0.980676 0.813368 0.082559 -0.481173
Cl27  Cl    Cl    0.186636 0.980684 0.082560 -0.481159
Cl28  Cl    Cl    0.019325 0.186633 0.082559 -0.481175
Cl29  Cl    Cl    0.313367 0.519324 0.582558 -0.481163
Cl30  Cl    Cl    0.480682 0.313369 0.582559 -0.481149
Cl31  Cl    Cl    0.686637 0.480678 0.582559 -0.481161
Cl32  Cl    Cl    0.519321 0.686635 0.582559 -0.481153
I17   I     I_    0.668131 0.091592 0.051709 -0.218533
I18   I     I_    0.908405 0.668131 0.051706 -0.218554
I19   I     I_    0.331871 0.908411 0.051709 -0.218534
I20   I     I_    0.091597 0.331872 0.051707 -0.218558
I21   I     I_    0.168132 0.591598 0.551706 -0.218523
I22   I     I_    0.408411 0.168131 0.551708 -0.218509
I23   I     I_    0.831871 0.408405 0.551706 -0.218525
I24   I     I_    0.591592 0.831872 0.551708 -0.218510

loop_
_geom_bond_atom_site_label_1
_geom_bond_atom_site_label_2
_ccdc_geom_bond_type
C132  C144  A    
C232  O32   A    
C82   C94   A    
C6    O6    A    
C34   C42   A    
C165  O51   A    
C85   I5    S    
C16   H8    S    
C28   C228  S    
C173  N7    A    
C164  C195  S    
C197  C213  A    
O32   Zn10  S    
C244  Cl28  S    
C227  O27   A    
C199  H19   S    
O50   Zn6   S    
C263  H55   S    
C38   C114  S    
C144  N4    S    
C15   C239  A    
C149  C179  A    
C30   C38   A    
C96   I12   S    
O8    Zn2   S    
C214  C222  A    
C99   I15   S    
O19   Zn7   S    
C18   C58   A    
C97   I13   S    
C44   H68   S    
C31   C231  S    
C20   I20   S    
C168  C208  S    
C117  C217  A    
C16   C240  A    
C209  H25   S    
C147  C155  A    
C234  C242  A    
C97   C105  A    
C14   H6    S    
C3    O3    A    
C79   C87   A    
C100  I16   S    
C99   C107  A    
C126  Cl2   S    
C123  N3    A    
C183  C189  A    
C73   C81   A    
C174  O38   S    
C11   C235  A    
C269  H61   S    
C264  H56   S    
C180  N8    S    
C9    C233  A    
C170  O34   S    
C75   C83   A    
C92   C224  A    
C257  C265  A    
C93   C101  A    
C47   H71   S    
C13   C237  A    
C212  C220  A    
C27   C35   A    
C21   C29   A    
C153  C161  A    
C23   C31   A    
C242  Cl26  S    
C24   C32   A    
C89   C219  A    
C151  C179  A    
C42   H66   S    
O2    Zn1   S    
O55   Zn11  S    
C204  C212  A    
O13   Zn4   S    
C237  C245  A    
C66   H74   S    
C66   C110  A    
C235  C243  A    
C234  Cl18  S    
C195  O61   A    
C129  C143  A    
C83   I3    S    
C255  C263  A    
C39   C115  S    
C96   C104  A    
C245  C253  A    
C157  H45   S    
C36   C44   A    
C57   C249  S    
C198  C214  A    
C166  O50   A    
C32   C40   A    
C131  C143  A    
O5    Zn2   S    
C252  C260  A    
C39   C47   A    
C253  C261  A    
C40   C48   A    
O17   Zn5   S    
C61   C253  S    
C170  C184  A    
C171  C181  A    
C11   H3    S    
C3    C52   S    
C48   H72   S    
C240  Cl24  S    
C98   C106  A    
C4    C49   S    
C17   C25   A    
C147  C177  A    
C209  C217  A    
C80   C88   A    
O20   Zn8   S    
C27   C227  S    
C163  C196  S    
C25   C225  S    
C270  H62   S    
C105  H13   S    
C85   C97   A    
C62   C254  S    
C129  C137  A    
C126  C134  A    
C201  H21   S    
C122  C222  A    
C171  O35   S    
C231  O23   A    
C54   C62   A    
C203  H23   S    
C228  O28   A    
C165  C205  S    
C175  N7    A    
C17   I17   S    
C94   I10   S    
C146  C178  A    
C45   H69   S    
C32   C232  S    
C69   C77   A    
C48   C56   A    
C41   H65   S    
C71   C79   A    
C90   C192  A    
C91   C189  A    
C186  C202  A    
C199  C215  A    
C103  C111  A    
O28   Zn6   S    
C26   C226  S    
C9    H1    S    
C150  Cl14  S    
C130  Cl6   S    
C22   C62   A    
C185  C201  A    
C66   C74   A    
C198  H18   S    
C22   I22   S    
C49   C57   A    
C8    O8    A    
C127  C141  A    
C196  O62   A    
C119  O43   S    
C52   C60   A    
C53   C61   A    
C4    O4    A    
C124  C224  A    
C125  C141  A    
C184  C200  A    
C55   C63   A    
C230  O22   A    
O7    Zn2   S    
C260  C268  A    
C130  C144  A    
C246  Cl30  S    
C90   C220  A    
C226  O18   A    
C263  C271  A    
C77   C85   A    
O31   Zn9   S    
C203  C211  A    
C265  H57   S    
C236  Cl20  S    
C201  C209  A    
C175  O39   S    
O64   Zn12  S    
C51   C59   A    
C176  O40   S    
O10   Zn3   S    
C100  C108  A    
C243  C251  A    
C5    C54   S    
C137  H37   S    
C95   I11   S    
O18   Zn6   S    
C216  C224  A    
C104  C112  A    
C138  C208  A    
C19   C59   A    
C188  C204  A    
O53   Zn9   S    
C151  C159  A    
C107  H15   S    
C228  O20   A    
C12   C268  A    
C36   C112  S    
C108  H16   S    
C13   C269  A    
O60   Zn8   S    
C77   H85   S    
C239  Cl23  S    
C50   C58   A    
C169  N5    A    
C248  Cl32  S    
C73   H81   S    
C6    O14   A    
O3    Zn1   S    
C153  H41   S    
C42   C50   A    
O16   Zn4   S    
C139  C207  A    
C172  O36   S    
C197  H17   S    
O59   Zn7   S    
C173  O37   S    
C59   C251  S    
C34   C110  S    
C184  C190  A    
C67   C75   A    
C258  C266  A    
C159  H47   S    
C169  O33   S    
C160  H48   S    
C141  N1    S    
C168  O54   A    
C127  Cl3   S    
C166  O52   A    
C173  C187  A    
C243  Cl27  S    
C148  C178  A    
C10   C266  A    
C5    O13   A    
C154  C162  A    
C259  H51   S    
C8    C53   S    
C213  H29   S    
C140  C208  A    
C68   C76   A    
C211  C219  A    
C118  N2    A    
C69   H77   S    
C122  N4    A    
C216  H32   S    
C101  H9    S    
C188  C192  A    
C15   H7    S    
C196  O64   A    
C29   C229  S    
C72   C80   A    
C121  O45   S    
C134  H34   S    
C136  C206  A    
O26   Zn8   S    
C266  H58   S    
C1    O1    A    
C193  O59   A    
C162  C193  S    
C194  O60   A    
C46   H70   S    
C200  C216  A    
C3    O11   A    
C204  H24   S    
C159  C163  A    
C158  H46   S    
C90   C218  A    
C131  C139  A    
C139  H39   S    
C254  C262  A    
C24   C64   A    
C20   C60   A    
C128  Cl4   S    
C119  N1    A    
O58   Zn6   S    
C5    O5    A    
O22   Zn10  S    
O1    Zn1   S    
C18   C26   A    
C6    C55   S    
C76   C84   A    
C170  N6    A    
C181  C189  A    
C149  Cl13  S    
C155  C161  A    
O15   Zn4   S    
C160  C164  A    
C225  O25   A    
C127  C135  A    
C235  Cl19  S    
C128  C136  A    
C117  O41   S    
C134  C206  A    
C37   C113  S    
C101  C109  A    
C187  C203  A    
C202  H22   S    
C239  C247  A    
C247  Cl31  S    
C171  N5    A    
C251  C259  A    
C213  C221  A    
C98   I14   S    
C271  H63   S    
C118  C218  A    
O14   Zn4   S    
O29   Zn11  S    
C76   H84   S    
C22   C30   A    
C1    C50   S    
C21   C61   A    
O27   Zn5   S    
C135  C205  A    
C23   C63   A    
C181  C197  A    
C264  C272  A    
O24   Zn12  S    
C2    O2    A    
O54   Zn10  S    
C7    C56   S    
C10   H2    S    
C152  Cl16  S    
C125  Cl1   S    
C68   H76   S    
C92   C190  A    
C24   I24   S    
C10   C234  A    
C229  O29   A    
O51   Zn7   S    
O23   Zn11  S    
O11   Zn3   S    
C143  N3    S    
C260  H52   S    
C236  C244  A    
C246  C254  A    
C126  C142  A    
C215  C223  A    
C272  H64   S    
C231  O31   A    
C210  H26   S    
C241  Cl25  S    
C229  O21   A    
C175  C185  A    
C43   H67   S    
C88   I8    S    
C178  N6    S    
C120  C220  A    
C81   I1    S    
C46   C54   A    
C200  H20   S    
C241  C249  A    
C256  C264  A    
C65   H73   S    
C65   C109  A    
C88   C100  A    
C233  Cl17  S    
C67   C111  A    
C147  Cl11  S    
C167  O55   A    
C145  Cl9   S    
C168  O56   A    
C71   H79   S    
C91   C223  A    
C124  N4    A    
C20   C28   A    
C215  H31   S    
C150  C180  A    
C105  C113  A    
C150  C158  A    
C106  H14   S    
C8    O16   A    
C249  C257  A    
C212  H28   S    
C14   C270  A    
O25   Zn7   S    
C132  C140  A    
C232  O24   A    
C72   C116  A    
C7    O15   A    
C108  C116  A    
C242  C250  A    
C104  H12   S    
C154  H42   S    
C43   C51   A    
C140  H40   S    
C123  C223  A    
C226  O26   A    
C148  Cl12  S    
C92   C222  A    
C194  O58   A    
C107  C115  A    
O49   Zn5   S    
C86   C98   A    
C259  C267  A    
C2    C51   S    
O63   Zn11  S    
C7    O7    A    
C69   C113  A    
C28   C36   A    
C29   C37   A    
C240  C248  A    
C121  C221  A    
C166  C206  S    
C121  N3    A    
C149  C157  A    
C156  C162  A    
C82   I2    S    
C84   I4    S    
C17   C57   A    
C214  H30   S    
C247  C255  A    
C93   I9    S    
C152  C160  A    
C152  C180  A    
O56   Zn12  S    
C19   I19   S    
C70   C78   A    
C102  H10   S    
C182  C198  A    
C79   H87   S    
C12   H4    S    
C75   H83   S    
C122  O46   S    
C135  H35   S    
O9    Zn3   S    
C155  H43   S    
C70   C114  A    
O52   Zn8   S    
O61   Zn9   S    
C146  Cl10  S    
C106  C114  A    
C14   C238  A    
C131  Cl7   S    
C138  H38   S    
C185  C191  A    
C151  Cl15  S    
C262  C270  A    
C23   I23   S    
C142  N2    S    
C65   C73   A    
C21   I21   S    
C238  Cl22  S    
C169  C183  A    
O12   Zn3   S    
C237  Cl21  S    
C176  N8    A    
C41   C49   A    
C63   C255  S    
C95   C103  A    
C172  N6    A    
C167  O53   A    
C261  H53   S    
C244  C252  A    
C11   C267  A    
C227  O19   A    
C91   C221  A    
C19   C27   A    
C13   H5    S    
C187  C191  A    
C158  C164  A    
C174  C188  A    
C78   C86   A    
C137  C207  A    
C87   I7    S    
O4    Zn1   S    
C86   I6    S    
C35   C111  S    
C119  C219  A    
C238  C246  A    
C123  O47   S    
C202  C210  A    
C15   C271  A    
C124  O48   S    
C103  H11   S    
C26   C34   A    
C182  C190  A    
C118  O42   S    
C87   C99   A    
C1    O9    A    
C38   C46   A    
C16   C272  A    
C225  O17   A    
C72   H80   S    
C33   C41   A    
C165  O49   A    
C193  O57   A    
C89   C217  A    
C183  C199  A    
C18   I18   S    
C167  C207  S    
C146  C154  A    
C78   H86   S    
C81   C93   A    
C148  C156  A    
C257  H49   S    
C83   C95   A    
C136  H36   S    
C56   C64   A    
C89   C191  A    
C71   C115  A    
C74   H82   S    
O57   Zn5   S    
C133  C205  A    
O6    Zn2   S    
C233  C241  A    
C70   H78   S    
C80   H88   S    
C174  N8    A    
C132  Cl8   S    
C268  H60   S    
C9    C265  A    
C133  H33   S    
C58   C250  S    
C33   C109  S    
C145  C177  A    
C84   C96   A    
C120  O44   S    
C35   C43   A    
C4    O12   A    
C47   C55   A    
C74   C82   A    
C125  C133  A    
C12   C236  A    
C172  C182  A    
C157  C163  A    
C230  O30   A    
C261  C269  A    
C258  H50   S    
C211  H27   S    
C248  C256  A    
C176  C186  A    
C245  Cl29  S    
O30   Zn12  S    
C210  C218  A    
C117  N1    A    
C30   C230  S    
C156  H44   S    
C145  C153  A    
C267  H59   S    
O21   Zn9   S    
C44   C52   A    
C40   C116  S    
C128  C142  A    
C31   C39   A    
C161  C194  S    
C2    O10   A    
C186  C192  A    
C102  C110  A    
C45   C53   A    
C262  H54   S    
C177  N5    S    
C25   C33   A    
C60   C252  S    
C67   H75   S    
C179  N7    S    
C120  N2    A    
O62   Zn10  S    
C129  Cl5   S    
C37   C45   A    
C250  C258  A    
C68   C112  A    
C94   C102  A    
C195  O63   A    
C64   C256  S    
C130  C138  A    
