data_mof_unit_6383.cif
_audit_creation_date              2012-12-10T20:20:43-0500
_audit_creation_method            fapswitch 2.2
_symmetry_space_group_name_H-M    P1
_symmetry_Int_Tables_number       1
_space_group_crystal_system       triclinic
_cell_length_a                    18.849152
_cell_length_b                    18.623534
_cell_length_c                    10.690213
_cell_angle_alpha                 90.613383
_cell_angle_beta                  95.09065
_cell_angle_gamma                 90.799745
_cell_volume                      3737.23403223

loop_
_atom_site_label
_atom_site_type_symbol
_atom_type_description
_atom_site_fract_x
_atom_site_fract_y
_atom_site_fract_z
_atom_type_partial_charge
C1    C     C_R   0.365376 0.499500 0.498893 0.885689
C2    C     C_R   0.634530 0.500481 0.495592 0.954165
C3    C     C_R   0.794406 0.550390 0.330720 0.462506
C4    C     C_R   0.171879 0.491288 0.546497 0.500126
C5    C     C_R   0.726577 0.551113 0.372590 -0.198710
C6    C     C_R   0.245740 0.491537 0.572032 -0.257010
C7    C     C_R   0.707202 0.501503 0.461656 -0.117534
C8    C     C_R   0.289255 0.498029 0.473917 -0.023804
C9    C     C_R   0.957712 0.566056 0.411553 -0.049992
C10   C     C_R   0.031488 0.565307 0.423034 -0.083383
C11   C     C_R   0.066631 0.503471 0.389125 0.124823
C12   C     C_R   0.919154 0.505453 0.363888 0.150134
C13   C     C_R   0.028569 0.444705 0.333323 -0.119361
C14   C     C_R   0.954577 0.445557 0.321198 -0.132910
C15   C     C_R   0.556373 0.730401 0.558503 0.477635
C16   C     C_R   0.444790 0.727038 0.434874 0.491435
C17   C     C_R   0.557707 0.806198 0.550420 -0.281011
C18   C     C_R   0.445716 0.802727 0.431180 -0.294104
C19   C     C_R   0.502236 0.843375 0.487285 -0.055726
C20   C     C_R   0.439815 0.963188 0.489627 -0.169974
C21   C     C_R   0.565554 0.963154 0.461049 -0.165243
C22   C     C_R   0.500226 0.499159 0.259059 0.896370
C23   C     C_R   0.493022 0.500120 0.738297 0.940947
C24   C     C_R   0.440026 0.038533 0.484174 -0.165783
C25   C     C_R   0.565620 0.038641 0.454983 -0.183594
C26   C     C_R   0.502978 0.077231 0.467963 0.157532
C27   C     C_R   0.502708 0.924167 0.479433 0.169943
C28   C     C_R   0.538519 0.193746 0.583909 -0.013891
C29   C     C_R   0.467951 0.199599 0.385081 -0.019665
C30   C     C_R   0.543487 0.270701 0.585918 0.448155
C31   C     C_R   0.455578 0.273125 0.410479 0.440353
C32   C     C_R   0.504335 0.157993 0.477982 -0.034633
C33   C     C_R   0.475049 0.560891 0.062689 0.155225
C34   C     C_R   0.471448 0.562668 0.934688 0.059801
C35   C     C_R   0.489504 0.496511 0.124452 -0.165578
C36   C     C_R   0.474137 0.499266 0.865387 -0.184529
C37   C     C_R   0.483840 0.430528 0.054821 0.185974
C38   C     C_R   0.463542 0.433465 0.925817 0.159737
C39   C     C_3   0.511700 0.632261 0.934170 -0.392894
C40   C     C_3   0.514427 0.631260 0.076084 -0.427466
C41   C     C_R   0.754846 0.449196 0.506589 -0.132277
C42   C     C_R   0.260300 0.502659 0.349536 -0.018965
C43   C     C_R   0.823117 0.449004 0.467969 -0.191111
C44   C     C_R   0.187129 0.503034 0.322871 -0.225986
C45   C     C_R   0.843716 0.500116 0.382156 -0.068590
C46   C     C_R   0.142816 0.498537 0.420586 -0.068127
H1    H     H_    0.602507 0.836798 0.594611 0.217679
H2    H     H_    0.402152 0.830778 0.381620 0.222317
H3    H     H_    0.390552 0.935543 0.505351 0.157439
H4    H     H_    0.614769 0.935261 0.451016 0.159636
H5    H     H_    0.391296 0.066919 0.496284 0.169094
H6    H     H_    0.614993 0.067204 0.443355 0.165245
H7    H     H_    0.565381 0.626588 0.901489 0.267201
H8    H     H_    0.482115 0.674022 0.115645 0.245806
H9    H     H_    0.478992 0.676338 0.891363 0.219184
H10   H     H_    0.569317 0.626316 0.122588 0.220078
H11   H     H_    0.739768 0.409683 0.573283 0.224062
H12   H     H_    0.294402 0.506470 0.273389 0.182567
H13   H     H_    0.860870 0.410486 0.508494 0.192619
H14   H     H_    0.164937 0.507980 0.226350 0.179764
H15   H     H_    0.688128 0.589401 0.333580 0.201570
H16   H     H_    0.269534 0.487154 0.667642 0.179475
H17   H     H_    0.930792 0.611799 0.447746 0.178152
H18   H     H_    0.061118 0.611080 0.464997 0.172465
H19   H     H_    0.055969 0.396991 0.306289 0.156953
H20   H     H_    0.924945 0.398275 0.285594 0.153449
N1    N     N_R   0.500000 0.689440 0.500000 -0.219976
N2    N     N_R   0.500000 0.310560 0.500000 -0.233978
O1    O     O_R   0.398180 0.560840 0.499970 -0.552198
O2    O     O_R   0.601820 0.560840 0.500030 -0.554285
O3    O     O_R   0.398180 0.439210 0.499910 -0.547561
O4    O     O_R   0.601820 0.439210 0.500090 -0.585801
O5    O     O_R   0.499990 0.560820 0.316770 -0.595048
O6    O     O_R   0.500010 0.560820 0.683230 -0.593103
O7    O     O_R   0.499990 0.439200 0.316710 -0.606063
O8    O     O_R   0.500010 0.439200 0.683290 -0.573806
Zn1   Zn    Zn3+2 0.500000 0.581210 0.500000 1.079385
Zn2   Zn    Zn3+2 0.500000 0.418790 0.500000 1.064213
C47   C     C_3   0.509744 0.359559 0.108982 -0.781811
H21   H     H_    0.561592 0.367360 0.165712 0.232475
H22   H     H_    0.470068 0.335355 0.166176 0.272130
H23   H     H_    0.519873 0.319761 0.035084 0.253589
C48   C     C_3   0.430360 0.368191 0.856420 -0.751300
H24   H     H_    0.392484 0.384734 0.776711 0.238645
H25   H     H_    0.471805 0.333794 0.820967 0.284322
H26   H     H_    0.399008 0.335961 0.919520 0.241540
S1    S     S_3+6 0.634266 0.695052 0.639773 0.037178
O9    O     O_2   0.620830 0.627472 0.708800 -0.297750
O10   O     O_2   0.687839 0.681335 0.546593 -0.287634
O11   O     O_3   0.669448 0.756201 0.745518 -0.570555
H27   H     H_    0.714619 0.735089 0.781424 0.396630
S2    S     S_3+6 0.366655 0.687951 0.354148 0.022462
O12   O     O_2   0.381478 0.622076 0.279965 -0.321396
O13   O     O_2   0.314389 0.670485 0.448136 -0.297831
O14   O     O_3   0.328211 0.747220 0.252429 -0.572864
H28   H     H_    0.282948 0.723776 0.218486 0.394994
C49   C     C_3   0.568683 0.150178 0.695542 -0.696308
H29   H     H_    0.542826 0.166538 0.780287 0.262664
H30   H     H_    0.558018 0.091756 0.686467 0.215146
H31   H     H_    0.627280 0.157258 0.711135 0.282069
C50   C     C_3   0.443848 0.165397 0.259435 -0.717067
H32   H     H_    0.430018 0.206359 0.187054 0.259659
H33   H     H_    0.488021 0.133987 0.225073 0.215306
H34   H     H_    0.397623 0.128789 0.268159 0.270980
S3    S     S_3+6 0.611790 0.308278 0.698367 0.013388
O15   O     O_2   0.681710 0.279384 0.664232 -0.330251
O16   O     O_2   0.619527 0.387985 0.708313 -0.261803
O17   O     O_3   0.598635 0.279754 0.843363 -0.616594
H35   H     H_    0.644008 0.290216 0.894785 0.393503
S4    S     S_3+6 0.368520 0.304743 0.360938 0.023081
O18   O     O_2   0.330509 0.318994 0.476292 -0.286750
O19   O     O_2   0.371564 0.371999 0.285402 -0.329038
O20   O     O_3   0.318949 0.243526 0.274053 -0.566144
H36   H     H_    0.271906 0.266060 0.256016 0.392226
S5    S     S_3+6 0.814443 0.611532 0.212735 0.032856
O21   O     O_2   0.844695 0.679650 0.273904 -0.278350
O22   O     O_2   0.867653 0.579922 0.131831 -0.272335
O23   O     O_3   0.739459 0.630488 0.122562 -0.563400
H37   H     H_    0.754432 0.665423 0.060444 0.399521
S6    S     S_3+6 0.118075 0.481507 0.673076 0.032733
O24   O     O_2   0.090225 0.553757 0.706719 -0.290117
O25   O     O_2   0.056432 0.431330 0.636138 -0.286857
O26   O     O_3   0.166410 0.448490 0.798777 -0.548678
H38   H     H_    0.133757 0.448044 0.866451 0.392505

loop_
_geom_bond_atom_site_label_1
_geom_bond_atom_site_label_2
_ccdc_geom_bond_type
C28   C49   S    
S1    O9    D    
C26   C32   S    
C50   H32   S    
C38   C48   S    
C1    C8    S    
O1    Zn1   S    
O14   H28   S    
N1    Zn1   S    
C23   O8    A    
C42   H12   S    
C49   H29   S    
O26   H38   S    
C4    C46   A    
C22   C35   S    
C37   C47   S    
C1    O3    A    
C35   C37   A    
C37   C38   A    
C8    C42   A    
C29   C32   A    
S5    O21   D    
O17   H35   S    
C18   C19   A    
S4    O18   D    
O4    Zn2   S    
C2    C7    S    
C33   C35   A    
O23   H37   S    
C39   H9    S    
C20   C24   A    
C44   C46   A    
S5    O22   D    
O6    Zn1   S    
C19   C27   S    
C9    C10   A    
S6    O26   S    
C43   H13   S    
C24   H5    S    
C21   C27   A    
C50   H33   S    
C13   C14   A    
O2    Zn1   S    
C41   C43   A    
C42   C44   A    
C22   O7    A    
C2    O4    A    
O7    Zn2   S    
C21   H4    S    
C49   H30   S    
S6    O25   D    
N2    Zn2   S    
C31   N2    A    
S3    O17   S    
C33   C40   S    
C29   C50   S    
C34   C39   S    
C28   C32   A    
C4    C6    A    
C39   C40   S    
C5    C7    A    
C13   H19   S    
C40   H10   S    
C25   C26   A    
C3    C45   A    
S2    O14   S    
C1    O1    A    
C20   H3    S    
S3    O16   D    
C48   H24   S    
S5    O23   S    
C15   N1    A    
S2    O13   D    
C33   C34   A    
C14   H20   S    
C5    H15   S    
C16   N1    A    
C43   C45   A    
S4    O20   S    
C48   H25   S    
C12   C14   A    
C16   S2    S    
C50   H34   S    
C40   H8    S    
S1    O10   D    
C30   S3    S    
C23   O6    A    
C49   H31   S    
S6    O24   D    
C15   S1    S    
O20   H36   S    
C15   C17   A    
C21   C25   A    
C9    H17   S    
C10   H18   S    
C17   H1    S    
O8    Zn2   S    
C12   C45   S    
C3    C5    A    
C18   H2    S    
C47   H23   S    
C6    C8    A    
C20   C27   A    
S3    O15   D    
C47   H22   S    
C6    H16   S    
C28   C30   A    
C25   H6    S    
C41   H11   S    
C29   C31   A    
C3    S5    S    
C11   C13   A    
C24   C26   A    
O11   H27   S    
C39   H7    S    
C44   H14   S    
C36   C38   A    
S2    O12   D    
C17   C19   A    
C31   S4    S    
C34   C36   A    
C7    C41   A    
C9    C12   A    
S4    O19   D    
C10   C11   A    
C47   H21   S    
C48   H26   S    
C16   C18   A    
C23   C36   S    
S1    O11   S    
O5    Zn1   S    
C4    S6    S    
C11   C46   S    
C22   O5    A    
C2    O2    A    
O3    Zn2   S    
C30   N2    A    
