data_mof_unit_38456.cif
_audit_creation_date              2012-12-11T15:53:53-0500
_audit_creation_method            fapswitch 2.2
_symmetry_space_group_name_H-M    P1
_symmetry_Int_Tables_number       1
_space_group_crystal_system       triclinic
_cell_length_a                    10.69239
_cell_length_b                    10.681407
_cell_length_c                    17.036329
_cell_angle_alpha                 81.07451
_cell_angle_beta                  99.234933
_cell_angle_gamma                 118.513685
_cell_volume                      1680.6123559

loop_
_atom_site_label
_atom_site_type_symbol
_atom_type_description
_atom_site_fract_x
_atom_site_fract_y
_atom_site_fract_z
_atom_type_partial_charge
C1    C     C_R   0.361549 0.230061 0.627582 0.546704
C2    C     C_R   0.513900 0.726717 0.733089 0.059047
C3    C     C_R   0.490936 0.736941 0.809844 -0.141969
C4    C     C_3   0.100319 0.478147 0.774846 -0.251945
C5    C     C_3   0.126075 0.459928 0.693270 -0.253866
C6    C     C_R   0.402727 0.622385 0.685945 0.041549
C7    C     C_1   0.825725 0.657757 0.705536 -0.033612
C8    C     C_1   0.853640 0.684554 0.773533 -0.052911
C9    C     C_1   0.345448 0.188248 0.709869 -0.040888
C10   C     C_1   0.320875 0.160028 0.778252 -0.038978
C11   C     C_1   0.335914 0.663509 0.277711 -0.055873
C12   C     C_R   0.414114 0.621166 0.601595 0.589941
C13   C     C_1   0.323721 0.673543 0.206939 -0.067690
C14   C     C_R   0.843570 0.670753 0.162322 0.004031
C15   C     C_R   0.873795 0.574851 0.217145 0.007959
C16   C     C_R   0.880860 0.575361 0.297538 -0.013660
C17   C     C_R   0.824116 0.773090 0.274080 -0.151010
C18   C     C_R   0.826080 0.775915 0.191958 -0.158310
C19   C     C_3   0.831864 0.419111 0.219794 0.039739
C20   C     C_3   0.861856 0.422835 0.309748 0.031699
C21   C     C_R   0.839170 0.664119 0.327153 0.010080
C22   C     C_R   0.259171 0.050041 0.180085 0.005892
C23   C     C_R   0.778299 0.619836 0.626462 0.546468
C24   C     C_R   0.156347 0.067325 0.211309 0.023677
C25   C     C_R   0.178204 0.105756 0.287453 0.026283
C26   C     C_R   0.393057 0.080678 0.311942 -0.168817
C27   C     C_R   0.370722 0.041552 0.233671 -0.159232
C28   C     C_3   0.084682 0.157759 0.179566 -0.257945
C29   C     C_3   0.106050 0.198532 0.263404 -0.247475
C30   C     C_R   0.305671 0.130580 0.335521 0.006269
C31   C     C_R   0.892901 0.702013 0.855664 0.549149
C32   C     C_R   0.316115 0.705584 0.898771 0.550326
C33   C     C_R   0.284280 0.114157 0.857741 0.561593
C34   C     C_R   0.348794 0.221449 0.401090 0.542433
C35   C     C_R   0.885714 0.690475 0.083401 0.542953
C36   C     C_R   0.312899 0.701151 0.123822 0.538891
C37   C     C_R   0.245795 0.037614 0.094645 0.570948
C38   C     C_R   0.365481 0.653831 0.360777 0.558717
C39   C     C_R   0.774851 0.623017 0.401096 0.553164
C40   C     C_R   0.355683 0.652130 0.838102 -0.004937
C41   C     C_R   0.257356 0.534567 0.797093 0.005630
C42   C     C_R   0.281492 0.518766 0.722691 -0.010113
Cr1   Cr    Cr6+3 0.608440 0.389080 0.519680 0.994243
Cr2   Cr    Cr6+3 0.288640 0.400090 0.490760 0.995519
Cr3   Cr    Cr6+3 0.602940 0.710800 0.489510 1.020263
Cr4   Cr    Cr6+3 0.052530 0.947560 0.964210 1.003138
Cr5   Cr    Cr6+3 0.059970 0.626800 0.992920 0.992880
Cr6   Cr    Cr6+3 0.373320 0.938440 0.995370 1.005195
H1    H     H_    0.716655 0.354175 0.198788 0.148003
H2    H     H_    0.963966 0.419964 0.333921 0.152638
H3    H     H_    0.483527 0.081993 0.350830 0.145179
H4    H     H_    0.446229 0.015729 0.213769 0.150520
H5    H     H_    0.970968 0.092987 0.157951 0.128489
H6    H     H_    0.148050 0.250096 0.137790 0.157381
H7    H     H_    0.179347 0.314333 0.268479 0.158802
H8    H     H_    0.004090 0.155761 0.290796 0.149520
H9    H     H_    0.573495 0.824399 0.842344 0.142148
H10   H     H_    0.063987 0.560328 0.773067 0.157432
H11   H     H_    0.037108 0.374829 0.809412 0.147914
H12   H     H_    0.077886 0.346039 0.680895 0.153744
H13   H     H_    0.103557 0.531025 0.644593 0.153090
H14   H     H_    0.798155 0.848120 0.294688 0.141349
H15   H     H_    0.810241 0.857060 0.151680 0.125693
O1    O     O_R   0.754020 0.497590 0.609930 -0.518739
O2    O     O_R   0.295080 0.533620 0.397890 -0.506993
O3    O     O_R   0.485280 0.746620 0.388440 -0.512137
O4    O     O_R   0.720550 0.696220 0.420010 -0.509026
O5    O     O_3   0.500010 0.499990 0.499980 -0.271414
O6    O     O_R   0.163320 0.092900 0.874450 -0.507234
O7    O     O_R   0.934650 0.822080 0.882840 -0.501076
O8    O     O_R   0.915520 0.604140 0.893670 -0.517800
O9    O     O_R   0.191760 0.638110 0.923230 -0.497119
O10   O     O_R   0.406180 0.826930 0.920660 -0.522741
O11   O     O_R   0.358620 0.062870 0.901950 -0.491366
O12   O     O_R   0.481420 0.271390 0.600630 -0.495085
O13   O     O_R   0.163910 0.085460 0.050210 -0.521574
O14   O     O_R   0.935200 0.815170 0.045770 -0.519447
O15   O     O_R   0.916120 0.596690 0.069430 -0.511859
O16   O     O_R   0.192310 0.631200 0.086170 -0.514876
O17   O     O_R   0.406770 0.819480 0.096420 -0.524427
O18   O     O_R   0.359170 0.055960 0.064880 -0.508397
O19   O     O_3   0.161940 0.837600 0.984160 -0.268176
O20   O     O_R   0.263810 0.254550 0.589590 -0.522267
O21   O     O_R   0.300820 0.531200 0.560890 -0.516670
O22   O     O_R   0.491480 0.744020 0.564270 -0.481542
O23   O     O_R   0.726290 0.693800 0.583010 -0.492323
O24   O     O_R   0.747830 0.500190 0.434090 -0.512203
O25   O     O_R   0.475680 0.273800 0.437630 -0.513069
O26   O     O_R   0.257620 0.257160 0.413750 -0.518145
N1    N     N_3   0.641616 0.835048 0.700055 -0.588070
H16   H     H_    0.728846 0.850906 0.742328 0.225404
H17   H     H_    0.634921 0.930830 0.691451 0.233219
N2    N     N_2   0.739309 0.314033 0.348372 -0.518087
H18   H     H_    0.647648 0.325358 0.339510 0.284933
C43   C     C_3   0.769295 0.240463 0.422035 -0.248923
H19   H     H_    0.669262 0.168562 0.450150 0.143122
H20   H     H_    0.844407 0.318361 0.464936 0.157743
H21   H     H_    0.817883 0.175146 0.409268 0.127702
N3    N     N_2   0.928278 0.386769 0.186367 -0.517607
H22   H     H_    0.032945 0.464600 0.185733 0.279785
C44   C     C_3   0.866468 0.299419 0.119627 -0.261235
H23   H     H_    0.952295 0.308478 0.086702 0.131211
H24   H     H_    0.795823 0.333401 0.077077 0.168268
H25   H     H_    0.801544 0.186105 0.142034 0.131191

loop_
_geom_bond_atom_site_label_1
_geom_bond_atom_site_label_2
_ccdc_geom_bond_type
C20   N2    S    
C16   C21   A    
C41   C42   A    
C14   C18   A    
C43   H19   S    
Cr5   O16   S    
C5    C42   S    
Cr2   O20   S    
Cr4   O13   S    
C43   H21   S    
C7    C8    T    
C32   O9    A    
C15   C19   S    
C26   C27   A    
N2    H18   S    
C12   O22   A    
Cr1   O25   S    
C28   C29   S    
C6    C12   S    
C18   H15   S    
C4    C41   S    
C15   C16   A    
Cr6   O18   S    
C12   O21   A    
Cr5   O19   S    
C2    N1    S    
Cr4   O6    S    
C20   H2    S    
Cr4   O19   S    
C31   O7    A    
C19   C20   S    
Cr1   O5    S    
C23   O23   A    
Cr3   O4    S    
C39   O24   A    
C9    C10   T    
C33   O6    A    
C31   O8    A    
C44   H24   S    
Cr1   O12   S    
C37   O18   A    
Cr2   O2    S    
C2    C6    A    
Cr1   O1    S    
C25   C29   S    
C30   C34   S    
C1    O12   A    
C44   H23   S    
Cr6   O11   S    
C1    C9    S    
C24   C25   A    
C13   C36   S    
C36   O17   A    
C32   O10   A    
C28   H6    S    
C29   H7    S    
C22   C37   S    
C35   O14   A    
C17   C21   A    
C11   C38   S    
Cr3   O22   S    
C17   H14   S    
C19   H1    S    
N1    H17   S    
N3    H22   S    
C21   C39   S    
C38   O2    A    
C16   C20   S    
Cr3   O5    S    
C17   C18   A    
C5    H13   S    
C34   O25   A    
Cr5   O8    S    
C3    H9    S    
C23   O1    A    
N3    C44   S    
C37   O13   A    
C3    C40   A    
C26   C30   A    
C44   H25   S    
C22   C27   A    
C22   C24   A    
Cr2   O5    S    
C14   C35   S    
C27   H4    S    
C25   C30   A    
C38   O3    A    
C40   C41   A    
C19   N3    S    
C5    H12   S    
C8    C31   S    
C39   O4    A    
Cr6   O10   S    
C24   C28   S    
C4    C5    S    
Cr2   O21   S    
C36   O16   A    
Cr4   O14   S    
C28   H5    S    
C43   H20   S    
C29   H8    S    
C1    O20   A    
C35   O15   A    
Cr1   O24   S    
Cr6   O17   S    
C2    C3    A    
C34   O26   A    
C26   H3    S    
C11   C13   T    
N1    H16   S    
C7    C23   S    
C4    H11   S    
Cr6   O19   S    
Cr3   O23   S    
C10   C33   S    
C32   C40   S    
Cr5   O9    S    
Cr4   O7    S    
C33   O11   A    
N2    C43   S    
C6    C42   A    
C4    H10   S    
Cr3   O3    S    
C14   C15   A    
Cr5   O15   S    
Cr2   O26   S    
