data_mof_unit_14426.cif
_audit_creation_date              2012-12-11T15:47:11-0500
_audit_creation_method            fapswitch 2.2
_symmetry_space_group_name_H-M    P1
_symmetry_Int_Tables_number       1
_space_group_crystal_system       triclinic
_cell_length_a                    20.497743
_cell_length_b                    7.34259
_cell_length_c                    13.216892
_cell_angle_alpha                 89.710542
_cell_angle_beta                  104.168895
_cell_angle_gamma                 90.056438
_cell_volume                      1928.68822806

loop_
_atom_site_label
_atom_site_type_symbol
_atom_type_description
_atom_site_fract_x
_atom_site_fract_y
_atom_site_fract_z
_atom_type_partial_charge
O1    O     O_R   0.449560 0.506810 0.599700 -0.538809
O2    O     O_R   0.550440 0.006810 0.400300 -0.538026
O3    O     O_R   0.587960 0.180060 0.595760 -0.541052
O4    O     O_R   0.412040 0.680060 0.404240 -0.539916
C1    C     C_R   0.614226 0.343924 0.618526 0.701620
C2    C     C_R   0.385872 0.844146 0.380370 0.698723
O5    O     O_R   0.452380 0.177430 0.611700 -0.536830
O6    O     O_R   0.547620 0.677430 0.388300 -0.537955
O7    O     O_R   0.413900 0.001890 0.416350 -0.533698
O8    O     O_R   0.586100 0.501890 0.583650 -0.538988
C3    C     C_R   0.434958 0.344708 0.635585 0.672802
C4    C     C_R   0.566958 0.846145 0.366695 0.679698
O9    O     O_3   0.487530 0.337490 0.435890 -0.380021
O10   O     O_3   0.512470 0.837490 0.564110 -0.381207
V1    V     V_3+5 0.502310 0.064660 0.511890 1.394467
V2    V     V_3+5 0.497690 0.564660 0.488110 1.388423
C5    C     C_R   0.615656 0.983895 0.122674 -0.175467
C6    C     C_R   0.394602 0.369389 0.895641 -0.162039
H1    H     H_    0.534154 0.033835 0.189860 0.131441
H2    H     H_    0.484395 0.344157 0.842373 0.112007
H3    H     H_    0.684843 0.979279 0.985334 0.131496
H4    H     H_    0.321737 0.386168 0.026124 0.114855
H5    H     H_    0.591500 0.052939 0.050522 0.112578
H6    H     H_    0.422450 0.378390 0.976498 0.110982
C7    C     C_R   0.607496 0.863654 0.289332 -0.032187
C8    C     C_R   0.396307 0.351119 0.714942 -0.017692
C9    C     C_R   0.928472 0.836049 0.315644 -0.176114
C10   C     C_R   0.073445 0.351928 0.687135 -0.171455
C11   C     C_R   0.894566 0.824098 0.395097 0.154735
C12   C     C_R   0.106914 0.344240 0.607429 0.150139
C13   C     C_R   0.824233 0.820642 0.367802 -0.210919
C14   C     C_R   0.177150 0.346771 0.633970 -0.206839
C15   C     C_R   0.786624 0.838054 0.263035 0.036190
C16   C     C_R   0.215640 0.355758 0.738940 0.039304
C17   C     C_R   0.821437 0.859766 0.181479 0.026700
C18   C     C_R   0.181088 0.360469 0.821706 0.023509
C19   C     C_R   0.715141 0.852038 0.239187 0.088698
C20   C     C_R   0.287691 0.359006 0.762984 0.078127
C21   C     C_R   0.681723 0.921568 0.140540 0.110913
C22   C     C_R   0.323993 0.368644 0.868461 0.121110
C23   C     C_R   0.714201 0.933389 0.060536 -0.256004
C24   C     C_R   0.290760 0.374565 0.947763 -0.242089
C25   C     C_R   0.782431 0.890995 0.075886 0.032332
C26   C     C_R   0.220472 0.365883 0.928834 0.022853
C27   C     C_R   0.675412 0.809885 0.310958 -0.221585
C28   C     C_R   0.325759 0.354050 0.686197 -0.209693
C29   C     C_R   0.581133 0.965541 0.199645 -0.167121
C30   C     C_R   0.430256 0.354035 0.819617 -0.185055
C31   C     C_R   0.893506 0.855140 0.210945 -0.102016
C32   C     C_R   0.108704 0.360866 0.791981 -0.101404
H7    H     H_    0.696293 0.741034 0.384132 0.102143
H8    H     H_    0.302969 0.351030 0.603726 0.093608
H9    H     H_    0.982908 0.834183 0.334255 0.090335
H10   H     H_    0.018997 0.351077 0.668704 0.091407
H11   H     H_    0.799648 0.815893 0.431279 0.108938
H12   H     H_    0.200236 0.340954 0.569249 0.107560
C33   C     C_R   0.195643 0.841762 0.289714 -0.248741
C34   C     C_R   0.803307 0.315092 0.715294 -0.237599
H13   H     H_    0.153714 0.831965 0.325931 0.110882
H14   H     H_    0.845332 0.284337 0.681957 0.112887
C35   C     C_R   0.261279 0.843013 0.352974 -0.168727
C36   C     C_R   0.738212 0.313120 0.650765 -0.183487
H15   H     H_    0.268729 0.834360 0.436881 0.116923
H16   H     H_    0.731288 0.280859 0.568913 0.118552
C37   C     C_R   0.316949 0.849819 0.309061 -0.074389
C38   C     C_R   0.682358 0.350237 0.690678 -0.074146
C39   C     C_R   0.305476 0.856585 0.198426 0.008655
C40   C     C_R   0.692185 0.388779 0.798552 0.023271
C41   C     C_R   0.238698 0.875860 0.134792 0.277006
C42   C     C_R   0.759102 0.401712 0.863405 0.268782
C43   C     C_R   0.183771 0.858713 0.181062 -0.068111
C44   C     C_R   0.814756 0.359398 0.821130 -0.075437
O11   O     O_R   0.913920 0.203370 0.916260 -0.549117
O12   O     O_R   0.086080 0.703370 0.083740 -0.549455
O13   O     O_R   0.047620 0.535540 0.888290 -0.549831
O14   O     O_R   0.952380 0.035540 0.111710 -0.548505
C45   C     C_R   0.066038 0.368959 0.865732 0.664382
C46   C     C_R   0.935525 0.867786 0.136384 0.662172
O15   O     O_R   0.912040 0.532780 0.904220 -0.535223
O16   O     O_R   0.087960 0.032780 0.095780 -0.539246
O17   O     O_R   0.949550 0.708160 0.099720 -0.532671
O18   O     O_R   0.050450 0.208160 0.900280 -0.532104
C47   C     C_R   0.885268 0.365550 0.885008 0.713408
C48   C     C_R   0.113869 0.865096 0.116887 0.710909
O19   O     O_3   0.012480 0.375300 0.064060 -0.377455
O20   O     O_3   0.987520 0.875300 0.935940 -0.377167
V3    V     V_3+5 0.997690 0.648180 0.988110 1.358720
V4    V     V_3+5 0.002310 0.148180 0.011890 1.356401
C49   C     C_3   0.361793 0.818483 0.146216 -0.389680
C50   C     C_3   0.396885 0.992296 0.124155 -0.307184
C51   C     C_3   0.430293 0.962101 0.033952 -0.767305
H17   H     H_    0.462872 0.839162 0.048277 0.235384
H18   H     H_    0.391268 0.943934 0.959850 0.241917
H19   H     H_    0.461526 0.081465 0.025104 0.209734
H20   H     H_    0.362017 0.108292 0.103895 0.179321
H21   H     H_    0.433176 0.032827 0.196995 0.181353
H22   H     H_    0.399497 0.724824 0.194660 0.159036
H23   H     H_    0.341192 0.743006 0.072657 0.195450
C52   C     C_3   0.631584 0.399256 0.845714 -0.412641
C53   C     C_3   0.593987 0.582493 0.822715 -0.275921
C54   C     C_3   0.576156 0.660786 0.919362 -0.795618
H24   H     H_    0.540465 0.571056 0.946811 0.229410
H25   H     H_    0.622040 0.673831 0.983441 0.239473
H26   H     H_    0.552770 0.797174 0.900950 0.221234
H27   H     H_    0.623781 0.684413 0.791235 0.192142
H28   H     H_    0.546819 0.563175 0.761632 0.205864
H29   H     H_    0.596446 0.286330 0.814163 0.137810
H30   H     H_    0.646663 0.370226 0.930804 0.194439
N1    N     N_2   0.227592 0.942562 0.029788 -0.547680
H31   H     H_    0.265378 0.021889 0.015009 0.279801
C55   C     C_3   0.201556 0.821182 0.944079 -0.556397
H32   H     H_    0.239526 0.716695 0.940696 0.204197
H33   H     H_    0.191400 0.899746 0.869809 0.201788
H34   H     H_    0.153472 0.759871 0.949520 0.219391
N2    N     N_2   0.770426 0.478894 0.965400 -0.545264
H35   H     H_    0.733083 0.564538 0.976161 0.277264
C56   C     C_3   0.794083 0.361643 0.054720 -0.559039
H36   H     H_    0.753554 0.267517 0.062236 0.202781
H37   H     H_    0.807326 0.445900 0.126390 0.205571
H38   H     H_    0.839804 0.286559 0.049885 0.210704
C57   C     C_3   0.930253 0.822850 0.510602 -0.367677
C58   C     C_3   0.007833 0.830405 0.537246 -0.355963
C59   C     C_3   0.037120 0.840521 0.654989 -0.701027
H39   H     H_    0.020355 0.967313 0.686551 0.225783
H40   H     H_    0.020637 0.721368 0.694383 0.232538
H41   H     H_    0.092942 0.840696 0.672242 0.215357
H42   H     H_    0.028659 0.709479 0.506917 0.201318
H43   H     H_    0.025523 0.949913 0.500448 0.200458
H44   H     H_    0.911795 0.942008 0.547196 0.167571
H45   H     H_    0.914589 0.698704 0.546957 0.162745
C60   C     C_3   0.070762 0.334027 0.492247 -0.369269
C61   C     C_3   0.993182 0.330046 0.466380 -0.355522
C62   C     C_3   0.963382 0.322631 0.348685 -0.700602
H46   H     H_    0.977098 0.447167 0.310531 0.228258
H47   H     H_    0.982444 0.201388 0.315119 0.228270
H48   H     H_    0.907674 0.314000 0.332197 0.216588
H49   H     H_    0.975043 0.211389 0.503448 0.200682
H50   H     H_    0.973226 0.451854 0.496987 0.200728
H51   H     H_    0.086736 0.453014 0.451802 0.165806
H52   H     H_    0.088511 0.209716 0.459373 0.165809
C63   C     C_3   0.811932 0.889138 0.979906 -0.329413
C64   C     C_3   0.762688 0.903041 0.871354 -0.345581
C65   C     C_3   0.797707 0.871406 0.783372 -0.703983
H53   H     H_    0.761966 0.899311 0.707033 0.209316
H54   H     H_    0.842027 0.961640 0.791624 0.239391
H55   H     H_    0.814642 0.728428 0.783749 0.233953
H56   H     H_    0.722442 0.801008 0.863939 0.202269
H57   H     H_    0.739182 0.039463 0.860609 0.203066
H58   H     H_    0.845998 0.004943 0.985444 0.196528
H59   H     H_    0.840335 0.761569 0.980762 0.233928
C66   C     C_3   0.189771 0.363743 0.024015 -0.327909
C67   C     C_3   0.238041 0.373251 0.133835 -0.347546
C68   C     C_3   0.200499 0.367235 0.220372 -0.701562
H60   H     H_    0.236701 0.386938 0.297111 0.208408
H61   H     H_    0.161977 0.475794 0.209456 0.237162
H62   H     H_    0.175528 0.233909 0.221540 0.235541
H63   H     H_    0.273528 0.257178 0.146741 0.196555
H64   H     H_    0.267208 0.501581 0.141678 0.200760
H65   H     H_    0.156205 0.481501 0.018785 0.191114
H66   H     H_    0.160450 0.237499 0.021429 0.233764

loop_
_geom_bond_atom_site_label_1
_geom_bond_atom_site_label_2
_ccdc_geom_bond_type
C34   C36   A    
C65   H55   S    
C38   C40   A    
C54   H24   S    
C9    C11   A    
C55   H32   S    
O1    C3    A    
C57   H45   S    
O16   C48   A    
O2    C4    A    
C2    O7    A    
O15   V3    S    
C50   C51   S    
C63   H58   S    
C59   H39   S    
C21   C23   A    
O5    C3    A    
C52   H30   S    
C53   H27   S    
C5    H5    S    
C6    H6    S    
O14   C46   A    
C56   H37   S    
H1    C29   S    
C59   H40   S    
C27   H7    S    
C34   H14   S    
C65   H53   S    
C28   H8    S    
C39   C49   S    
C31   C46   S    
C35   H15   S    
C5    C21   A    
C58   H42   S    
C41   C43   A    
C6    C22   A    
C36   H16   S    
C60   H52   S    
C10   C32   A    
C2    C37   S    
C61   C62   S    
C37   C39   A    
C11   C57   S    
C17   C31   A    
C62   H48   S    
C66   C67   S    
C13   C15   A    
O12   V3    S    
C68   H61   S    
C17   C25   A    
C7    C29   A    
C8    C30   A    
C22   C24   A    
O6    V2    S    
C11   C13   A    
C23   C25   A    
C24   C26   A    
C41   N1    S    
C63   H59   S    
C19   C21   A    
C67   H64   S    
C26   C66   S    
C36   C38   A    
C9    C31   A    
C12   C14   A    
C64   H57   S    
C50   H20   S    
C60   H51   S    
O4    C2    A    
C56   H38   S    
C57   H44   S    
C51   H17   S    
C10   H10   S    
O20   V3    S    
C59   H41   S    
O5    V1    S    
C3    C8    S    
N2    C56   S    
C61   H49   S    
C15   C19   A    
C49   H22   S    
C39   C41   A    
C66   H65   S    
O4    V2    S    
O11   V4    S    
C51   H18   S    
C52   C53   S    
O10   V1    S    
O6    C4    A    
C55   H33   S    
O1    V2    S    
O17   V3    S    
C33   C43   A    
C68   H62   S    
C50   H21   S    
O2    V1    S    
O13   C45   A    
C57   C58   S    
H2    C30   S    
H3    C23   S    
C40   C42   A    
C54   H26   S    
C63   C64   S    
C62   H46   S    
C18   C26   A    
C33   H13   S    
C19   C27   A    
C60   C61   S    
C49   C50   S    
C32   C45   S    
C7    C27   A    
C18   C32   A    
C43   C48   S    
O19   V4    S    
O13   V3    S    
C65   H54   S    
O14   V4    S    
C67   H63   S    
C16   C20   A    
C64   H56   S    
C5    C29   A    
O12   C48   A    
C1    C38   S    
O3    C1    A    
C6    C30   A    
C9    H9    S    
C33   C35   A    
C42   N2    S    
C52   H29   S    
C49   H23   S    
C53   H28   S    
C4    C7    S    
C66   H66   S    
N1    C55   S    
O7    V1    S    
C40   C52   S    
C1    O8    A    
O16   V4    S    
O8    V2    S    
C56   H36   S    
C51   H19   S    
C20   C22   A    
C46   O17   A    
C34   C44   A    
N2    H35   S    
H4    C24   S    
C45   O18   A    
O18   V4    S    
C10   C12   A    
C53   C54   S    
C15   C17   A    
O11   C47   A    
C55   H34   S    
C16   C18   A    
C58   H43   S    
C20   C28   A    
C44   C47   S    
C25   C63   S    
C8    C28   A    
O15   C47   A    
C35   C37   A    
C67   C68   S    
C54   H25   S    
O9    V2    S    
C62   H47   S    
C64   C65   S    
O3    V1    S    
C42   C44   A    
C13   H11   S    
C58   C59   S    
N1    H31   S    
C61   H50   S    
C14   H12   S    
C12   C60   S    
C14   C16   A    
C68   H60   S    
