data_mof_unit_67803.cif
_audit_creation_date              2013-03-05T15:41:23-0500
_audit_creation_method            fapswitch 2.2
_symmetry_space_group_name_H-M    P1
_symmetry_Int_Tables_number       1
_space_group_crystal_system       triclinic
_cell_length_a                    8.491195
_cell_length_b                    9.259934
_cell_length_c                    11.411733
_cell_angle_alpha                 98.190347
_cell_angle_beta                  85.377296
_cell_angle_gamma                 88.836976
_cell_volume                      884.780195805

loop_
_atom_site_label
_atom_site_type_symbol
_atom_site_description
_atom_site_fract_x
_atom_site_fract_y
_atom_site_fract_z
_atom_type_partial_charge
O1    O     O_R   0.389250 0.738570 0.508370 -0.517700
O2    O     O_R   0.678390 0.711620 0.486510 -0.524558
C1    C     C_R   0.540028 0.791022 0.497525 0.929898
O3    O     O_R   0.355430 0.513500 0.696140 -0.536849
O4    O     O_R   0.644580 0.486550 0.674270 -0.518063
C2    C     C_R   0.498665 0.492626 0.739537 0.897882
Zn1   Zn    Zn3+2 0.306940 0.517990 0.514600 1.243926
Zn2   Zn    Zn3+2 0.693060 0.482010 0.485400 1.269073
O5    O     O_R   0.321610 0.288380 0.513490 -0.560448
O6    O     O_R   0.610750 0.261430 0.491630 -0.546092
O7    O     O_R   0.355420 0.513450 0.325730 -0.569434
O8    O     O_R   0.644570 0.486500 0.303860 -0.550083
C3    C     C_R   0.462374 0.211162 0.505062 0.778036
C4    C     C_R   0.499783 0.500525 0.259712 0.860644
C5    C     C_3   0.393547 0.639395 0.951026 0.007230
C6    C     C_3   0.431910 0.661979 0.090800 0.404898
H1    H     H_    0.287033 0.360878 0.890960 0.209947
H2    H     H_    0.278193 0.440783 0.093627 0.266787
C7    C     C_3   0.404858 0.361687 0.923042 -0.259153
C8    C     C_3   0.675996 0.470550 0.914118 0.048860
C9    C     C_3   0.495693 0.492913 0.877981 -0.191136
C10   C     C_3   0.501237 0.503561 0.121798 -0.224369
C11   C     C_3   0.387511 0.385575 0.063796 -0.229295
C12   C     C_3   0.676036 0.459881 0.055879 -0.369339
C13   C     C_2   0.561790 0.948593 0.484099 0.171841
C14   C     C_2   0.450232 0.058341 0.525111 0.099846
N1    N     N_2   0.950330 0.457950 0.465890 0.128839
N2    N     N_2   0.049670 0.542050 0.534110 0.115657
S1    S     S_3+6 0.175526 0.625703 0.934324 0.023310
O9    O     O_2   0.090400 0.770834 0.968735 -0.219375
O10   O     O_2   0.133716 0.579210 0.811637 -0.237186
O11   O     O_3   0.083460 0.505068 0.008703 -0.599932
H3    H     H_    0.049476 0.424614 0.950704 0.383516
C15   C     C_2   0.734352 0.307813 0.075762 0.743449
H4    H     H_    0.860099 0.281998 0.065030 0.175761
O12   O     O_2   0.653350 0.220805 0.120214 -0.546392
C16   C     C_2   0.459963 0.211167 0.864772 0.641138
H5    H     H_    0.439419 0.179834 0.773117 0.114964
O13   O     O_2   0.527992 0.124468 0.915601 -0.543987
C17   C     C_2   0.345342 0.252521 0.118845 0.609273
H6    H     H_    0.386463 0.237018 0.203779 0.097793
O14   O     O_2   0.247131 0.170298 0.076323 -0.512810
S2    S     S_3+6 0.741187 0.990501 0.403416 0.185502
O15   O     O_2   0.690739 0.075906 0.310193 -0.199497
O16   O     O_2   0.838513 0.080830 0.488466 -0.160600
O17   O     O_3   0.857693 0.850861 0.331638 -0.400684
H7    H     H_    0.889336 0.878217 0.252634 0.411308
S3    S     S_3+6 0.274704 0.028994 0.606754 0.063050
O18   O     O_2   0.177625 0.951274 0.516979 -0.165856
O19   O     O_2   0.310009 0.939305 0.699596 -0.254974
O20   O     O_3   0.173852 0.179228 0.675068 -0.499756
H8    H     H_    0.062234 0.153803 0.667843 0.454157
S4    S     S_3+6 0.018819 0.321357 0.356926 0.212326
O21   O     O_2   0.882369 0.266266 0.292017 -0.193551
O22   O     O_2   0.125678 0.383319 0.270644 -0.303921
O23   O     O_3   0.104853 0.180594 0.405946 -0.456458
H9    H     H_    0.193286 0.147505 0.345669 0.357228
S5    S     S_3+6 0.971702 0.705151 0.603981 0.246251
O24   O     O_2   0.956571 0.801146 0.513022 -0.155295
O25   O     O_2   0.812636 0.688515 0.659740 -0.253585
O26   O     O_3   0.079813 0.786026 0.707755 -0.402638
H10   H     H_    0.010224 0.865497 0.753047 0.400564
C18   C     C_2   0.418256 0.780169 0.899664 0.723456
H11   H     H_    0.376511 0.882658 0.950999 0.135624
O27   O     O_2   0.467574 0.781092 0.796823 -0.497745
S6    S     S_3+6 0.562324 0.811589 0.134886 0.011788
O28   O     O_2   0.619857 0.770810 0.244938 -0.318931
O29   O     O_2   0.699297 0.848095 0.054856 -0.299384
O30   O     O_3   0.464692 0.970632 0.175285 -0.476022
H12   H     H_    0.475156 0.012714 0.101171 0.410110
S7    S     S_3+6 0.259156 0.740489 0.192849 0.141622
O31   O     O_2   0.130003 0.639010 0.209986 -0.153991
O32   O     O_2   0.310263 0.791010 0.313557 -0.229564
O33   O     O_3   0.182654 0.891304 0.149744 -0.471077
H13   H     H_    0.135824 0.951470 0.223053 0.400109
S8    S     S_3+6 0.798548 0.318524 0.811916 -0.012026
O34   O     O_2   0.707265 0.234077 0.719366 -0.326314
O35   O     O_2   0.924897 0.388173 0.741281 -0.252508
O36   O     O_3   0.895443 0.191703 0.873201 -0.576547
H14   H     H_    0.836681 0.100600 0.857599 0.421709
C19   C     C_2   0.768076 0.600727 0.889819 0.546676
H15   H     H_    0.887540 0.598292 0.899555 0.179556
O37   O     O_2   0.715691 0.710155 0.860822 -0.494054
C20   C     C_2   0.802648 0.555777 0.115891 0.513400
H16   H     H_    0.836793 0.658549 0.093217 0.190473
O38   O     O_2   0.881595 0.515243 0.190040 -0.416297

loop_
_geom_bond_atom_site_label_1
_geom_bond_atom_site_label_2
_geom_bond_distance
_ccdc_geom_bond_type
S6    O29   1.494591 D    
C18   O27   1.215139 D    
S8    O36   1.683057 S    
C13   S2    1.794024 S    
C19   H15   1.029465 S    
S4    O21   1.485253 D    
Zn1   O7    2.155726 S    
C16   H5    1.074060 S    
C7    C9    1.577356 S    
S8    O35   1.501179 D    
S1    O11   1.666757 S    
O4    C2    1.389060 A    
O7    C4    1.379865 A    
S6    O30   1.662559 S    
S5    O25   1.466544 D    
C5    C6    1.638757 S    
O23   H9    0.989070 S    
C8    S8    1.924054 S    
C15   H4    1.082791 S    
O5    C3    1.369800 A    
C7    C16   1.504358 S    
S3    O20   1.676733 S    
C8    C12   1.634771 S    
C14   S3    1.740130 S    
S5    O26   1.660249 S    
S3    O19   1.481193 D    
S6    O28   1.478176 D    
C8    C19   1.496601 S    
O30   H12   0.978912 S    
C6    S7    1.864565 S    
O3    Zn1   2.150461 S    
C19   O37   1.197953 D    
C5    S1    1.881251 S    
S4    O22   1.469724 D    
C16   O13   1.217585 D    
O33   H13   0.986396 S    
H2    C11   1.057865 S    
C1    C13   1.502218 S    
S8    O34   1.499667 D    
O3    C2    1.369918 A    
S7    O32   1.491857 D    
S5    O24   1.471012 D    
C2    C9    1.577677 S    
C12   C15   1.536358 S    
Zn1   N2    2.181534 S    
O20   H8    0.988246 S    
O1    C1    1.381005 A    
C7    C11   1.584287 S    
S2    O15   1.496689 D    
S1    O9    1.499067 D    
S7    O33   1.680674 S    
Zn2   O8    2.150460 S    
C13   C14   1.379514 D    
C20   H16   1.061103 S    
S2    O16   1.500212 D    
C17   H6    1.083571 S    
O8    C4    1.376275 A    
C10   C12   1.625247 S    
C3    C14   1.469656 S    
C6    S6    1.830886 S    
S4    O23   1.667503 S    
Zn1   O5    2.125467 S    
O17   H7    0.988920 S    
S3    O18   1.482282 D    
C6    C10   1.664318 S    
O1    Zn1   2.181029 S    
O2    Zn2   2.125467 S    
C20   O38   1.215724 D    
C18   H11   1.078879 S    
O6    C3    1.356645 A    
O4    Zn2   2.155726 S    
N1    S4    1.699910 S    
N2    S5    1.698911 S    
O11   H3    0.987620 S    
C4    C10   1.577148 S    
O2    C1    1.360697 A    
C12   C20   1.548389 S    
S7    O31   1.477687 D    
S1    O10   1.478571 D    
C17   O14   1.223252 D    
H1    C7    1.092523 S    
C15   O12   1.209229 D    
O26   H10   0.991258 S    
S2    O17   1.684424 S    
O36   H14   0.990427 S    
C5    C9    1.673471 S    
C8    C9    1.634045 S    
Zn2   O6    2.181028 S    
N1    N2    1.372529 D    
Zn2   N1    2.181534 S    
C5    C18   1.515195 S    
C10   C11   1.582436 S    
C11   C17   1.497674 S    
