data_mof_unit_40742.cif
_audit_creation_date              2012-12-10T17:31:07-0500
_audit_creation_method            fapswitch 2.2
_symmetry_space_group_name_H-M    P1
_symmetry_Int_Tables_number       1
_space_group_crystal_system       triclinic
_cell_length_a                    12.113644
_cell_length_b                    12.841182
_cell_length_c                    15.228059
_cell_angle_alpha                 85.231031
_cell_angle_beta                  115.678796
_cell_angle_gamma                 94.554857
_cell_volume                      2124.95673465

loop_
_atom_site_label
_atom_site_type_symbol
_atom_type_description
_atom_site_fract_x
_atom_site_fract_y
_atom_site_fract_z
_atom_type_partial_charge
C1    C     C_R   0.477567 0.299777 0.500741 0.925949
C2    C     C_R   0.653803 0.958607 0.592028 -0.184251
C3    C     C_R   0.353525 0.145375 0.427160 -0.274337
C4    C     C_R   0.646354 0.854413 0.573462 -0.267487
C5    C     C_R   0.561852 0.127927 0.554183 0.390737
C6    C     C_R   0.438210 0.871994 0.446173 0.394541
C7    C     C_R   0.554616 0.021764 0.537169 0.017413
C8    C     C_R   0.445337 0.978077 0.463374 0.018788
C9    C     C_R   0.003890 0.597346 0.402918 0.330253
C10   C     C_R   0.996474 0.402998 0.597428 0.312692
C11   C     C_R   0.123902 0.584577 0.411197 0.388256
C12   C     C_R   0.522465 0.700202 0.499350 0.935641
C13   C     C_R   0.876034 0.415134 0.588615 0.378630
C14   C     C_R   0.161662 0.460493 0.545034 0.525848
C15   C     C_R   0.838694 0.539964 0.455379 0.503845
C16   C     C_R   0.577122 0.497477 0.681483 0.917871
C17   C     C_R   0.423096 0.505634 0.318590 0.937046
C18   C     C_R   0.040252 0.465994 0.536486 -0.214324
C19   C     C_R   0.960123 0.534457 0.463956 -0.188129
C20   C     C_R   0.626362 0.518536 0.785869 -0.265120
C21   C     C_R   0.372903 0.518375 0.211545 -0.177438
C22   C     C_R   0.772261 0.610532 0.928386 0.453273
C23   C     C_R   0.614522 0.651655 0.084799 0.438271
C24   C     C_R   0.204987 0.514705 0.047656 0.359268
C25   C     C_R   0.745986 0.562485 0.840493 0.322036
C26   C     C_R   0.246237 0.505390 0.150478 0.347933
C27   C     C_R   0.540102 0.515662 0.823563 -0.188892
C28   C     C_R   0.454363 0.549617 0.171126 -0.240084
C29   C     C_R   0.560007 0.571195 0.904179 0.023275
C30   C     C_R   0.413887 0.570412 0.070895 0.031738
C31   C     C_R   0.679224 0.613587 0.960413 -0.033111
C32   C     C_R   0.289283 0.547057 0.008507 0.004511
C33   C     C_R   0.465060 0.579151 0.933408 -0.016377
C34   C     C_R   0.338520 0.566977 0.868983 0.430993
C35   C     C_R   0.498333 0.601081 0.031060 -0.017243
C36   C     C_R   0.703244 0.658386 0.048064 -0.241560
C37   C     C_R   0.251866 0.552516 0.907538 -0.229795
C38   C     C_R   0.538726 0.811518 0.502409 -0.090928
C39   C     C_R   0.461331 0.188404 0.497918 -0.091714
C40   C     C_R   0.346046 0.041162 0.408658 -0.183940
H1    H     H_    0.792142 0.696075 0.089879 0.207315
H2    H     H_    0.833383 0.491171 0.786088 0.377510
H3    H     H_    0.941558 0.651626 0.951584 0.405544
H4    H     H_    0.049946 0.435882 0.017739 0.350341
H5    H     H_    0.718356 0.737426 0.193360 0.377802
H6    H     H_    0.209940 0.568848 0.735414 0.345259
H7    H     H_    0.262640 0.845895 0.382903 0.338823
H8    H     H_    0.737491 0.153651 0.617478 0.340355
H9    H     H_    0.721915 0.805740 0.618647 0.192288
H10   H     H_    0.277846 0.193972 0.382081 0.187358
H11   H     H_    0.263147 0.012068 0.349708 0.173744
H12   H     H_    0.155736 0.541183 0.858274 0.211368
H13   H     H_    0.736589 0.987634 0.651119 0.175320
H14   H     H_    0.699340 0.626265 0.403012 0.376612
H15   H     H_    0.300551 0.373747 0.597217 0.367411
H16   H     H_    0.904302 0.349226 0.715453 0.329867
H17   H     H_    0.094783 0.648552 0.283547 0.340351
H18   H     H_    0.982829 0.731116 0.329102 0.326051
H19   H     H_    0.018209 0.268854 0.670532 0.334760
H20   H     H_    0.551230 0.553342 0.218734 0.257113
H21   H     H_    0.454995 0.470575 0.787289 0.251257
H22   H     H_    0.085676 0.510699 0.148771 0.354320
N1    N     N_R   0.799120 0.480200 0.517090 -0.186991
N2    N     N_R   0.200880 0.519800 0.482910 -0.185464
O1    O     O_R   0.580150 0.341050 0.504560 -0.535869
O2    O     O_3   0.165657 0.635324 0.347230 -0.675513
O3    O     O_3   0.930236 0.671813 0.337662 -0.709607
O4    O     O_3   0.070559 0.329006 0.663122 -0.683633
O5    O     O_3   0.165787 0.481396 0.192260 -0.742718
O6    O     O_3   0.837162 0.561542 0.809516 -0.746292
O7    O     O_3   0.887211 0.654945 0.984406 -0.772335
O8    O     O_3   0.085397 0.488013 0.984275 -0.768039
O9    O     O_3   0.635747 0.701730 0.167990 -0.725500
O10   O     O_3   0.300573 0.577798 0.769108 -0.743629
O11   O     O_3   0.334985 0.825020 0.375448 -0.720190
O12   O     O_R   0.419850 0.658950 0.495440 -0.536326
O13   O     O_3   0.665192 0.174994 0.624710 -0.725717
O14   O     O_3   0.761066 0.606026 0.383145 -0.674169
O15   O     O_3   0.239697 0.394956 0.617634 -0.672559
O16   O     O_R   0.388090 0.353760 0.493600 -0.672269
O17   O     O_R   0.611910 0.646240 0.506400 -0.666516
O18   O     O_R   0.650890 0.490020 0.640860 -0.550061
O19   O     O_R   0.349110 0.509980 0.359140 -0.495234
O20   O     O_R   0.458830 0.502730 0.629890 -0.614339
O21   O     O_R   0.541170 0.497270 0.370110 -0.652764
O22   O     O_3   0.833729 0.363365 0.651815 -0.706596
Zn1   Zn    Zn3+2 0.628240 0.491510 0.507320 1.013642
Zn2   Zn    Zn3+2 0.371760 0.508490 0.492680 1.043841

loop_
_geom_bond_atom_site_label_1
_geom_bond_atom_site_label_2
_ccdc_geom_bond_type
C21   C26   A    
C27   C29   A    
C34   C37   A    
C14   C18   A    
C2    C7    A    
H2    O6    S    
H17   O2    S    
C24   C32   A    
C7    C8    A    
C15   C19   A    
C30   C35   A    
C17   O21   A    
C24   C26   A    
C15   O14   S    
C20   C25   A    
O18   Zn1   S    
C29   C33   A    
C16   O20   A    
H5    O9    S    
C18   C19   A    
C27   H21   S    
C9    C19   A    
C22   C25   A    
C13   O22   S    
C1    O1    A    
C6    C38   A    
O12   Zn2   S    
C11   O2    S    
O21   Zn1   S    
O19   Zn2   S    
C3    C39   A    
C36   H1    S    
C23   O9    S    
C3    H10   S    
O1    Zn1   S    
C28   H20   S    
C22   C31   A    
C6    O11   S    
C11   N2    A    
C5    C7    A    
C37   H12   S    
C6    C8    A    
C32   C37   A    
C2    H13   S    
C17   C21   S    
H22   O5    S    
C17   O19   A    
H8    O13   S    
C2    C4    A    
C9    O3    S    
H19   O4    S    
H15   O15   S    
H16   O22   S    
C13   N1    A    
C16   C20   S    
C14   N2    A    
C16   O18   A    
C33   C34   A    
C14   O15   S    
C9    C11   A    
O17   Zn1   S    
C34   O10   S    
C21   C28   A    
C4    C38   A    
C3    C40   A    
C23   C35   A    
C12   O12   A    
C5    O13   S    
C22   O7    S    
H6    O10   S    
C24   O8    S    
C26   O5    S    
H3    O7    S    
N1    Zn1   S    
O20   Zn2   S    
C10   C13   A    
C20   C27   A    
C10   O4    S    
C40   H11   S    
C4    H9    S    
C5    C39   A    
H7    O11   S    
O16   Zn2   S    
C30   C32   A    
C10   C18   A    
C28   C30   A    
C33   C35   A    
C12   O17   A    
H4    O8    S    
C12   C38   S    
C1    C39   S    
H18   O3    S    
C29   C31   A    
C23   C36   A    
C1    O16   A    
C15   N1    A    
C31   C36   A    
C25   O6    S    
C8    C40   A    
N2    Zn2   S    
H14   O14   S    
