data_mof_unit_15405.cif
_audit_creation_date              2012-12-10T17:43:41-0500
_audit_creation_method            fapswitch 2.2
_symmetry_space_group_name_H-M    P1
_symmetry_Int_Tables_number       1
_space_group_crystal_system       triclinic
_cell_length_a                    15.00528
_cell_length_b                    10.721128
_cell_length_c                    9.881452
_cell_angle_alpha                 89.018523
_cell_angle_beta                  90.135037
_cell_angle_gamma                 91.974541
_cell_volume                      1588.48458335

loop_
_atom_site_label
_atom_site_type_symbol
_atom_type_description
_atom_site_fract_x
_atom_site_fract_y
_atom_site_fract_z
_atom_type_partial_charge
C1    C     C_R   0.508873 0.260519 0.502123 0.902229
C2    C     C_R   0.184980 0.492936 0.623309 -0.268076
C3    C     C_R   0.230635 0.495426 0.499922 -0.065854
C4    C     C_R   0.326619 0.498777 0.499937 0.858263
C5    C     C_R   0.184604 0.494347 0.376647 -0.263196
C6    C     C_R   0.507804 0.107128 0.762636 -0.113155
C7    C     C_R   0.469905 0.043591 0.873856 -0.101315
C8    C     C_R   0.422513 0.931630 0.855409 -0.140481
C9    C     C_R   0.421278 0.877172 0.728453 -0.110819
C10   C     C_R   0.467713 0.935258 0.618209 0.106874
C11   C     C_R   0.498789 0.058758 0.630188 0.040641
C12   C     C_R   0.907006 0.494274 0.375953 0.114254
C13   C     C_R   0.520109 0.127024 0.508873 -0.222008
C14   C     C_R   0.537271 0.063764 0.388477 0.385499
C15   C     C_R   0.522813 0.936921 0.385414 -0.249337
C16   C     C_R   0.493073 0.739380 0.499146 0.925097
C17   C     C_R   0.488150 0.872591 0.498442 -0.199166
C18   C     C_R   0.380537 0.338815 0.142605 -0.098018
C19   C     C_R   0.320732 0.261107 0.073240 -0.214186
C20   C     C_R   0.320610 0.261547 0.933178 -0.204616
C21   C     C_R   0.380650 0.339178 0.861765 -0.149207
C22   C     C_R   0.441160 0.420599 0.928692 0.070722
C23   C     C_R   0.953987 0.490776 0.747360 -0.194188
C24   C     C_R   0.441144 0.420575 0.073479 0.173157
C25   C     C_R   0.555908 0.576304 0.071053 -0.168289
C26   C     C_R   0.556020 0.576668 0.927974 0.415292
C27   C     C_R   0.673382 0.499821 0.500100 0.930095
C28   C     C_R   0.814910 0.496672 0.376927 -0.225683
C29   C     C_R   0.769294 0.497384 0.500241 -0.084775
C30   C     C_R   0.815255 0.494857 0.623544 -0.214163
C31   C     C_R   0.907384 0.492553 0.624450 0.108483
C32   C     C_R   0.953528 0.492621 0.500175 0.058374
C33   C     C_R   0.046568 0.490146 0.747303 -0.216822
C34   C     C_R   0.092787 0.491329 0.624329 0.119405
C35   C     C_R   0.046235 0.491943 0.500107 0.065964
C36   C     C_R   0.092394 0.492861 0.375806 0.118366
C37   C     C_R   0.045763 0.493325 0.252913 -0.216153
C38   C     C_R   0.953193 0.494104 0.252989 -0.196096
Cl1   Cl    Cl    0.630690 0.680233 0.843375 -0.591866
Cl2   Cl    Cl    0.584366 0.135853 0.241730 -0.625005
H1    H     H_    0.778969 0.498274 0.281570 0.175963
H2    H     H_    0.274747 0.199884 0.879371 0.158497
H3    H     H_    0.378592 0.331237 0.754625 0.209720
H4    H     H_    0.779568 0.494915 0.718868 0.192505
H5    H     H_    0.918914 0.490470 0.843157 0.152369
H6    H     H_    0.081980 0.489395 0.843061 0.144364
H7    H     H_    0.220971 0.492957 0.718670 0.166162
H8    H     H_    0.220320 0.495469 0.281269 0.164482
H9    H     H_    0.080847 0.493783 0.157105 0.144345
H10   H     H_    0.917799 0.495122 0.157231 0.151063
H11   H     H_    0.546969 0.190941 0.783633 0.180203
H12   H     H_    0.475853 0.082642 0.973891 0.193499
H13   H     H_    0.389576 0.884699 0.940319 0.139219
H14   H     H_    0.384616 0.789191 0.717810 0.143784
H15   H     H_    0.541122 0.888253 0.294845 0.204203
H16   H     H_    0.601330 0.638446 0.124937 0.179736
H17   H     H_    0.377236 0.331763 0.249960 0.198562
H18   H     H_    0.274657 0.199503 0.128682 0.154388
N1    N     N_R   0.499150 0.498800 0.142780 -0.140109
N2    N     N_R   0.499120 0.498720 0.857170 -0.160936
O1    O     O_R   0.500000 0.316780 0.614690 -0.669768
O2    O     O_R   0.499990 0.316750 0.385360 -0.580329
O3    O     O_R   0.367850 0.499980 0.614680 -0.657405
O4    O     O_R   0.367840 0.499960 0.385350 -0.652898
O5    O     O_R   0.500010 0.683250 0.614640 -0.569207
O6    O     O_R   0.500000 0.683220 0.385310 -0.630318
O7    O     O_R   0.632160 0.500040 0.614650 -0.580958
O8    O     O_R   0.632150 0.500020 0.385320 -0.614492
Zn1   Zn    Zn3+2 0.500010 0.500020 0.653130 0.973298
Zn2   Zn    Zn3+2 0.499990 0.499980 0.346870 0.969819

loop_
_geom_bond_atom_site_label_1
_geom_bond_atom_site_label_2
_ccdc_geom_bond_type
C8    H13   S    
C20   H2    S    
C5    C36   A    
C6    C7    A    
C23   H5    S    
O4    Zn2   S    
C2    H7    S    
C27   C29   S    
C29   C30   A    
C37   H9    S    
C9    C10   A    
C4    O4    A    
C18   H17   S    
C31   C32   A    
C25   H16   S    
C3    C5    A    
C1    O2    A    
C2    C34   A    
C33   C34   A    
C7    C8    A    
C21   H3    S    
C13   C14   A    
C12   C32   A    
O7    Zn1   S    
C12   C38   A    
C33   H6    S    
C11   C13   A    
C4    O3    A    
C30   H4    S    
O6    Zn2   S    
C16   O6    A    
N2    Zn1   S    
C12   C28   A    
C24   N1    A    
C38   H10   S    
N1    Zn2   S    
C28   C29   A    
C16   O5    A    
C37   C38   A    
C7    H12   S    
C2    C3    A    
C19   H18   S    
C22   N2    A    
C30   C31   A    
C6    H11   S    
C5    H8    S    
C22   C24   A    
C26   Cl1   S    
C23   C31   A    
C1    C13   S    
C10   C11   A    
C10   C17   A    
C14   Cl2   S    
C3    C4    S    
C32   C35   A    
O3    Zn1   S    
C28   H1    S    
C27   O7    A    
C20   C21   A    
O2    Zn2   S    
C18   C24   A    
O8    Zn2   S    
C34   C35   A    
O1    Zn1   S    
C6    C11   A    
C15   C17   A    
C18   C19   A    
C14   C15   A    
C36   C37   A    
C9    H14   S    
C25   N1    A    
C27   O8    A    
O5    Zn1   S    
C25   C26   A    
C21   C22   A    
C26   N2    A    
C19   C20   A    
C16   C17   S    
C15   H15   S    
C8    C9    A    
C23   C33   A    
C35   C36   A    
C1    O1    A    
