data_mof_unit_47030.cif
_audit_creation_date              2012-10-26T18:43:50-0400
_audit_creation_method            fapswitch 2.2
_symmetry_space_group_name_H-M    P1
_symmetry_Int_Tables_number       1
_space_group_crystal_system       triclinic
_cell_length_a                    9.538827
_cell_length_b                    10.859986
_cell_length_c                    17.36533
_cell_angle_alpha                 90.230075
_cell_angle_beta                  85.764281
_cell_angle_gamma                 90.030094
_cell_volume                      1793.97308021

loop_
_atom_site_label
_atom_site_type_symbol
_atom_type_description
_atom_site_fract_x
_atom_site_fract_y
_atom_site_fract_z
_atom_type_partial_charge
C1    C     C_R   0.500219 0.737314 0.499597 0.552268
C2    C     C_R   0.527737 0.512385 0.265900 0.016056
C3    C     C_R   0.378852 0.937944 0.505112 0.021855
C4    C     C_R   0.481447 0.498896 0.649869 0.545683
C5    C     C_R   0.502031 0.869883 0.497152 0.010593
C6    C     C_R   0.629903 0.935368 0.486537 -0.163069
C7    C     C_R   0.629830 0.064615 0.486403 -0.162652
C8    C     C_R   0.501880 0.130071 0.496890 0.009047
C9    C     C_R   0.378711 0.061906 0.504893 0.019861
C10   C     C_3   0.223893 0.070608 0.523105 -0.264949
C11   C     C_3   0.224168 0.928821 0.523354 -0.273977
C12   C     C_R   0.340898 0.507725 0.776380 -0.131258
C13   C     C_R   0.930595 0.403811 0.468204 0.158027
C14   C     C_R   0.920425 0.588023 0.538471 -0.016952
C15   C     C_R   0.069338 0.587921 0.538564 -0.017837
C16   C     C_R   0.500190 0.262679 0.499420 0.552444
C17   C     C_R   0.078035 0.404021 0.468003 0.158065
C18   C     C_3   0.094650 0.361882 0.386039 -0.276834
C19   C     C_3   0.935581 0.361082 0.386419 -0.280750
C20   C     C_R   0.518442 0.502604 0.350115 0.545390
C21   C     C_R   0.471373 0.494979 0.734187 0.015293
C22   C     C_R   0.593269 0.476978 0.773162 -0.132232
C23   C     C_R   0.412854 0.546613 0.148248 -0.108906
C24   C     C_R   0.585488 0.474050 0.853152 -0.108999
C25   C     C_R   0.455752 0.490913 0.895475 0.044130
C26   C     C_R   0.333257 0.505238 0.856716 -0.117037
C27   C     C_R   0.405978 0.537161 0.228031 -0.132213
C28   C     C_R   0.657343 0.500730 0.222779 -0.128959
C29   C     C_R   0.664193 0.510035 0.142690 -0.115344
C30   C     C_R   0.541621 0.530235 0.104994 0.043485
C31   C     C_2   0.445233 0.492493 0.980069 -0.134832
C32   C     C_2   0.550758 0.532747 0.020479 -0.135351
Cu1   Cu    Cu3+1 0.359330 0.500020 0.500000 0.936531
Cu2   Cu    Cu3+1 0.640670 0.499980 0.500000 0.935215
H1    H     H_    0.694849 0.464407 0.741940 0.127462
H2    H     H_    0.144253 0.432391 0.346736 0.147260
H3    H     H_    0.305295 0.550458 0.259943 0.117437
H4    H     H_    0.141963 0.268641 0.379880 0.120212
H5    H     H_    0.895349 0.431120 0.347364 0.145543
H6    H     H_    0.890677 0.267244 0.381009 0.118990
H7    H     H_    0.752985 0.483502 0.250582 0.111560
H8    H     H_    0.648779 0.564085 0.991271 0.114003
H9    H     H_    0.232152 0.516692 0.888675 0.097949
H10   H     H_    0.317551 0.567743 0.120812 0.100196
H11   H     H_    0.245225 0.520719 0.747474 0.123009
H12   H     H_    0.764633 0.498782 0.110009 0.097618
H13   H     H_    0.347275 0.461179 0.009398 0.114272
H14   H     H_    0.680952 0.457170 0.881409 0.100173
H15   H     H_    0.729607 0.887509 0.479072 0.131552
H16   H     H_    0.729505 0.112506 0.478868 0.130493
H17   H     H_    0.196584 0.111894 0.580947 0.141852
H18   H     H_    0.168704 0.110582 0.474978 0.131190
H19   H     H_    0.197189 0.888932 0.581413 0.127179
H20   H     H_    0.169474 0.886958 0.475316 0.138175
H21   H     H_    0.860676 0.660566 0.568432 0.114751
H22   H     H_    0.121093 0.660165 0.568745 0.110420
N1    N     N_R   0.852130 0.499070 0.499500 -0.231630
N2    N     N_R   0.148040 0.499110 0.499500 -0.231955
O1    O     O_R   0.381190 0.680360 0.500000 -0.506044
O2    O     O_R   0.618770 0.680320 0.499990 -0.514704
O3    O     O_R   0.367430 0.500040 0.613600 -0.508236
O4    O     O_R   0.605020 0.500000 0.613590 -0.507545
O5    O     O_R   0.381230 0.319680 0.500010 -0.498104
O6    O     O_R   0.618810 0.319640 0.500000 -0.506735
O7    O     O_R   0.394980 0.500000 0.386410 -0.510271
O8    O     O_R   0.632570 0.499960 0.386400 -0.507864

loop_
_geom_bond_atom_site_label_1
_geom_bond_atom_site_label_2
_ccdc_geom_bond_type
C17   C18   S    
C25   C31   S    
Cu2   N1    S    
C30   C32   S    
C6    C7    A    
C3    C9    A    
C16   O5    A    
C23   C27   A    
C9    C10   S    
C17   N2    A    
C31   C32   D    
C11   H19   S    
Cu1   N2    S    
C13   C17   A    
C29   H12   S    
Cu1   O5    S    
C2    C27   A    
C10   H18   S    
C15   H22   S    
Cu2   O8    S    
Cu2   O6    S    
Cu1   Cu2   S    
C18   H4    S    
Cu1   O7    S    
C7    C8    A    
Cu1   O1    S    
C31   H13   S    
C21   C22   A    
Cu2   O2    S    
C22   H1    S    
C20   O7    A    
C29   C30   A    
C11   H20   S    
C19   H5    S    
C27   H3    S    
C1    C5    S    
C10   H17   S    
C4    O3    A    
C20   O8    A    
C28   C29   A    
C4    C21   S    
C26   H9    S    
C14   H21   S    
C19   H6    S    
C1    O1    A    
C6    H15   S    
C5    C6    A    
C15   N2    A    
C22   C24   A    
C3    C11   S    
C10   C11   S    
C13   C19   S    
C2    C20   S    
C24   H14   S    
C23   C30   A    
C4    O4    A    
C28   H7    S    
Cu2   O4    S    
C13   N1    A    
C24   C25   A    
Cu1   O3    S    
C18   C19   S    
C8    C16   S    
C1    O2    A    
C14   N1    A    
C32   H8    S    
C14   C15   A    
C8    C9    A    
C2    C28   A    
C16   O6    A    
C25   C26   A    
C18   H2    S    
C12   C21   A    
C23   H10   S    
C7    H16   S    
C12   C26   A    
C12   H11   S    
C3    C5    A    
