data_mof_unit_35146.cif
_audit_creation_date              2013-03-05T16:54:59-0500
_audit_creation_method            fapswitch 2.2
_symmetry_space_group_name_H-M    P1
_symmetry_Int_Tables_number       1
_space_group_crystal_system       triclinic
_cell_length_a                    17.623234
_cell_length_b                    16.716853
_cell_length_c                    10.356967
_cell_angle_alpha                 89.964516
_cell_angle_beta                  89.987264
_cell_angle_gamma                 89.966891
_cell_volume                      3051.21321928

loop_
_atom_site_label
_atom_site_type_symbol
_atom_site_description
_atom_site_fract_x
_atom_site_fract_y
_atom_site_fract_z
_atom_type_partial_charge
O1    O     O_R   0.389110 0.566570 0.499990 -0.600829
O2    O     O_R   0.610890 0.433430 0.500010 -0.623575
O3    O     O_R   0.610890 0.566570 0.500010 -0.599903
O4    O     O_R   0.389110 0.433430 0.499990 -0.621675
C1    C     C_R   0.353288 0.499984 0.499613 0.921374
C2    C     C_R   0.646694 0.499942 0.499270 0.920652
O5    O     O_R   0.499990 0.566540 0.316770 -0.629363
O6    O     O_R   0.500010 0.433460 0.683230 -0.612453
O7    O     O_R   0.500010 0.566540 0.683230 -0.629072
O8    O     O_R   0.499990 0.433460 0.316770 -0.612659
C3    C     C_R   0.485962 0.499921 0.259551 0.881961
C4    C     C_R   0.514595 0.499852 0.740081 0.884497
Zn1   Zn    Zn3+2 0.500000 0.588860 0.500000 0.981074
Zn2   Zn    Zn3+2 0.500000 0.411140 0.500000 1.009310
C5    C     C_R   0.442841 0.644754 0.093293 -0.172827
C6    C     C_R   0.554749 0.352322 0.898833 -0.076211
C7    C     C_R   0.559196 0.644332 0.905242 -0.174107
C8    C     C_R   0.446226 0.352650 0.100633 -0.074688
C9    C     C_R   0.469130 0.718137 0.040681 -0.135783
C10   C     C_R   0.528635 0.278967 0.951472 -0.136627
C11   C     C_R   0.533120 0.717922 0.957301 -0.135306
C12   C     C_R   0.472223 0.279129 0.048538 -0.137643
C13   C     C_R   0.524199 0.572022 0.945398 0.038012
C14   C     C_R   0.478395 0.425474 0.055508 0.009671
C15   C     C_R   0.477714 0.572204 0.053825 0.038414
C16   C     C_R   0.522976 0.425345 0.944063 0.010197
C17   C     C_R   0.532067 0.499012 0.878499 -0.122473
C18   C     C_R   0.469325 0.499218 0.120829 -0.122853
C19   C     C_R   0.847918 0.570701 0.513859 -0.037787
C20   C     C_R   0.152730 0.426868 0.509202 -0.025300
C21   C     C_R   0.153559 0.569988 0.451329 -0.033809
C22   C     C_R   0.845857 0.428435 0.451036 -0.020720
C23   C     C_R   0.768993 0.569953 0.518732 -0.150316
C24   C     C_R   0.231590 0.428534 0.515314 -0.223295
C25   C     C_R   0.232231 0.569983 0.463122 -0.145890
C26   C     C_R   0.767141 0.429276 0.461633 -0.220464
H1    H     H_    0.738714 0.623993 0.544945 0.230566
H2    H     H_    0.262297 0.374438 0.540070 0.202129
H3    H     H_    0.263518 0.624580 0.444781 0.231862
H4    H     H_    0.735332 0.375343 0.440613 0.199966
C27   C     C_R   0.728889 0.499648 0.494057 -0.095359
C28   C     C_R   0.271081 0.499703 0.493807 -0.096150
C29   C     C_R   0.886124 0.499533 0.478600 -0.035564
C30   C     C_R   0.113914 0.498101 0.476330 -0.036519
C31   C     C_1   0.966326 0.498878 0.474180 0.177229
C32   C     C_1   0.033690 0.498292 0.473384 0.177397
C33   C     C_R   0.452595 0.831894 0.586090 -0.112003
C34   C     C_R   0.562938 0.168024 0.450719 -0.080054
C35   C     C_R   0.547633 0.831880 0.414184 -0.113614
C36   C     C_R   0.437180 0.168009 0.549343 -0.078934
C37   C     C_R   0.453122 0.747445 0.581516 -0.047474
C38   C     C_R   0.560050 0.252441 0.449431 0.078934
C39   C     C_R   0.546987 0.747426 0.418632 -0.048618
C40   C     C_R   0.439974 0.252426 0.550549 0.078356
H5    H     H_    0.417337 0.713155 0.645973 0.181561
H6    H     H_    0.607012 0.286428 0.410539 0.152635
H7    H     H_    0.582766 0.713127 0.354187 0.181550
H8    H     H_    0.392967 0.286401 0.589399 0.153415
N1    N     N_R   0.500000 0.707230 0.500000 -0.115588
N2    N     N_R   0.500000 0.292770 0.500000 -0.101727
C41   C     C_R   0.500124 0.875454 0.500136 -0.029541
C42   C     C_R   0.500084 0.124441 0.500055 0.014358
C43   C     C_1   0.500131 0.963423 0.500119 0.203886
C44   C     C_1   0.500120 0.036466 0.500091 0.205135
C45   C     C_2   0.439366 0.201668 0.090649 0.997516
O9    O     O_2   0.449526 0.177699 0.200804 -0.580434
O10   O     O_R   0.399884 0.154614 0.001699 -0.752510
H9    H     H_    0.381501 0.102411 0.040505 0.366891
C46   C     C_2   0.573517 0.793603 0.926752 0.933524
O11   O     O_2   0.539120 0.850373 0.880788 -0.587625
O12   O     O_R   0.651542 0.799189 0.949225 -0.727038
H10   H     H_    0.672885 0.853350 0.924318 0.370777
C47   C     C_2   0.561294 0.201322 0.909833 0.999312
O13   O     O_2   0.550164 0.176693 0.800383 -0.579343
O14   O     O_R   0.601669 0.154842 0.998558 -0.752902
H11   H     H_    0.619817 0.102433 0.960185 0.366820
C48   C     C_2   0.428860 0.794045 0.070398 0.932996
O15   O     O_2   0.463335 0.850820 0.115925 -0.587190
O16   O     O_R   0.350878 0.799866 0.047579 -0.726520
H12   H     H_    0.329631 0.854182 0.071871 0.370808
C49   C     C_2   0.374563 0.641932 0.179172 1.005973
O17   O     O_2   0.325858 0.591451 0.159912 -0.537813
O18   O     O_R   0.364403 0.695341 0.281497 -0.751826
H13   H     H_    0.409685 0.731060 0.296672 0.302864
C50   C     C_2   0.621616 0.354740 0.809990 0.934268
O19   O     O_2   0.629468 0.304804 0.724945 -0.597887
O20   O     O_R   0.675500 0.415496 0.823543 -0.760436
H14   H     H_    0.717918 0.411490 0.757709 0.358552
C51   C     C_2   0.627228 0.641042 0.818828 1.006491
O21   O     O_2   0.675903 0.590472 0.838192 -0.535095
O22   O     O_R   0.637185 0.694089 0.715865 -0.750635
H15   H     H_    0.591919 0.729913 0.700750 0.302801
C52   C     C_2   0.378737 0.355545 0.187971 0.933740
O23   O     O_2   0.370516 0.306359 0.274134 -0.596014
O24   O     O_R   0.324628 0.415872 0.171482 -0.759991
H16   H     H_    0.281442 0.411967 0.235836 0.359064
C53   C     C_2   0.888120 0.646373 0.547423 0.968514
O25   O     O_2   0.857270 0.710837 0.527850 -0.566249
O26   O     O_R   0.959935 0.644450 0.604722 -0.791533
H17   H     H_    0.980750 0.699851 0.622788 0.371084
C54   C     C_2   0.113255 0.350190 0.539247 0.956960
O27   O     O_2   0.144735 0.286457 0.516669 -0.576118
O28   O     O_R   0.041433 0.350274 0.596647 -0.792133
H18   H     H_    0.021164 0.294339 0.612169 0.370113
C55   C     C_2   0.115079 0.645699 0.412065 0.973476
O29   O     O_2   0.144362 0.710206 0.437044 -0.568898
O30   O     O_R   0.046712 0.643734 0.343611 -0.785889
H19   H     H_    0.026658 0.699131 0.322901 0.370862
C56   C     C_2   0.883678 0.352758 0.409968 0.958781
O31   O     O_2   0.853867 0.288305 0.433622 -0.576599
O32   O     O_R   0.951997 0.354728 0.341322 -0.787397
H20   H     H_    0.971563 0.299346 0.319293 0.369763
C57   C     C_2   0.402776 0.871771 0.682832 0.989766
O33   O     O_2   0.345838 0.837669 0.722016 -0.580421
O34   O     O_R   0.421787 0.946788 0.732898 -0.751788
H21   H     H_    0.383863 0.966557 0.799268 0.368890
C58   C     C_2   0.632541 0.128053 0.401376 0.975998
O35   O     O_2   0.670775 0.160514 0.317822 -0.569078
O36   O     O_R   0.656079 0.054764 0.452711 -0.779734
H22   H     H_    0.704507 0.034279 0.411445 0.370905
C59   C     C_2   0.597585 0.871746 0.317628 0.990563
O37   O     O_2   0.654544 0.837564 0.278612 -0.579261
O38   O     O_R   0.578685 0.946851 0.267535 -0.752277
H23   H     H_    0.616697 0.966606 0.201288 0.369156
C60   C     C_2   0.367630 0.128012 0.598739 0.976799
O39   O     O_2   0.329403 0.160401 0.682352 -0.571993
O40   O     O_R   0.344139 0.054776 0.547385 -0.779477
H24   H     H_    0.295745 0.034266 0.588694 0.370705

loop_
_geom_bond_atom_site_label_1
_geom_bond_atom_site_label_2
_geom_bond_distance
_ccdc_geom_bond_type
C1    C28   1.450021 S    
C52   O23   1.221720 D    
C47   O14   1.397570 S    
C47   O13   1.222184 D    
O32   H20   1.013873 S    
C24   C28   1.396408 A    
O20   H14   1.013887 S    
O3    C2    1.279837 A    
C53   O25   1.223550 D    
C39   N1    1.359056 A    
O38   H23   1.014066 S    
C5    C49   1.496916 S    
C40   N2    1.359461 A    
C31   C32   1.187226 T    
C15   C18   1.411101 A    
C5    C9    1.419913 A    
C55   O30   1.398516 S    
C16   C17   1.415075 A    
C36   C40   1.412145 A    
O1    C1    1.279995 A    
C22   C26   1.391613 A    
C9    C11   1.420236 A    
C14   C16   1.396103 A    
C56   O32   1.398516 S    
C50   O19   1.221696 D    
C5    C15   1.419619 A    
O34   H21   1.014007 S    
C19   C23   1.391871 A    
C46   O12   1.397846 S    
C9    C48   1.485920 S    
C25   C28   1.395980 A    
O7    Zn1   1.933813 S    
C42   C44   1.470660 S    
C38   N2    1.359457 A    
C53   O26   1.398297 S    
O24   H16   1.013652 S    
C45   O10   1.397637 S    
C2    C27   1.449531 S    
O30   H19   1.013866 S    
C13   C17   1.410570 A    
C51   O22   1.397602 S    
C37   H5    1.082459 S    
O3    Zn1   1.989235 S    
C6    C10   1.418611 A    
C50   O20   1.397979 S    
C54   O28   1.398279 S    
C8    C12   1.418310 A    
C19   C29   1.414787 A    
C21   C55   1.491839 S    
C20   C30   1.414385 A    
C26   C27   1.396641 A    
O2    C2    1.278769 A    
C49   O18   1.397586 S    
C30   C32   1.414154 S    
O5    C3    1.285979 A    
C48   O16   1.397849 S    
C6    C16   1.422301 A    
C35   C41   1.422617 A    
C21   C30   1.414160 A    
C20   C24   1.391531 A    
C4    C17   1.466407 S    
O10   H9    1.013842 S    
C54   O27   1.223583 D    
C26   H4    1.084142 S    
C7    C51   1.497003 S    
C22   C56   1.491696 S    
O22   H15   1.009414 S    
C39   H7    1.082440 S    
C33   C37   1.412577 A    
C49   O17   1.220568 D    
C48   O15   1.222126 D    
C23   H1    1.083624 S    
C43   C44   1.221046 T    
C11   C46   1.485925 S    
C25   H3    1.083244 S    
O14   H11   1.013845 S    
C12   C45   1.484034 S    
C34   C42   1.420964 A    
O18   H13   1.009357 S    
C34   C38   1.412125 A    
O6    C4    1.282872 A    
C35   C59   1.489503 S    
C41   C43   1.470565 S    
C36   C60   1.487071 S    
C7    C13   1.419397 A    
C29   C31   1.414186 S    
C59   O37   1.223457 D    
C10   C12   1.413708 A    
O8    Zn2   1.933814 S    
C6    C50   1.495495 S    
C36   C42   1.420990 A    
C8    C14   1.421908 A    
O1    Zn1   1.989660 S    
O40   H24   1.013888 S    
C57   O33   1.223425 D    
C40   H8    1.081819 S    
C33   C57   1.489579 S    
O6    Zn2   1.934266 S    
C24   H2    1.084244 S    
C14   C18   1.415530 A    
O4    C1    1.278893 A    
C33   C41   1.422648 A    
O36   H22   1.013907 S    
C34   C58   1.487091 S    
Zn1   N1    1.978774 S    
Zn2   N2    1.978774 S    
C55   O29   1.223568 D    
O26   H17   1.013876 S    
C19   C53   1.491538 S    
C23   C27   1.395544 A    
C58   O36   1.398023 S    
O12   H10   1.013815 S    
C58   O35   1.223483 D    
C60   O39   1.223437 D    
C3    C18   1.466470 S    
C35   C39   1.412587 A    
C20   C54   1.491406 S    
C22   C29   1.413922 A    
C10   C47   1.483810 S    
C21   C25   1.391857 A    
C13   C15   1.389892 A    
O4    Zn2   1.989237 S    
C46   O11   1.222147 D    
O2    Zn2   1.989658 S    
O7    C4    1.286275 A    
C7    C11   1.419618 A    
C59   O38   1.398291 S    
O8    C3    1.282810 A    
O16   H12   1.013818 S    
O5    Zn1   1.934267 S    
C37   N1    1.359030 A    
C52   O24   1.397947 S    
C45   O9    1.222147 D    
O28   H18   1.013880 S    
C60   O40   1.398076 S    
C8    C52   1.494884 S    
C51   O21   1.220539 D    
C56   O31   1.223602 D    
C38   H6    1.081723 S    
C57   O34   1.398267 S    
