data_mof_unit_38177.cif
_audit_creation_date              2012-12-11T16:24:05-0500
_audit_creation_method            fapswitch 2.2
_symmetry_space_group_name_H-M    P1
_symmetry_Int_Tables_number       1
_space_group_crystal_system       triclinic
_cell_length_a                    14.717371
_cell_length_b                    14.733535
_cell_length_c                    33.336338
_cell_angle_alpha                 95.974774
_cell_angle_beta                  96.252416
_cell_angle_gamma                 61.211418
_cell_volume                      6286.42005911

loop_
_atom_site_label
_atom_site_type_symbol
_atom_type_description
_atom_site_fract_x
_atom_site_fract_y
_atom_site_fract_z
_atom_type_partial_charge
C1    C     C_R   0.390361 0.701621 0.446405 0.586250
C2    C     C_R   0.326138 0.342057 0.309331 -0.008527
C3    C     C_R   0.418962 0.266332 0.328027 0.052511
C4    C     C_R   0.438566 0.278739 0.369745 -0.141833
C5    C     C_R   0.367245 0.231047 0.168940 -0.104921
C6    C     C_R   0.363027 0.213294 0.127287 -0.144081
C7    C     C_R   0.232805 0.394151 0.119718 0.041469
C8    C     C_R   0.236884 0.410172 0.162155 -0.103671
C9    C     C_R   0.302057 0.328164 0.186500 0.011146
C10   C     C_1   0.303229 0.340961 0.229717 0.040836
C11   C     C_1   0.310296 0.343999 0.266044 0.055630
C12   C     C_R   0.404589 0.385588 0.434288 0.567363
C13   C     C_R   0.292928 0.292376 0.102123 0.003981
C14   C     C_R   0.753867 0.373899 0.409641 -0.059249
C15   C     C_R   0.792134 0.432189 0.393786 -0.130683
C16   C     C_R   0.819242 0.413474 0.353532 0.225535
C17   C     C_R   0.805849 0.336427 0.328783 0.060875
C18   C     C_R   0.773004 0.273298 0.345611 0.202823
C19   C     C_R   0.750799 0.290754 0.386089 -0.068803
C20   C     C_R   0.835420 0.313950 0.204532 0.329839
C21   C     C_R   0.819998 0.327657 0.285325 0.364631
C22   C     C_R   0.843623 0.390628 0.143052 -0.123210
C23   C     C_R   0.700664 0.409997 0.447499 0.542332
C24   C     C_R   0.871506 0.378925 0.103617 -0.149115
C25   C     C_R   0.893658 0.203421 0.097544 0.234879
C26   C     C_R   0.870118 0.214617 0.137807 -0.040329
C27   C     C_R   0.848142 0.306792 0.161085 -0.015057
C28   C     C_R   0.903104 0.283556 0.081155 0.004510
C29   C     C_R   0.369910 0.761953 0.410159 0.010350
C30   C     C_R   0.272777 0.800930 0.387424 -0.017073
C31   C     C_R   0.267494 0.821430 0.346950 -0.175605
C32   C     C_R   0.353461 0.814413 0.329679 0.014660
C33   C     C_R   0.443240 0.797244 0.354623 0.242029
C34   C     C_R   0.393284 0.701856 0.561201 0.605503
C35   C     C_R   0.453885 0.765518 0.394274 0.212495
C36   C     C_R   0.344047 0.828318 0.204159 0.368250
C37   C     C_R   0.348397 0.823392 0.285538 0.368032
C38   C     C_R   0.279248 0.806084 0.132712 0.240187
C39   C     C_R   0.258301 0.836994 0.092241 0.045901
C40   C     C_R   0.368770 0.919062 0.107247 -0.165919
C41   C     C_R   0.386533 0.891170 0.146822 -0.167663
C42   C     C_R   0.337468 0.840269 0.160459 0.059403
C43   C     C_R   0.299558 0.898974 0.080332 -0.019253
C44   C     C_R   0.370037 0.369730 0.585642 0.036685
C45   C     C_R   0.406579 0.388435 0.548939 0.589921
C46   C     C_R   0.293067 0.455549 0.607378 0.215645
C47   C     C_R   0.282071 0.446824 0.647784 -0.113938
C48   C     C_R   0.345516 0.354723 0.666983 -0.023492
C49   C     C_R   0.412707 0.266691 0.644229 -0.129489
C50   C     C_R   0.423463 0.272042 0.603407 0.003019
C51   C     C_R   0.337732 0.350094 0.791797 0.381805
C52   C     C_R   0.342183 0.351952 0.710856 0.354587
C53   C     C_R   0.224310 0.384670 0.846056 -0.133799
C54   C     C_R   0.205158 0.364833 0.883420 0.201116
C55   C     C_R   0.392769 0.276296 0.901036 0.204084
C56   C     C_R   0.701666 0.413261 0.562771 0.572717
C57   C     C_R   0.411047 0.293476 0.862537 0.102385
C58   C     C_R   0.325612 0.344986 0.834544 -0.056749
C59   C     C_R   0.289838 0.305922 0.910470 0.023371
C60   C     C_R   0.755903 0.379516 0.603043 0.033546
C61   C     C_R   0.782806 0.446743 0.628354 -0.162464
C62   C     C_R   0.813459 0.429639 0.669465 0.045341
C63   C     C_R   0.816804 0.342639 0.685348 -0.018931
C64   C     C_R   0.798034 0.271290 0.659760 -0.129487
C65   C     C_R   0.768173 0.288200 0.618582 0.238303
C66   C     C_R   0.897960 0.213708 0.821889 -0.147428
C67   C     C_R   0.366876 0.362744 0.393276 -0.021588
C68   C     C_R   0.927441 0.200442 0.862790 -0.173199
C69   C     C_R   0.850378 0.387539 0.876121 0.234575
C70   C     C_R   0.823246 0.401200 0.834045 0.063181
C71   C     C_R   0.849886 0.312639 0.807145 -0.001756
C72   C     C_1   0.838463 0.320564 0.764015 0.075111
C73   C     C_1   0.829806 0.329252 0.728118 0.068226
C74   C     C_R   0.908411 0.286223 0.889913 0.050863
C75   C     C_R   0.374649 0.758057 0.601586 0.100971
C76   C     C_R   0.272355 0.813583 0.614671 0.209176
C77   C     C_R   0.257406 0.846869 0.655639 -0.122123
C78   C     C_R   0.268188 0.430377 0.374904 0.037208
C79   C     C_R   0.342368 0.826675 0.683116 -0.022441
C80   C     C_R   0.442471 0.779157 0.669941 -0.105687
C81   C     C_R   0.459953 0.744620 0.629260 0.192260
C82   C     C_R   0.342097 0.954955 0.825983 0.053013
C83   C     C_R   0.331213 0.970857 0.867680 -0.146550
C84   C     C_R   0.258807 0.852324 0.865543 0.037220
C85   C     C_R   0.270053 0.835882 0.823703 -0.136088
C86   C     C_R   0.309520 0.887459 0.803917 -0.014287
C87   C     C_1   0.318727 0.866908 0.761141 0.053907
C88   C     C_1   0.328080 0.849660 0.725420 0.043752
C89   C     C_R   0.250615 0.420911 0.332798 -0.127002
C90   C     C_R   0.286962 0.923397 0.887590 -0.021120
C91   C     C_R   0.962045 0.264617 0.045220 0.535981
C92   C     C_R   0.273402 0.260019 0.059886 0.560490
C93   C     C_R   0.260055 0.958077 0.043425 0.585968
C94   C     C_R   0.961839 0.268017 0.930847 0.581453
C95   C     C_R   0.270755 0.264425 0.945361 0.560404
C96   C     C_R   0.256310 0.965050 0.929019 0.588167
Cr1   Cr    Cr6+3 0.576280 0.580550 0.506370 1.116702
Cr2   Cr    Cr6+3 0.346780 0.572400 0.496520 1.143344
Cr3   Cr    Cr6+3 0.576960 0.347070 0.497150 1.105832
Cr4   Cr    Cr6+3 0.087320 0.083240 0.984860 1.089271
Cr5   Cr    Cr6+3 0.087720 0.316210 0.996740 1.140087
Cr6   Cr    Cr6+3 0.317350 0.090340 0.995890 1.064883
H1    H     H_    0.410784 0.135103 0.115040 0.140326
H2    H     H_    0.721491 0.244729 0.397882 0.183320
H3    H     H_    0.874740 0.442914 0.091728 0.167558
H4    H     H_    0.825201 0.463270 0.160214 0.167015
H5    H     H_    0.869381 0.150704 0.150912 0.177647
H6    H     H_    0.419076 0.167478 0.187544 0.160609
H7    H     H_    0.194935 0.844255 0.328824 0.195696
H8    H     H_    0.402946 0.964442 0.098815 0.149213
H9    H     H_    0.434047 0.915432 0.167430 0.155334
H10   H     H_    0.226507 0.514126 0.664698 0.139191
H11   H     H_    0.457071 0.193364 0.658338 0.185310
H12   H     H_    0.159241 0.425088 0.824558 0.161115
H13   H     H_    0.971022 0.122116 0.872742 0.155180
H14   H     H_    0.918331 0.145788 0.801303 0.140277
H15   H     H_    0.802575 0.204084 0.672306 0.117336
H16   H     H_    0.776169 0.515259 0.616247 0.198604
H17   H     H_    0.512519 0.224061 0.383721 0.184542
H18   H     H_    0.351376 0.026538 0.884411 0.181529
H19   H     H_    0.507518 0.765405 0.691699 0.137508
H20   H     H_    0.248597 0.781822 0.806300 0.165366
H21   H     H_    0.179798 0.885789 0.666314 0.116123
H22   H     H_    0.189746 0.486355 0.176319 0.174746
H23   H     H_    0.177657 0.475555 0.318078 0.170735
H24   H     H_    0.796461 0.495387 0.412095 0.145052
N1    N     N_R   0.787248 0.407859 0.224802 -0.205840
N2    N     N_R   0.273605 0.436715 0.732190 -0.213684
N3    N     N_R   0.409286 0.266368 0.730897 -0.218229
N4    N     N_R   0.406653 0.265230 0.770614 -0.176809
N5    N     N_R   0.779181 0.414547 0.264429 -0.140586
N6    N     N_R   0.869368 0.233644 0.265195 -0.194417
N7    N     N_R   0.876853 0.226944 0.225474 -0.209815
N8    N     N_R   0.266491 0.824708 0.221335 -0.120681
N9    N     N_R   0.268920 0.821725 0.261194 -0.222973
N10   N     N_R   0.425722 0.827068 0.268219 -0.107648
N11   N     N_R   0.423350 0.830159 0.228421 -0.227543
N12   N     N_R   0.270899 0.435604 0.771820 -0.195446
O1    O     O_R   0.679450 0.499830 0.463150 -0.490987
O2    O     O_R   0.356040 0.477400 0.534170 -0.433295
O3    O     O_R   0.495910 0.323070 0.537100 -0.469453
O4    O     O_R   0.663920 0.359620 0.542290 -0.434474
O5    O     O_3   0.500010 0.500010 0.500010 -0.307155
O6    O     O_R   0.170070 0.978950 0.027680 -0.451425
O7    O     O_R   0.001760 0.175230 0.026640 -0.487953
O8    O     O_R   0.984760 0.333570 0.037150 -0.510837
O9    O     O_R   0.183410 0.309240 0.041890 -0.467454
O10   O     O_R   0.340240 0.172500 0.045430 -0.523514
O11   O     O_R   0.309670 0.000990 0.032050 -0.507332
O12   O     O_R   0.480650 0.664000 0.464630 -0.440311
O13   O     O_R   0.168330 0.982130 0.939200 -0.476301
O14   O     O_R   0.000140 0.178170 0.944610 -0.530038
O15   O     O_R   0.983010 0.336750 0.948660 -0.409376
O16   O     O_R   0.181800 0.312190 0.959860 -0.425068
O17   O     O_R   0.338500 0.175680 0.956950 -0.505613
O18   O     O_R   0.308050 0.003930 0.950020 -0.498684
O19   O     O_3   0.164130 0.163270 0.992500 -0.287073
O20   O     O_R   0.323930 0.675950 0.455370 -0.484591
O21   O     O_R   0.354700 0.475360 0.451930 -0.469241
O22   O     O_R   0.494470 0.320860 0.448390 -0.512668
O23   O     O_R   0.662580 0.357570 0.460050 -0.509226
O24   O     O_R   0.680900 0.502040 0.551870 -0.498580
O25   O     O_R   0.481990 0.666040 0.546870 -0.453271
O26   O     O_R   0.325370 0.678160 0.544080 -0.433199
O27   O     O_3   0.856338 0.471131 0.337471 -0.645320
H25   H     H_    0.861120 0.521343 0.358707 0.340803
O28   O     O_3   0.754844 0.198633 0.323312 -0.622499
H26   H     H_    0.731379 0.220087 0.295291 0.347900
O29   O     O_3   0.910598 0.112201 0.076070 -0.642275
H27   H     H_    0.882884 0.129039 0.047842 0.343295
C97   C     C_2   0.175213 0.822633 0.404939 0.626752
O30   O     O_2   0.108234 0.809915 0.383960 -0.447332
O31   O     O_R   0.157895 0.862006 0.445013 -0.652704
H28   H     H_    0.088347 0.874540 0.453336 0.355981
O32   O     O_3   0.547094 0.733694 0.417167 -0.665604
H29   H     H_    0.604856 0.700407 0.398918 0.335844
C98   C     C_2   0.191519 0.807623 0.063229 0.599154
O33   O     O_2   0.108649 0.819607 0.073152 -0.457002
O34   O     O_R   0.223291 0.767004 0.024396 -0.661247
H30   H     H_    0.171281 0.750080 0.007445 0.350905
O35   O     O_3   0.520533 0.808997 0.339560 -0.650263
H31   H     H_    0.556878 0.830565 0.362180 0.351727
O36   O     O_3   0.244949 0.742752 0.146082 -0.640928
H32   H     H_    0.235190 0.699763 0.122945 0.355890
O37   O     O_3   0.232524 0.548741 0.589422 -0.647258
H33   H     H_    0.184114 0.600358 0.608899 0.330172
C99   C     C_2   0.489829 0.173826 0.580459 0.613635
O38   O     O_2   0.466468 0.159972 0.544864 -0.471707
O39   O     O_R   0.577017 0.095271 0.600029 -0.692464
H34   H     H_    0.615379 0.031762 0.581365 0.354458
O40   O     O_3   0.104483 0.396638 0.892799 -0.638801
H35   H     H_    0.054985 0.435444 0.870411 0.351662
C100  C     C_2   0.497793 0.175084 0.304930 0.598458
O41   O     O_2   0.588286 0.130850 0.318470 -0.459816
O42   O     O_R   0.468566 0.137213 0.268411 -0.697647
H36   H     H_    0.529121 0.074418 0.255993 0.351266
O43   O     O_3   0.476533 0.231845 0.928890 -0.618522
H37   H     H_    0.451785 0.254466 0.956466 0.335891
C101  C     C_2   0.519240 0.260675 0.852654 0.658174
O44   O     O_2   0.536505 0.313948 0.832019 -0.500614
O45   O     O_R   0.601705 0.169436 0.867340 -0.587938
H38   H     H_    0.671349 0.155932 0.858732 0.340308
O46   O     O_3   0.746855 0.218689 0.593713 -0.653486
H39   H     H_    0.758302 0.160187 0.609502 0.338141
C102  C     C_2   0.774554 0.506061 0.817855 0.591989
O47   O     O_2   0.805728 0.567690 0.830715 -0.470317
O48   O     O_R   0.694152 0.533634 0.787418 -0.673279
H40   H     H_    0.668355 0.606325 0.778564 0.351508
O49   O     O_3   0.822539 0.470598 0.904332 -0.637599
H41   H     H_    0.759339 0.530984 0.893705 0.353218
C103  C     C_2   0.838136 0.505611 0.694808 0.592980
O50   O     O_2   0.886620 0.483152 0.727651 -0.481745
O51   O     O_R   0.807502 0.602978 0.680612 -0.715588
H42   H     H_    0.828886 0.647573 0.700358 0.357820
C104  C     C_2   0.384544 0.012558 0.806709 0.587078
O52   O     O_2   0.434771 0.048666 0.827432 -0.484734
O53   O     O_R   0.365926 0.027802 0.765287 -0.689525
H43   H     H_    0.398825 0.068253 0.756239 0.363498
O54   O     O_3   0.559907 0.693064 0.616638 -0.667795
H44   H     H_    0.609549 0.690438 0.639701 0.349039
O55   O     O_3   0.188559 0.832404 0.587263 -0.649955
H45   H     H_    0.123331 0.871496 0.601363 0.329065
C105  C     C_2   0.220927 0.792131 0.885285 0.599789
O56   O     O_2   0.165256 0.760522 0.865856 -0.496362
O57   O     O_R   0.251623 0.768228 0.925686 -0.650190
H46   H     H_    0.222229 0.725194 0.935261 0.354347
C106  C     C_2   0.181498 0.509705 0.398482 0.604245
O58   O     O_2   0.120272 0.592359 0.384080 -0.465007
O59   O     O_R   0.166982 0.488245 0.436465 -0.664997
H47   H     H_    0.104810 0.547999 0.449354 0.345847
C107  C     C_2   0.167845 0.485249 0.095195 0.584954
O60   O     O_2   0.191642 0.487805 0.061464 -0.492354
O61   O     O_R   0.081475 0.570487 0.111417 -0.681949
H48   H     H_    0.044494 0.628459 0.092161 0.367116

loop_
_geom_bond_atom_site_label_1
_geom_bond_atom_site_label_2
_ccdc_geom_bond_type
C14   C23   S    
C7    C13   A    
C66   C68   A    
C97   O30   D    
O27   H25   S    
C55   C59   A    
Cr2   O5    S    
C92   O10   A    
C41   C42   A    
C74   C94   S    
Cr3   O4    S    
C49   H11   S    
C105  O56   D    
C104  O52   D    
C91   O7    A    
O46   H39   S    
C52   N2    A    
C7    C8    A    
C7    C107  S    
O51   H42   S    
Cr4   O14   S    
C70   C102  S    
C97   O31   S    
C26   C27   A    
O59   H47   S    
C66   H14   S    
C94   O15   A    
C52   N3    A    
C23   O1    A    
C1    O20   A    
C38   C42   A    
C34   O26   A    
C104  O53   S    
C85   C86   A    
C30   C31   A    
C50   C99   S    
C44   C50   A    
C15   C16   A    
C81   O54   S    
C9    C10   S    
C56   O24   A    
C78   C106  S    
Cr1   O24   S    
C18   C19   A    
O29   H27   S    
C49   C50   A    
N2    N12   A    
C21   N5    A    
Cr6   O10   S    
Cr3   O23   S    
C36   C42   S    
Cr4   O19   S    
C40   C43   A    
Cr1   O5    S    
C106  O58   D    
C53   C54   A    
C16   C17   A    
C100  O42   S    
C15   H24   S    
Cr1   O12   S    
C37   N9    A    
C4    H17   S    
C70   C71   A    
C20   N7    A    
O43   H37   S    
C29   C30   A    
C36   N11   A    
Cr4   O7    S    
C34   C75   S    
C54   C59   A    
C56   O4    A    
C102  O48   S    
Cr5   O19   S    
C101  O44   D    
Cr4   O13   S    
Cr3   O22   S    
C57   C101  S    
C92   O9    A    
C45   O3    A    
C61   C62   A    
C67   C78   A    
C84   C90   A    
C2    C11   S    
C43   C93   S    
Cr6   O19   S    
C79   C88   S    
C39   C98   S    
C51   N4    A    
C44   C46   A    
C17   C18   A    
C94   O14   A    
C57   C58   A    
C80   H19   S    
C77   C79   A    
C78   C89   A    
C39   C43   A    
C38   C39   A    
C12   C67   S    
Cr5   O8    S    
C32   C37   S    
C54   O40   S    
O48   H40   S    
C47   C48   A    
Cr2   O20   S    
C1    O12   A    
C84   C85   A    
C20   N1    A    
O49   H41   S    
C34   O25   A    
Cr4   O6    S    
O54   H44   S    
C86   C87   S    
C8    C9    A    
C40   H8    S    
C63   C73   S    
Cr1   O25   S    
C25   C26   A    
O31   H28   S    
C96   O13   A    
C45   O2    A    
C17   C21   S    
C64   H15   S    
C63   C64   A    
Cr2   O2    S    
C60   C61   A    
C25   C28   A    
C83   H18   S    
O35   H31   S    
C2    C89   A    
C75   C76   A    
C21   N6    A    
C5    C9    A    
C62   C63   A    
C77   H21   S    
O55   H45   S    
C19   H2    S    
C55   O43   S    
C103  O50   D    
C65   O46   S    
Cr5   O15   S    
C16   O27   S    
C62   C103  S    
C1    C29   S    
O57   H46   S    
C31   H7    S    
C37   N10   A    
O36   H32   S    
C85   H20   S    
C107  O61   S    
C51   C58   S    
C3    C100  S    
C6    H1    S    
C76   C77   A    
C93   O6    A    
C66   C71   A    
C59   C95   S    
C93   O11   A    
C40   C41   A    
C106  O59   S    
C60   C65   A    
C82   C83   A    
C22   C27   A    
C55   C57   A    
C13   C92   S    
C33   O35   S    
C22   C24   A    
C79   C80   A    
C69   O49   S    
C96   O18   A    
C3    C4    A    
Cr6   O18   S    
O28   H26   S    
C53   H12   S    
N3    N4    A    
O61   H48   S    
Cr3   O5    S    
O39   H34   S    
C83   C90   A    
C102  O47   D    
C46   C47   A    
Cr5   O9    S    
C103  O51   S    
C61   H16   S    
C14   C19   A    
Cr3   O3    S    
C31   C32   A    
C8    H22   S    
C44   C45   S    
C24   C28   A    
C80   C81   A    
C12   O22   A    
C84   C105  S    
C36   N8    A    
C26   H5    S    
C4    C67   A    
Cr2   O26   S    
C53   C58   A    
C105  O57   S    
C90   C96   S    
N8    N9    A    
C20   C27   S    
C75   C81   A    
C76   O55   S    
C38   O36   S    
C29   C35   A    
O45   H38   S    
C89   H23   S    
C95   O16   A    
C25   O29   S    
C64   C65   A    
C2    C3    A    
O53   H43   S    
C35   O32   S    
C99   O38   D    
O32   H29   S    
C22   H4    S    
C32   C33   A    
C6    C13   A    
C82   C86   A    
C82   C104  S    
O37   H33   S    
C5    C6    A    
Cr5   O16   S    
C72   C73   T    
C48   C49   A    
C33   C35   A    
C98   O34   S    
N6    N7    A    
C28   C91   S    
C95   O17   A    
C46   O37   S    
C69   C70   A    
O40   H35   S    
N1    N5    A    
C30   C97   S    
C99   O39   S    
C10   C11   T    
C98   O33   D    
C68   H13   S    
O42   H36   S    
C51   N12   A    
C56   C60   S    
C48   C52   S    
C18   O28   S    
C71   C72   S    
Cr2   O21   S    
C87   C88   T    
C100  O41   D    
C41   H9    S    
C107  O60   D    
C101  O45   S    
O34   H30   S    
C14   C15   A    
Cr6   O11   S    
C24   H3    S    
C69   C74   A    
C68   C74   A    
Cr6   O17   S    
Cr1   O1    S    
C91   O8    A    
N10   N11   A    
C47   H10   S    
C23   O23   A    
C5    H6    S    
C12   O21   A    
