data_mof_unit_45567.cif
_audit_creation_date              2012-12-10T18:45:34-0500
_audit_creation_method            fapswitch 2.2
_symmetry_space_group_name_H-M    P1
_symmetry_Int_Tables_number       1
_space_group_crystal_system       triclinic
_cell_length_a                    18.286361
_cell_length_b                    18.241748
_cell_length_c                    42.916248
_cell_angle_alpha                 89.984612
_cell_angle_beta                  89.762662
_cell_angle_gamma                 89.965092
_cell_volume                      14315.6695613

loop_
_atom_site_label
_atom_site_type_symbol
_atom_type_description
_atom_site_fract_x
_atom_site_fract_y
_atom_site_fract_z
_atom_type_partial_charge
C1    C     C_R   0.499883 0.000042 0.334214 0.961341
C2    C     C_R   0.500198 0.999899 0.665738 0.961454
C3    C     C_R   0.999492 0.499945 0.334134 0.910040
C4    C     C_R   0.999517 0.499768 0.665642 0.966973
C5    C     C_R   0.999924 0.500152 0.834236 0.964233
C6    C     C_R   0.000101 0.500397 0.165771 0.965516
C7    C     C_R   0.501688 0.999835 0.834399 0.921558
C8    C     C_R   0.500298 0.999910 0.165652 0.968064
C9    C     C_R   0.504580 0.999305 0.130903 -0.326219
C10   C     C_R   0.511909 0.998139 0.869051 -0.354877
C11   C     C_R   0.000200 0.502088 0.131166 -0.333052
C12   C     C_R   0.999972 0.501224 0.868857 -0.338672
C13   C     C_R   0.997972 0.498236 0.630842 -0.331168
C14   C     C_R   0.994988 0.498916 0.368522 -0.355033
C15   C     C_R   0.500852 0.000015 0.631067 -0.330360
C16   C     C_R   0.499791 0.000186 0.368794 -0.332601
C17   C     C_R   0.996866 0.485031 0.467948 0.497240
C18   C     C_R   0.997334 0.490426 0.530865 0.508787
C19   C     C_R   0.500676 0.001005 0.468463 0.502778
C20   C     C_R   0.501941 0.000600 0.531309 0.504869
C21   C     C_R   0.536660 0.992329 0.968288 0.482368
C22   C     C_R   0.525602 0.994665 0.031190 0.506965
C23   C     C_R   0.000037 0.504782 0.968584 0.500894
C24   C     C_R   0.999649 0.505486 0.031450 0.501859
C25   C     C_R   0.640990 0.141987 0.250310 1.006103
C26   C     C_R   0.358184 0.858143 0.750037 0.988598
C27   C     C_R   0.858039 0.641516 0.250330 0.995132
C28   C     C_R   0.142350 0.359227 0.749455 1.007559
C29   C     C_R   0.359455 0.857388 0.250655 1.019882
C30   C     C_R   0.640145 0.143276 0.749082 1.017285
C31   C     C_R   0.142442 0.359196 0.250516 0.979659
C32   C     C_R   0.857493 0.640563 0.749501 1.007965
C33   C     C_R   0.140823 0.642164 0.750249 1.045662
C34   C     C_R   0.859335 0.357279 0.249622 0.971561
C35   C     C_R   0.357894 0.141324 0.750408 1.000615
C36   C     C_R   0.642369 0.859337 0.249505 1.010340
C37   C     C_R   0.859146 0.357563 0.750606 1.027634
C38   C     C_R   0.140877 0.642378 0.249509 0.958797
C39   C     C_R   0.642839 0.859328 0.750652 0.987187
C40   C     C_R   0.358189 0.141468 0.249853 0.993535
C41   C     C_3   0.225132 0.191870 0.265155 0.289612
C42   C     C_3   0.776415 0.807590 0.734353 0.272995
C43   C     C_3   0.808231 0.222637 0.266282 0.292775
C44   C     C_3   0.195260 0.771068 0.730951 0.290283
C45   C     C_3   0.777315 0.812312 0.263899 0.273509
C46   C     C_3   0.225634 0.192277 0.734608 0.312501
C47   C     C_3   0.191023 0.776456 0.264742 0.240060
C48   C     C_3   0.807402 0.225643 0.734693 0.281031
C49   C     C_3   0.725550 0.692370 0.766525 0.279380
C50   C     C_3   0.276828 0.310668 0.235571 0.254007
C51   C     C_3   0.301240 0.729610 0.770159 0.261281
C52   C     C_3   0.693296 0.273870 0.234271 0.268899
C53   C     C_3   0.275019 0.309584 0.765368 0.268897
C54   C     C_3   0.724216 0.691826 0.236053 0.273462
C55   C     C_3   0.689890 0.277740 0.764873 0.258452
C56   C     C_3   0.310582 0.722888 0.236623 0.368800
C57   C     C_3   0.191265 0.226635 0.235837 0.250008
C58   C     C_3   0.812604 0.773841 0.763398 0.280264
C59   C     C_3   0.774851 0.186723 0.237035 0.313757
C60   C     C_3   0.219415 0.814317 0.759911 0.255392
C61   C     C_3   0.810447 0.775454 0.234789 0.283255
C62   C     C_3   0.189169 0.226241 0.763588 0.244163
C63   C     C_3   0.228192 0.809402 0.235623 0.269258
C64   C     C_3   0.771883 0.190185 0.763530 0.256120
C65   C     C_3   0.689356 0.725439 0.737417 0.267182
C66   C     C_3   0.310860 0.275238 0.264809 0.276894
C67   C     C_3   0.276613 0.686279 0.741214 0.277780
C68   C     C_3   0.725879 0.309463 0.263609 0.254599
C69   C     C_3   0.311280 0.275872 0.736299 0.276901
C70   C     C_3   0.691693 0.728669 0.265313 0.244559
C71   C     C_3   0.726100 0.313211 0.736070 0.285656
C72   C     C_3   0.273170 0.689260 0.265755 0.235639
C73   C     C_3   0.200557 0.302798 0.251128 -0.303058
C74   C     C_3   0.799750 0.697125 0.749384 -0.286877
C75   C     C_3   0.698125 0.199050 0.250799 -0.306750
C76   C     C_3   0.300192 0.800704 0.750074 -0.341230
C77   C     C_3   0.801054 0.699615 0.250831 -0.305667
C78   C     C_3   0.200292 0.302592 0.748884 -0.311521
C79   C     C_3   0.303074 0.799367 0.251404 -0.332120
C80   C     C_3   0.696239 0.202248 0.748378 -0.333752
C81   C     C_3   0.701349 0.802756 0.751344 -0.296777
C82   C     C_3   0.301183 0.198960 0.249652 -0.297087
C83   C     C_3   0.196597 0.700679 0.750834 -0.322153
C84   C     C_3   0.803544 0.298173 0.249482 -0.352239
C85   C     C_3   0.300544 0.199040 0.750996 -0.282884
C86   C     C_3   0.700828 0.803413 0.249064 -0.319532
C87   C     C_3   0.801492 0.300528 0.751120 -0.325003
C88   C     C_3   0.198486 0.699264 0.249621 -0.387035
C89   C     C_3   0.235223 0.267469 0.280433 0.186640
C90   C     C_3   0.763349 0.730854 0.720181 0.135375
C91   C     C_3   0.731113 0.234500 0.280232 0.243101
C92   C     C_3   0.274963 0.756429 0.721012 0.260509
C93   C     C_3   0.767787 0.737510 0.280216 0.183394
C94   C     C_3   0.237031 0.268608 0.719668 0.229024
C95   C     C_3   0.266084 0.765870 0.280826 0.237148
C96   C     C_3   0.732512 0.238604 0.719433 0.271571
C97   C     C_3   0.738464 0.768899 0.780595 0.141310
C98   C     C_3   0.266864 0.234619 0.220156 0.147840
C99   C     C_3   0.221019 0.744107 0.780034 0.242963
C100  C     C_3   0.769843 0.261271 0.220126 0.155691
C101  C     C_3   0.263668 0.233526 0.780291 0.127244
C102  C     C_3   0.734429 0.766925 0.219761 0.245420
C103  C     C_3   0.765244 0.264879 0.780227 0.237675
C104  C     C_3   0.236302 0.733271 0.220654 0.317020
C105  C     C_R   0.540921 0.056521 0.114885 0.298840
C106  C     C_R   0.496462 0.933173 0.885889 0.355412
C107  C     C_R   0.942009 0.535684 0.114912 0.320326
C108  C     C_R   0.058575 0.469620 0.885557 0.318109
C109  C     C_R   0.474558 0.940464 0.113656 0.315005
C110  C     C_R   0.542132 0.058688 0.885080 0.308412
C111  C     C_R   0.058469 0.470278 0.114209 0.308610
C112  C     C_R   0.941881 0.534649 0.885390 0.318162
C113  C     C_R   0.029828 0.555429 0.613260 0.306616
C114  C     C_R   0.952228 0.444898 0.383701 0.372959
C115  C     C_R   0.443208 0.033083 0.614350 0.309949
C116  C     C_R   0.558109 0.967478 0.385278 0.314769
C117  C     C_R   0.965308 0.438657 0.614966 0.312212
C118  C     C_R   0.034395 0.550324 0.386201 0.302285
C119  C     C_R   0.559301 0.967352 0.614450 0.308259
C120  C     C_R   0.441611 0.033142 0.385477 0.306794
C121  C     C_R   0.553843 0.051272 0.082519 0.306566
C122  C     C_R   0.513275 0.927451 0.917896 0.313299
C123  C     C_R   0.945640 0.543260 0.082274 0.297594
C124  C     C_R   0.055068 0.464603 0.918279 0.306093
C125  C     C_R   0.476064 0.942098 0.080705 0.306933
C126  C     C_R   0.558493 0.053609 0.917187 0.323335
C127  C     C_R   0.054595 0.465058 0.081501 0.304832
C128  C     C_R   0.945792 0.542359 0.917995 0.293079
C129  C     C_R   0.035778 0.549483 0.580543 0.309550
C130  C     C_R   0.957293 0.436001 0.416262 0.339893
C131  C     C_R   0.447827 0.040259 0.581728 0.304374
C132  C     C_R   0.554616 0.961466 0.417946 0.303928
C133  C     C_R   0.958682 0.439997 0.582218 0.302442
C134  C     C_R   0.040541 0.541512 0.418677 0.320370
C135  C     C_R   0.556079 0.961264 0.581731 0.298984
C136  C     C_R   0.445522 0.039651 0.418152 0.303733
C137  C     C_R   0.518837 0.995632 0.065332 -0.317725
C138  C     C_R   0.539307 0.989790 0.933913 -0.319926
C139  C     C_R   0.000040 0.504742 0.065553 -0.330141
C140  C     C_R   0.000388 0.503995 0.934478 -0.338507
C141  C     C_R   0.997380 0.493313 0.565032 -0.321206
C142  C     C_R   0.999897 0.485891 0.433755 -0.340541
C143  C     C_R   0.502163 0.000898 0.565399 -0.325300
C144  C     C_R   0.500256 0.000747 0.434371 -0.331618
N1    N     N_R   0.483826 0.039861 0.013596 -0.077595
N2    N     N_R   0.579467 0.948152 0.985963 -0.039948
N3    N     N_R   0.944496 0.472967 0.015615 -0.075306
N4    N     N_R   0.055114 0.537441 0.984419 -0.081888
N5    N     N_R   0.573796 0.949018 0.016913 -0.072317
N6    N     N_R   0.489076 0.038466 0.982670 -0.103573
N7    N     N_R   0.054938 0.537756 0.015401 -0.075726
N8    N     N_R   0.944676 0.472644 0.984635 -0.076715
N9    N     N_R   0.957353 0.539210 0.514267 -0.070207
N10   N     N_R   0.037245 0.436510 0.484549 -0.054585
N11   N     N_R   0.446281 0.968531 0.515630 -0.078174
N12   N     N_R   0.556357 0.033068 0.484141 -0.084066
N13   N     N_R   0.037110 0.438884 0.515551 -0.075776
N14   N     N_R   0.957201 0.536577 0.483292 -0.093224
N15   N     N_R   0.556965 0.032904 0.515120 -0.074705
N16   N     N_R   0.445671 0.968693 0.484657 -0.074778
O1    O     O_3   0.500000 0.000000 0.250000 -0.561321
O2    O     O_3   0.500000 1.000000 0.750000 -0.566971
O3    O     O_3   1.000000 0.500000 0.250000 -0.551423
O4    O     O_3   0.000000 0.500000 0.750000 -0.563570
O5    O     O_R   0.438450 0.000020 0.319320 -0.613789
O6    O     O_R   0.561550 0.999980 0.680680 -0.618513
O7    O     O_R   0.999980 0.438450 0.319320 -0.603451
O8    O     O_R   0.000020 0.561550 0.680680 -0.611748
O9    O     O_R   0.561550 0.999980 0.319320 -0.617646
O10   O     O_R   0.438450 0.000020 0.680680 -0.610065
O11   O     O_R   0.000020 0.561550 0.319320 -0.626274
O12   O     O_R   0.999980 0.438450 0.680680 -0.614185
O13   O     O_R   0.938450 0.500020 0.819320 -0.615077
O14   O     O_R   0.061550 0.499980 0.180680 -0.615348
O15   O     O_R   0.499980 0.938450 0.819320 -0.578043
O16   O     O_R   0.500020 0.061550 0.180680 -0.613096
O17   O     O_R   0.061550 0.499980 0.819320 -0.616391
O18   O     O_R   0.938450 0.500020 0.180680 -0.613419
O19   O     O_R   0.500020 0.061550 0.819320 -0.611759
O20   O     O_R   0.499980 0.938450 0.180680 -0.618947
O21   O     O_R   0.648010 0.086580 0.268180 -0.590211
O22   O     O_R   0.351990 0.913420 0.731820 -0.606770
O23   O     O_R   0.913420 0.648010 0.268180 -0.600014
O24   O     O_R   0.086580 0.351990 0.731820 -0.603621
O25   O     O_R   0.351990 0.913420 0.268180 -0.603164
O26   O     O_R   0.648010 0.086580 0.731820 -0.611624
O27   O     O_R   0.086580 0.351990 0.268180 -0.623888
O28   O     O_R   0.913420 0.648010 0.731820 -0.607208
O29   O     O_R   0.148010 0.586580 0.768180 -0.607417
O30   O     O_R   0.851990 0.413420 0.231820 -0.593912
O31   O     O_R   0.413420 0.148010 0.768180 -0.603973
O32   O     O_R   0.586580 0.851990 0.231820 -0.614367
O33   O     O_R   0.851990 0.413420 0.768180 -0.608890
O34   O     O_R   0.148010 0.586580 0.231820 -0.609190
O35   O     O_R   0.586580 0.851990 0.768180 -0.600857
O36   O     O_R   0.413420 0.148010 0.231820 -0.604263
O37   O     O_R   0.413460 0.851950 0.231830 -0.626382
O38   O     O_R   0.586540 0.148050 0.768170 -0.605044
O39   O     O_R   0.148050 0.413460 0.231830 -0.618429
O40   O     O_R   0.851950 0.586540 0.768170 -0.624828
O41   O     O_R   0.586540 0.148050 0.231830 -0.625853
O42   O     O_R   0.413460 0.851950 0.768170 -0.609948
O43   O     O_R   0.851950 0.586540 0.231830 -0.617724
O44   O     O_R   0.148050 0.413460 0.768170 -0.624987
O45   O     O_R   0.913460 0.351950 0.731830 -0.612708
O46   O     O_R   0.086540 0.648050 0.268170 -0.618174
O47   O     O_R   0.648050 0.913460 0.731830 -0.621452
O48   O     O_R   0.351950 0.086540 0.268170 -0.623996
O49   O     O_R   0.086540 0.648050 0.731830 -0.614146
O50   O     O_R   0.913460 0.351950 0.268170 -0.670299
O51   O     O_R   0.351950 0.086540 0.731830 -0.614430
O52   O     O_R   0.648050 0.913460 0.268170 -0.617290
Zn1   Zn    Zn3+2 0.499980 0.087890 0.224030 1.056157
Zn2   Zn    Zn3+2 0.500020 0.912110 0.775970 1.082386
Zn3   Zn    Zn3+2 0.912110 0.499980 0.224030 1.053310
Zn4   Zn    Zn3+2 0.087890 0.500020 0.775970 1.051821
Zn5   Zn    Zn3+2 0.500020 0.912110 0.224030 1.048934
Zn6   Zn    Zn3+2 0.499980 0.087890 0.775970 1.063251
Zn7   Zn    Zn3+2 0.087890 0.500020 0.224030 1.039684
Zn8   Zn    Zn3+2 0.912110 0.499980 0.775970 1.057415
Zn9   Zn    Zn3+2 0.999980 0.587890 0.724030 1.068278
Zn10  Zn    Zn3+2 0.000020 0.412110 0.275970 1.005091
Zn11  Zn    Zn3+2 0.412110 0.999980 0.724030 1.055345
Zn12  Zn    Zn3+2 0.587890 0.000020 0.275970 1.060037
Zn13  Zn    Zn3+2 0.000020 0.412110 0.724030 1.062452
Zn14  Zn    Zn3+2 0.999980 0.587890 0.275970 1.031334
Zn15  Zn    Zn3+2 0.587890 0.000020 0.724030 1.052953
Zn16  Zn    Zn3+2 0.412110 0.999980 0.275970 1.054000
O53   O     O_3   0.123829 0.209192 0.221885 -0.603166
C145  C     C_3   0.125549 0.137948 0.209261 0.215924
H1    H     H_    0.159961 0.098917 0.222755 0.170560
H2    H     H_    0.145547 0.140450 0.184868 0.232929
C146  C     C_3   0.048165 0.108556 0.208541 -0.910669
H3    H     H_    0.014584 0.144173 0.193277 0.290953
H4    H     H_    0.047848 0.051900 0.199233 0.211860
H5    H     H_    0.024379 0.108361 0.232376 0.259237
O54   O     O_3   0.882631 0.784968 0.776184 -0.610730
C147  C     C_3   0.894462 0.858637 0.784077 0.142258
H6    H     H_    0.843822 0.892244 0.784622 0.194713
H7    H     H_    0.932236 0.882952 0.766628 0.140314
C148  C     C_3   0.931083 0.860874 0.815878 -0.723343
H8    H     H_    0.980897 0.826101 0.815675 0.275513
H9    H     H_    0.947361 0.917466 0.821930 0.203512
H10   H     H_    0.893020 0.840133 0.834040 0.300268
O55   O     O_3   0.788795 0.116938 0.224170 -0.600673
C149  C     C_3   0.862181 0.109385 0.214784 0.170574
H11   H     H_    0.889930 0.071643 0.231180 0.159836
H12   H     H_    0.893649 0.161515 0.214579 0.186326
C150  C     C_3   0.863643 0.075277 0.182387 -0.730836
H13   H     H_    0.836088 0.111969 0.165494 0.310576
H14   H     H_    0.920652 0.066261 0.174459 0.207312
H15   H     H_    0.834787 0.021720 0.182729 0.256121
O56   O     O_3   0.197323 0.885345 0.768959 -0.580308
C151  C     C_3   0.122035 0.886237 0.776170 0.196295
H16   H     H_    0.111275 0.858982 0.798651 0.229076
H17   H     H_    0.088344 0.859706 0.757953 0.173714
C152  C     C_3   0.097469 0.964954 0.779894 -0.904875
H18   H     H_    0.117591 0.998366 0.760109 0.291740
H19   H     H_    0.036903 0.967792 0.780850 0.200720
H20   H     H_    0.120147 0.987273 0.801875 0.277754
O57   O     O_3   0.878096 0.791629 0.220505 -0.586865
C153  C     C_3   0.877418 0.862317 0.207294 0.237396
H21   H     H_    0.841646 0.901974 0.219896 0.175309
H22   H     H_    0.859932 0.858482 0.182641 0.231375
C154  C     C_3   0.954681 0.892006 0.207447 -0.919192
H23   H     H_    0.990289 0.855021 0.193577 0.283569
H24   H     H_    0.955946 0.947562 0.197029 0.213148
H25   H     H_    0.975304 0.894933 0.231668 0.252843
O58   O     O_3   0.117965 0.209469 0.774073 -0.608414
C155  C     C_3   0.120269 0.157603 0.798107 0.207254
H26   H     H_    0.139440 0.183583 0.819908 0.222371
H27   H     H_    0.155395 0.110086 0.791713 0.187272
C156  C     C_3   0.043353 0.130694 0.804240 -0.855996
H28   H     H_    0.021418 0.105448 0.782693 0.256930
H29   H     H_    0.043850 0.089603 0.823321 0.229417
H30   H     H_    0.007799 0.177275 0.811274 0.288654
O59   O     O_3   0.215172 0.876440 0.220289 -0.583152
C157  C     C_3   0.142174 0.881539 0.210398 0.164549
H31   H     H_    0.109753 0.910296 0.228602 0.146067
H32   H     H_    0.116466 0.827399 0.205668 0.188473
C158  C     C_3   0.140471 0.926601 0.180545 -0.708902
H33   H     H_    0.172131 0.898301 0.161986 0.307303
H34   H     H_    0.083493 0.933915 0.172419 0.198244
H35   H     H_    0.165021 0.981394 0.184671 0.252095
O60   O     O_3   0.786325 0.119872 0.775551 -0.592662
C159  C     C_3   0.852684 0.119529 0.791787 0.221318
H36   H     H_    0.844068 0.141399 0.815582 0.240840
H37   H     H_    0.896279 0.150878 0.779451 0.172174
C160  C     C_3   0.877256 0.040917 0.795358 -0.886951
H38   H     H_    0.891271 0.017707 0.772180 0.239637
H39   H     H_    0.925622 0.038472 0.810703 0.219938
H40   H     H_    0.832768 0.008411 0.806332 0.304896
O61   O     O_3   0.620420 0.706819 0.725244 -0.596494
C161  C     C_3   0.621729 0.635147 0.713071 0.224521
H41   H     H_    0.656943 0.596685 0.726494 0.178121
H42   H     H_    0.639939 0.636774 0.688430 0.232672
C162  C     C_3   0.544720 0.605476 0.713371 -0.915156
H43   H     H_    0.510742 0.639471 0.697626 0.295479
H44   H     H_    0.544500 0.547993 0.705099 0.208266
H45   H     H_    0.521960 0.607696 0.737350 0.250487
O62   O     O_3   0.377045 0.291664 0.280122 -0.607299
C163  C     C_3   0.385001 0.367861 0.284454 0.168999
H46   H     H_    0.332668 0.398855 0.283242 0.183652
H47   H     H_    0.422476 0.389612 0.266277 0.147265
C164  C     C_3   0.419208 0.381660 0.316155 -0.760575
H48   H     H_    0.473517 0.354564 0.317439 0.255302
H49   H     H_    0.425900 0.441507 0.319902 0.203158
H50   H     H_    0.383726 0.359213 0.334893 0.303505
O63   O     O_3   0.292823 0.612733 0.733710 -0.598702
C165  C     C_3   0.364374 0.604609 0.722280 0.144437
H51   H     H_    0.393721 0.566038 0.737793 0.140958
H52   H     H_    0.396639 0.656183 0.721917 0.188386
C166  C     C_3   0.360749 0.570684 0.689860 -0.682453
H53   H     H_    0.329201 0.606333 0.673966 0.319400
H54   H     H_    0.416272 0.563123 0.679987 0.200671
H55   H     H_    0.333187 0.516560 0.691062 0.246108
O64   O     O_3   0.707311 0.378018 0.276464 -0.604423
C167  C     C_3   0.635462 0.376835 0.288382 0.204365
H56   H     H_    0.635424 0.354230 0.312355 0.224982
H57   H     H_    0.596762 0.345013 0.273695 0.183226
C168  C     C_3   0.608306 0.455025 0.290145 -0.928964
H58   H     H_    0.609892 0.479748 0.266584 0.264172
H59   H     H_    0.551476 0.456795 0.299117 0.217310
H60   H     H_    0.644272 0.486718 0.305948 0.271725
O65   O     O_3   0.380291 0.293223 0.723627 -0.588107
C169  C     C_3   0.379974 0.364408 0.711030 0.222656
H61   H     H_    0.346763 0.404012 0.724862 0.174027
H62   H     H_    0.359953 0.362537 0.686721 0.234450
C170  C     C_3   0.457847 0.391874 0.709880 -0.915960
H63   H     H_    0.490278 0.355631 0.694328 0.292440
H64   H     H_    0.459239 0.448409 0.700567 0.209235
H65   H     H_    0.481721 0.391404 0.733590 0.256422
O66   O     O_3   0.625173 0.714843 0.280939 -0.614708
C171  C     C_3   0.621249 0.641471 0.290890 0.132630
H66   H     H_    0.675264 0.615948 0.295262 0.198024
H67   H     H_    0.593962 0.608523 0.272757 0.160983
C172  C     C_3   0.576082 0.638304 0.320739 -0.724578
H68   H     H_    0.521324 0.662884 0.316809 0.273034
H69   H     H_    0.568813 0.580752 0.328437 0.206846
H70   H     H_    0.604173 0.669216 0.339479 0.287379
O67   O     O_3   0.714582 0.382760 0.722603 -0.585847
C173  C     C_3   0.641176 0.392810 0.714045 0.150287
H71   H     H_    0.614857 0.430192 0.731167 0.142257
H72   H     H_    0.608881 0.341221 0.713319 0.191579
C174  C     C_3   0.639619 0.428849 0.682035 -0.678358
H73   H     H_    0.666554 0.392748 0.664619 0.313559
H74   H     H_    0.582573 0.438915 0.674567 0.195900
H75   H     H_    0.669034 0.482073 0.682763 0.257823
O68   O     O_3   0.294761 0.623132 0.280216 -0.629036
C175  C     C_3   0.253323 0.609719 0.307489 0.173237
H76   H     H_    0.201195 0.641219 0.309004 0.179343
H77   H     H_    0.287283 0.623376 0.328057 0.237051
C176  C     C_3   0.234546 0.528910 0.309206 -0.740284
H78   H     H_    0.285776 0.496876 0.311289 0.263077
H79   H     H_    0.199663 0.518237 0.329967 0.254407
H80   H     H_    0.204680 0.511651 0.287954 0.228570
O69   O     O_3   0.204184 0.125530 0.279448 -0.590474
C177  C     C_3   0.133149 0.131299 0.292046 0.178895
H81   H     H_    0.096611 0.168719 0.278760 0.180898
H82   H     H_    0.136586 0.150207 0.316538 0.219532
C178  C     C_3   0.098835 0.055849 0.292293 -0.916845
H83   H     H_    0.131145 0.019795 0.307786 0.267108
H84   H     H_    0.041789 0.058802 0.301084 0.225726
H85   H     H_    0.098715 0.032332 0.268444 0.265419
O70   O     O_3   0.796491 0.874683 0.720663 -0.601537
C179  C     C_3   0.857188 0.865264 0.700966 0.162345
H86   H     H_    0.838025 0.847582 0.677695 0.202361
H87   H     H_    0.898067 0.825636 0.710329 0.185811
C180  C     C_3   0.894175 0.938661 0.696929 -0.928965
H88   H     H_    0.925614 0.952367 0.718182 0.247376
H89   H     H_    0.931189 0.937215 0.676410 0.235329
H90   H     H_    0.852505 0.981719 0.693046 0.283749
O71   O     O_3   0.871976 0.193787 0.280295 -0.617903
C181  C     C_3   0.881989 0.223359 0.310408 0.205348
H91   H     H_    0.854926 0.187550 0.327837 0.213423
H92   H     H_    0.860261 0.280108 0.312960 0.186689
C182  C     C_3   0.963067 0.224911 0.318007 -0.707022
H93   H     H_    0.993594 0.255509 0.299799 0.288102
H94   H     H_    0.971598 0.252103 0.340856 0.268268
H95   H     H_    0.984504 0.168164 0.319334 0.213248
O72   O     O_3   0.133825 0.784849 0.712136 -0.586304
C183  C     C_3   0.143115 0.849388 0.694570 0.210302
H96   H     H_    0.163047 0.834376 0.670972 0.213648
H97   H     H_    0.181857 0.889407 0.705118 0.182084
C184  C     C_3   0.069269 0.886499 0.691118 -0.968349
H98   H     H_    0.056598 0.919272 0.712160 0.257683
H99   H     H_    0.069430 0.922642 0.670319 0.237839
H100  H     H_    0.025376 0.845335 0.688528 0.285740
O73   O     O_3   0.792816 0.882874 0.275598 -0.594732
C185  C     C_3   0.859799 0.885016 0.291346 0.154427
H101  H     H_    0.902330 0.850262 0.280015 0.185107
H102  H     H_    0.851182 0.867294 0.315789 0.214201
C186  C     C_3   0.886064 0.964298 0.291997 -0.850559
H103  H     H_    0.839842 0.002089 0.296996 0.303263
H104  H     H_    0.927625 0.971751 0.310456 0.220034
H105  H     H_    0.910301 0.979172 0.269137 0.239755
O74   O     O_3   0.205786 0.123934 0.722034 -0.587316
C187  C     C_3   0.150307 0.132893 0.699944 0.210227
H106  H     H_    0.174764 0.150914 0.677558 0.212766
H107  H     H_    0.107664 0.172348 0.707889 0.191295
C188  C     C_3   0.114466 0.059468 0.694424 -0.943491
H108  H     H_    0.078514 0.046023 0.714361 0.262175
H109  H     H_    0.081843 0.061156 0.672683 0.232201
H110  H     H_    0.156501 0.016073 0.692430 0.284471
O75   O     O_3   0.121897 0.796910 0.276363 -0.586129
C189  C     C_3   0.128214 0.855670 0.297210 0.166588
H111  H     H_    0.162909 0.900494 0.287542 0.177609
H112  H     H_    0.150540 0.836241 0.319673 0.224694
C190  C     C_3   0.052187 0.885030 0.303677 -0.926176
H113  H     H_    0.014327 0.839349 0.309221 0.287533
H114  H     H_    0.053179 0.923075 0.323837 0.229177
H115  H     H_    0.031933 0.913975 0.282709 0.255056
O76   O     O_3   0.875208 0.207078 0.721494 -0.587396
C191  C     C_3   0.870000 0.142026 0.704309 0.188092
H116  H     H_    0.852597 0.155065 0.680236 0.209661
H117  H     H_    0.832002 0.101169 0.714914 0.187478
C192  C     C_3   0.945614 0.109005 0.702584 -0.925363
H118  H     H_    0.958250 0.081138 0.724918 0.254298
H119  H     H_    0.949331 0.070091 0.682845 0.232489
H120  H     H_    0.986405 0.152788 0.698607 0.287217
O77   O     O_3   0.705643 0.626351 0.781237 -0.604722
C193  C     C_3   0.640948 0.635480 0.798633 0.199366
H121  H     H_    0.601239 0.674029 0.787689 0.192951
H122  H     H_    0.654987 0.654792 0.822348 0.217944
C194  C     C_3   0.604519 0.561444 0.801942 -0.929391
H123  H     H_    0.645868 0.519492 0.807930 0.280785
H124  H     H_    0.563102 0.563081 0.820847 0.237493
H125  H     H_    0.578306 0.545804 0.779675 0.249964
O78   O     O_3   0.294848 0.380161 0.223336 -0.606822
C195  C     C_3   0.355230 0.375732 0.203185 0.163194
H126  H     H_    0.336809 0.356770 0.179987 0.206626
H127  H     H_    0.398526 0.338784 0.212382 0.177912
C196  C     C_3   0.386796 0.452163 0.199040 -0.926302
H128  H     H_    0.415728 0.469205 0.220503 0.239661
H129  H     H_    0.425300 0.453103 0.179022 0.235800
H130  H     H_    0.342401 0.491981 0.194329 0.284141
O79   O     O_3   0.364449 0.715593 0.787825 -0.581859
C197  C     C_3   0.352329 0.658034 0.808879 0.175674
H131  H     H_    0.317674 0.613827 0.798894 0.177339
H132  H     H_    0.326715 0.679882 0.830346 0.205427
C198  C     C_3   0.425701 0.626005 0.817872 -0.885938
H133  H     H_    0.461899 0.669679 0.827160 0.297000
H134  H     H_    0.418147 0.583499 0.836108 0.220673
H135  H     H_    0.451654 0.601252 0.796955 0.257792
O80   O     O_3   0.626555 0.291504 0.219930 -0.601731
C199  C     C_3   0.632251 0.356692 0.202768 0.179361
H136  H     H_    0.652683 0.343902 0.179040 0.213389
H137  H     H_    0.668133 0.398326 0.214007 0.190918
C200  C     C_3   0.556135 0.388387 0.199472 -0.926655
H138  H     H_    0.516719 0.344276 0.194048 0.282516
H139  H     H_    0.539219 0.414982 0.221610 0.255927
H140  H     H_    0.554860 0.428389 0.180052 0.231756
O81   O     O_3   0.290948 0.377588 0.779205 -0.600438
C201  C     C_3   0.358314 0.375760 0.794698 0.177378
H141  H     H_    0.399433 0.339765 0.783097 0.192947
H142  H     H_    0.349283 0.357376 0.819036 0.205552
C202  C     C_3   0.387931 0.453317 0.795818 -0.924775
H143  H     H_    0.342667 0.492271 0.800128 0.287000
H144  H     H_    0.427764 0.458850 0.815036 0.233805
H145  H     H_    0.414486 0.467517 0.773352 0.245884
O82   O     O_3   0.700332 0.623903 0.224158 -0.596611
C203  C     C_3   0.640316 0.634741 0.204269 0.189580
H146  H     H_    0.660652 0.649915 0.180793 0.219715
H147  H     H_    0.601454 0.676923 0.213200 0.178698
C204  C     C_3   0.598987 0.563595 0.200729 -0.946321
H148  H     H_    0.573828 0.547549 0.223186 0.249754
H149  H     H_    0.555194 0.570047 0.183087 0.228927
H150  H     H_    0.637468 0.520249 0.193091 0.277442
O83   O     O_3   0.621203 0.297746 0.777114 -0.591239
C205  C     C_3   0.628967 0.353925 0.799101 0.195523
H151  H     H_    0.667908 0.397077 0.791134 0.179883
H152  H     H_    0.646388 0.330135 0.821660 0.224706
C206  C     C_3   0.555129 0.389120 0.804245 -0.950740
H153  H     H_    0.513084 0.346592 0.808264 0.280792
H154  H     H_    0.556915 0.425356 0.824981 0.235663
H155  H     H_    0.539894 0.421133 0.783311 0.254815
O84   O     O_3   0.374697 0.704758 0.219827 -0.583192
C207  C     C_3   0.395678 0.631646 0.225026 0.187206
H156  H     H_    0.423739 0.611794 0.203646 0.157337
H157  H     H_    0.348650 0.594061 0.228907 0.194763
C208  C     C_3   0.450102 0.628146 0.251711 -0.816755
H158  H     H_    0.426500 0.651114 0.273421 0.303558
H159  H     H_    0.466579 0.570459 0.255992 0.192642
H160  H     H_    0.498664 0.661416 0.245535 0.262433
S1    S     S_3+6 0.214815 0.290438 0.320099 0.051190
O85   O     O_2   0.239612 0.366911 0.327185 -0.317325
O86   O     O_2   0.133854 0.285960 0.325752 -0.281052
O87   O     O_3   0.257717 0.231590 0.343977 -0.482401
H161  H     H_    0.309052 0.230520 0.336541 0.382850
S2    S     S_3+6 0.783182 0.698029 0.681649 0.013470
O88   O     O_2   0.860921 0.715055 0.673042 -0.346450
O89   O     O_2   0.773400 0.616284 0.680754 -0.310165
O90   O     O_3   0.726503 0.737304 0.655773 -0.467374
H162  H     H_    0.714642 0.786037 0.664619 0.358670
S3    S     S_3+6 0.699618 0.211423 0.318509 -0.024138
O91   O     O_2   0.617447 0.212538 0.319337 -0.336205
O92   O     O_2   0.726038 0.135792 0.326489 -0.336384
O93   O     O_3   0.732355 0.271967 0.344452 -0.602417
H163  H     H_    0.717679 0.252355 0.365069 0.391458
S4    S     S_3+6 0.310061 0.770426 0.682410 -0.000106
O94   O     O_2   0.304499 0.850220 0.674199 -0.362825
O95   O     O_2   0.388869 0.747663 0.680375 -0.316704
O96   O     O_3   0.260035 0.721279 0.657140 -0.528041
H164  H     H_    0.278784 0.735223 0.636282 0.399268
S5    S     S_3+6 0.793909 0.715456 0.319413 0.020093
O97   O     O_2   0.784139 0.634993 0.325544 -0.334485
O98   O     O_2   0.873121 0.734146 0.323945 -0.323286
O99   O     O_3   0.743081 0.763600 0.344956 -0.497734
H165  H     H_    0.697713 0.776484 0.333691 0.375977
S6    S     S_3+6 0.216492 0.300554 0.681176 -0.016378
O100  O     O_2   0.138496 0.283349 0.673324 -0.374957
O101  O     O_2   0.226770 0.382205 0.679608 -0.340998
O102  O     O_3   0.272612 0.259196 0.655503 -0.517563
H166  H     H_    0.256155 0.276475 0.634804 0.402363
S7    S     S_3+6 0.295632 0.789122 0.319340 -0.023684
O103  O     O_2   0.373381 0.764312 0.323441 -0.298131
O104  O     O_2   0.291446 0.870652 0.323517 -0.353533
O105  O     O_3   0.242396 0.748762 0.346327 -0.608624
H167  H     H_    0.262115 0.765385 0.366588 0.401534
S8    S     S_3+6 0.706878 0.220233 0.680063 0.006924
O106  O     O_2   0.717504 0.140223 0.673252 -0.372538
O107  O     O_2   0.627877 0.239471 0.675179 -0.313279
O108  O     O_3   0.759576 0.270486 0.656030 -0.511666
H168  H     H_    0.745951 0.254517 0.634778 0.400806
S9    S     S_3+6 0.721162 0.798306 0.819831 0.052823
O109  O     O_2   0.744470 0.876618 0.823898 -0.293035
O110  O     O_2   0.640775 0.792928 0.826820 -0.246291
O111  O     O_3   0.767330 0.744976 0.844981 -0.487480
H169  H     H_    0.809535 0.725546 0.833032 0.370942
S10   S     S_3+6 0.290330 0.205724 0.181428 0.018480
O112  O     O_2   0.368464 0.224848 0.174326 -0.337574
O113  O     O_2   0.281849 0.123997 0.179069 -0.304749
O114  O     O_3   0.235229 0.246449 0.155322 -0.473117
H170  H     H_    0.215205 0.290139 0.166078 0.357356
S11   S     S_3+6 0.172751 0.729027 0.816026 -0.028582
O115  O     O_2   0.092210 0.724365 0.809423 -0.356629
O116  O     O_2   0.196391 0.658468 0.830836 -0.360543
O117  O     O_3   0.187756 0.799083 0.840493 -0.583704
H171  H     H_    0.153971 0.790587 0.858227 0.391420
S12   S     S_3+6 0.797702 0.280106 0.180829 0.033369
O118  O     O_2   0.788108 0.360364 0.174330 -0.327149
O119  O     O_2   0.876870 0.260793 0.176317 -0.285226
O120  O     O_3   0.746552 0.231707 0.155650 -0.481025
H172  H     H_    0.718733 0.196279 0.168551 0.363951
S13   S     S_3+6 0.289465 0.208181 0.819127 -0.004282
O121  O     O_2   0.274293 0.128160 0.824295 -0.316372
O122  O     O_2   0.369790 0.221320 0.823230 -0.334456
O123  O     O_3   0.242959 0.258119 0.845568 -0.504739
H173  H     H_    0.216864 0.296123 0.833439 0.356043
S14   S     S_3+6 0.711986 0.796554 0.181119 -0.018164
O124  O     O_2   0.632995 0.781242 0.174495 -0.378538
O125  O     O_2   0.724559 0.877678 0.178254 -0.342857
O126  O     O_3   0.765018 0.751636 0.155345 -0.521480
H174  H     H_    0.747456 0.767670 0.134632 0.392473
S15   S     S_3+6 0.795093 0.286971 0.818852 -0.019785
O127  O     O_2   0.876018 0.274050 0.821441 -0.348564
O128  O     O_2   0.779857 0.366226 0.825678 -0.368815
O129  O     O_3   0.750216 0.233976 0.844655 -0.517837
H175  H     H_    0.766754 0.251159 0.865349 0.404206
S16   S     S_3+6 0.219271 0.709214 0.181056 0.037773
O130  O     O_2   0.253403 0.635928 0.174347 -0.335502
O131  O     O_2   0.138308 0.705104 0.175470 -0.327716
O132  O     O_3   0.256591 0.773020 0.157652 -0.506384
H176  H     H_    0.247274 0.755340 0.136215 0.394927
O133  O     O_3   0.567218 0.115970 0.131292 -0.554490
C209  C     C_3   0.516469 0.173961 0.128197 0.194857
H177  H     H_    0.461570 0.157708 0.137135 0.193143
H178  H     H_    0.510966 0.191493 0.103483 0.184882
C210  C     C_3   0.542955 0.239195 0.146863 -0.689827
H179  H     H_    0.597231 0.257287 0.138105 0.277318
H180  H     H_    0.503520 0.285119 0.144428 0.203874
H181  H     H_    0.547503 0.223775 0.171808 0.287380
O134  O     O_3   0.463796 0.874952 0.870896 -0.507383
C211  C     C_3   0.387381 0.881160 0.874959 0.128893
H182  H     H_    0.365786 0.929925 0.862347 0.121573
H183  H     H_    0.372275 0.885693 0.900092 0.169916
C212  C     C_3   0.351056 0.812893 0.862128 -0.611276
H184  H     H_    0.296067 0.807257 0.872712 0.236376
H185  H     H_    0.346533 0.816900 0.836387 0.265570
H186  H     H_    0.383043 0.763239 0.868216 0.267768
O135  O     O_3   0.883579 0.564906 0.131256 -0.526549
C213  C     C_3   0.824886 0.514624 0.129768 0.191950
H187  H     H_    0.841528 0.459544 0.138369 0.185946
H188  H     H_    0.804406 0.508862 0.105547 0.177285
C214  C     C_3   0.762303 0.542181 0.149927 -0.663314
H189  H     H_    0.715797 0.503262 0.148488 0.186659
H190  H     H_    0.780111 0.546612 0.174559 0.290937
H191  H     H_    0.744089 0.596776 0.141549 0.269057
O136  O     O_3   0.117743 0.440500 0.869654 -0.537387
C215  C     C_3   0.175255 0.492251 0.870561 0.186260
H192  H     H_    0.195860 0.499708 0.894681 0.179272
H193  H     H_    0.157146 0.546407 0.861498 0.184386
C216  C     C_3   0.238264 0.465493 0.850456 -0.721422
H194  H     H_    0.259442 0.412767 0.859664 0.269679
H195  H     H_    0.219568 0.457729 0.826102 0.291855
H196  H     H_    0.283013 0.506597 0.850782 0.191306
O137  O     O_3   0.439789 0.883746 0.129200 -0.539174
C217  C     C_3   0.487985 0.823116 0.130554 0.148720
H197  H     H_    0.543078 0.839688 0.138890 0.187108
H198  H     H_    0.494259 0.797162 0.107285 0.188271
C218  C     C_3   0.457301 0.766061 0.152916 -0.583095
H199  H     H_    0.494826 0.718260 0.154148 0.181915
H200  H     H_    0.451516 0.789974 0.176558 0.295517
H201  H     H_    0.403015 0.747032 0.144750 0.277107
O138  O     O_3   0.559865 0.121609 0.868871 -0.530784
C219  C     C_3   0.502479 0.172687 0.872675 0.191942
H202  H     H_    0.493312 0.186707 0.897595 0.179431
H203  H     H_    0.450526 0.150939 0.862939 0.184908
C220  C     C_3   0.522635 0.242504 0.855523 -0.655404
H204  H     H_    0.573920 0.265621 0.865195 0.261314
H205  H     H_    0.530888 0.230033 0.830427 0.284017
H206  H     H_    0.478227 0.283595 0.858189 0.204403
O139  O     O_3   0.117009 0.439975 0.129869 -0.549519
C221  C     C_3   0.175724 0.490290 0.128656 0.195259
H207  H     H_    0.161180 0.542436 0.140679 0.189471
H208  H     H_    0.192004 0.503062 0.104242 0.181703
C222  C     C_3   0.241297 0.456967 0.144852 -0.713130
H209  H     H_    0.288130 0.495527 0.143515 0.217031
H210  H     H_    0.227562 0.446055 0.169648 0.278792
H211  H     H_    0.257036 0.404794 0.133302 0.273108
O140  O     O_3   0.883150 0.563472 0.869346 -0.538631
C223  C     C_3   0.824783 0.512907 0.871335 0.181496
H212  H     H_    0.805125 0.506745 0.895735 0.177921
H213  H     H_    0.841456 0.458022 0.862461 0.185447
C224  C     C_3   0.761434 0.540393 0.851865 -0.667497
H214  H     H_    0.743533 0.595070 0.860314 0.277999
H215  H     H_    0.778362 0.544556 0.827051 0.289177
H216  H     H_    0.714995 0.501510 0.853934 0.194908
O141  O     O_3   0.057375 0.616190 0.628305 -0.538506
C225  C     C_3   0.004758 0.672662 0.626105 0.185675
H217  H     H_    0.950847 0.654573 0.635486 0.191216
H218  H     H_    0.997429 0.690792 0.601578 0.184410
C226  C     C_3   0.030306 0.737912 0.644860 -0.664096
H219  H     H_    0.989681 0.782908 0.642808 0.192993
H220  H     H_    0.035823 0.721893 0.669705 0.293403
H221  H     H_    0.083946 0.757348 0.635896 0.265602
O142  O     O_3   0.907047 0.398820 0.366690 -0.545199
C227  C     C_3   0.845729 0.437929 0.355063 0.113680
H222  H     H_    0.825778 0.408761 0.334038 0.189463
H223  H     H_    0.858477 0.494884 0.347483 0.119013
C228  C     C_3   0.783536 0.440214 0.378833 -0.649560
H224  H     H_    0.800326 0.471849 0.399697 0.249590
H225  H     H_    0.735160 0.467385 0.368344 0.212455
H226  H     H_    0.767876 0.383874 0.385898 0.291866
O143  O     O_3   0.383348 0.060774 0.630116 -0.531670
C229  C     C_3   0.326209 0.008980 0.627734 0.180991
H227  H     H_    0.342720 0.955319 0.637833 0.183031
H228  H     H_    0.309613 0.000262 0.603110 0.181641
C230  C     C_3   0.260250 0.036900 0.645485 -0.701152
H229  H     H_    0.215212 0.996336 0.643718 0.186048
H230  H     H_    0.274869 0.044934 0.670338 0.289305
H231  H     H_    0.241792 0.089814 0.635410 0.272483
O144  O     O_3   0.616450 0.937350 0.369159 -0.538792
C231  C     C_3   0.675169 0.987710 0.370026 0.180442
H232  H     H_    0.695682 0.995147 0.394161 0.176651
H233  H     H_    0.658438 0.042165 0.360756 0.186422
C232  C     C_3   0.737737 0.958813 0.350167 -0.665778
H234  H     H_    0.757234 0.905694 0.359609 0.277205
H235  H     H_    0.719236 0.951085 0.325784 0.290957
H236  H     H_    0.783753 0.998466 0.350471 0.204394
O145  O     O_3   0.937230 0.380320 0.631702 -0.532204
C233  C     C_3   0.988385 0.322261 0.630217 0.177622
H237  H     H_    0.042989 0.340134 0.638649 0.186265
H238  H     H_    0.994558 0.301214 0.606044 0.182662
C234  C     C_3   0.962019 0.259598 0.650541 -0.651167
H239  H     H_    0.001647 0.213567 0.649153 0.185494
H240  H     H_    0.957261 0.278168 0.675098 0.295978
H241  H     H_    0.907927 0.240230 0.642298 0.269789
O146  O     O_3   0.068425 0.608433 0.371447 -0.556494
C235  C     C_3   0.021440 0.669900 0.373387 0.177572
H242  H     H_    0.008816 0.684493 0.398016 0.178791
H243  H     H_    0.969082 0.659412 0.361022 0.190322
C236  C     C_3   0.058479 0.735350 0.358349 -0.683331
H244  H     H_    0.109534 0.748643 0.371020 0.281704
H245  H     H_    0.071611 0.722855 0.333625 0.282293
H246  H     H_    0.021465 0.783513 0.359504 0.200157
O147  O     O_3   0.617920 0.938137 0.630433 -0.548443
C237  C     C_3   0.676127 0.988960 0.628794 0.190707
H247  H     H_    0.659488 0.043047 0.638492 0.189027
H248  H     H_    0.695121 0.997042 0.604386 0.185091
C238  C     C_3   0.740087 0.960268 0.647548 -0.715850
H249  H     H_    0.786072 0.999832 0.646061 0.202391
H250  H     H_    0.723613 0.953369 0.672309 0.288274
H251  H     H_    0.758398 0.906719 0.638010 0.261377
O148  O     O_3   0.382854 0.062477 0.369516 -0.548414
C239  C     C_3   0.324232 0.012039 0.371196 0.170354
H252  H     H_    0.301265 0.009536 0.395179 0.188753
H253  H     H_    0.341955 0.955904 0.364316 0.181089
C240  C     C_3   0.263647 0.036217 0.349330 -0.634195
H254  H     H_    0.242326 0.090571 0.356556 0.281247
H255  H     H_    0.284638 0.039606 0.325062 0.294579
H256  H     H_    0.218205 0.995928 0.350224 0.186102
S17   S     S_3+6 0.613700 0.114481 0.063501 0.079866
O149  O     O_2   0.659290 0.156333 0.086496 -0.197651
O150  O     O_2   0.663932 0.073678 0.041770 -0.238213
O151  O     O_3   0.563128 0.173821 0.042722 -0.550496
H257  H     H_    0.598866 0.201478 0.029913 0.398971
S18   S     S_3+6 0.501629 0.842255 0.937887 0.081407
O152  O     O_2   0.572994 0.820524 0.952477 -0.221439
O153  O     O_2   0.445009 0.851784 0.963061 -0.290636
O154  O     O_3   0.475706 0.773791 0.914179 -0.502113
H258  H     H_    0.466515 0.731517 0.928141 0.383273
S19   S     S_3+6 0.883302 0.602593 0.062698 0.087315
O155  O     O_2   0.923131 0.645383 0.037970 -0.221498
O156  O     O_2   0.824767 0.557179 0.047595 -0.273675
O157  O     O_3   0.844181 0.662088 0.087667 -0.478433
H259  H     H_    0.805976 0.687364 0.075384 0.387722
S20   S     S_3+6 0.117942 0.407270 0.938597 0.074556
O158  O     O_2   0.175637 0.454307 0.953390 -0.302474
O159  O     O_2   0.078300 0.365319 0.963632 -0.225474
O160  O     O_3   0.158254 0.346933 0.914348 -0.465684
H260  H     H_    0.196397 0.322680 0.927030 0.396366
S21   S     S_3+6 0.423987 0.877863 0.058660 0.074301
O161  O     O_2   0.368294 0.839193 0.078594 -0.228450
O162  O     O_2   0.384819 0.916964 0.032792 -0.242707
O163  O     O_3   0.481444 0.815727 0.043110 -0.540640
H261  H     H_    0.450824 0.786005 0.028932 0.412696
S22   S     S_3+6 0.606864 0.125678 0.936227 0.074157
O164  O     O_2   0.658791 0.093900 0.959716 -0.231940
O165  O     O_2   0.649803 0.170733 0.913230 -0.225333
O166  O     O_3   0.546484 0.180025 0.954773 -0.559361
H262  H     H_    0.576734 0.215951 0.966252 0.393611
S23   S     S_3+6 0.116761 0.407160 0.060811 0.088537
O167  O     O_2   0.152795 0.353008 0.082244 -0.197036
O168  O     O_2   0.076299 0.365638 0.036027 -0.227853
O169  O     O_3   0.181428 0.459358 0.043869 -0.544921
H263  H     H_    0.207894 0.425862 0.029577 0.412867
S24   S     S_3+6 0.883631 0.601865 0.937796 0.088497
O170  O     O_2   0.825119 0.556626 0.953226 -0.272043
O171  O     O_2   0.923657 0.644753 0.962284 -0.224325
O172  O     O_3   0.844445 0.661261 0.912928 -0.463542
H264  H     H_    0.806437 0.686754 0.925369 0.406642
S25   S     S_3+6 0.091660 0.612064 0.559168 0.071860
O173  O     O_2   0.143215 0.652399 0.580296 -0.229272
O174  O     O_2   0.135702 0.571104 0.535188 -0.224245
O175  O     O_3   0.037396 0.672827 0.540989 -0.550484
H265  H     H_    0.071370 0.707878 0.530887 0.389466
S26   S     S_3+6 0.909622 0.363126 0.435215 0.076524
O176  O     O_2   0.961341 0.321931 0.455957 -0.246463
O177  O     O_2   0.849383 0.395313 0.454842 -0.275017
O178  O     O_3   0.873554 0.303228 0.409755 -0.497390
H266  H     H_    0.842768 0.270099 0.422544 0.382431
S27   S     S_3+6 0.386339 0.099631 0.561646 0.076937
O179  O     O_2   0.350718 0.152990 0.583677 -0.214109
O180  O     O_2   0.427319 0.141964 0.537113 -0.232000
O181  O     O_3   0.321294 0.048922 0.544399 -0.556849
H267  H     H_    0.292583 0.084228 0.531876 0.395359
S28   S     S_3+6 0.617034 0.902910 0.437924 0.073927
O182  O     O_2   0.675747 0.948895 0.452586 -0.300386
O183  O     O_2   0.577337 0.861240 0.463031 -0.228529
O184  O     O_3   0.655918 0.842255 0.413397 -0.468520
H268  H     H_    0.694090 0.817411 0.425855 0.396632
S29   S     S_3+6 0.901251 0.375544 0.562837 0.075792
O185  O     O_2   0.849936 0.338405 0.585278 -0.224183
O186  O     O_2   0.856886 0.414283 0.538431 -0.236724
O187  O     O_3   0.954058 0.311948 0.545461 -0.548183
H269  H     H_    0.920332 0.283697 0.532041 0.410708
S30   S     S_3+6 0.100941 0.598933 0.440289 0.080023
O188  O     O_2   0.142010 0.553821 0.463735 -0.218734
O189  O     O_2   0.155295 0.636437 0.419303 -0.229596
O190  O     O_3   0.051297 0.662689 0.459164 -0.550837
H270  H     H_    0.087554 0.692287 0.470732 0.395054
S31   S     S_3+6 0.618308 0.902614 0.561494 0.085447
O191  O     O_2   0.654298 0.849345 0.583336 -0.198552
O192  O     O_2   0.577901 0.860147 0.536981 -0.230355
O193  O     O_3   0.682973 0.954183 0.544203 -0.546300
H271  H     H_    0.709647 0.920091 0.530240 0.412152
S32   S     S_3+6 0.383312 0.098157 0.438475 0.077337
O194  O     O_2   0.423556 0.140414 0.463100 -0.235541
O195  O     O_2   0.347457 0.151622 0.416674 -0.198043
O196  O     O_3   0.318571 0.046446 0.455629 -0.554772
H272  H     H_    0.289144 0.081259 0.468195 0.396542

loop_
_geom_bond_atom_site_label_1
_geom_bond_atom_site_label_2
_ccdc_geom_bond_type
C132  C144  A    
O33   Zn8   S    
C40   O48   A    
O69   C177  S    
O1    Zn5   S    
C64   C103  S    
S21   O162  D    
O126  H174  S    
S3    O91   D    
C187  C188  S    
S24   O172  S    
C52   C75   S    
C53   C69   S    
O175  H265  S    
C42   C58   S    
C229  C230  S    
C236  H244  S    
O154  H258  S    
O83   C205  S    
C158  H35   S    
C69   O65   S    
O22   Zn11  S    
C227  H222  S    
C56   C79   S    
O18   Zn3   S    
C43   O71   S    
O43   Zn3   S    
C224  H214  S    
O140  C223  S    
O78   C195  S    
O64   C167  S    
C203  H147  S    
O1    Zn12  S    
C156  H30   S    
O49   Zn9   S    
O187  H269  S    
C177  C178  S    
C33   O29   A    
S10   O112  D    
C194  H123  S    
S11   O117  S    
C223  H212  S    
C43   C91   S    
C182  H95   S    
C151  H17   S    
C199  C200  S    
C88   C104  S    
C147  H6    S    
C186  H103  S    
O111  H169  S    
C56   C72   S    
C233  C234  S    
C55   O83   S    
N4    N7    A    
C213  H187  S    
C236  H245  S    
C44   C92   S    
C170  H63   S    
C184  H98   S    
C180  H90   S    
C45   C61   S    
C188  H109  S    
C117  C133  A    
O55   C149  S    
C235  H243  S    
C82   C98   S    
C97   S9    S    
C149  C150  S    
O38   Zn6   S    
C153  C154  S    
C232  H235  S    
C124  C140  A    
C172  H68   S    
C66   C89   S    
C209  H178  S    
C178  H85   S    
C165  H52   S    
C50   C98   S    
S19   O155  D    
C84   C100  S    
C70   C93   S    
C5    C12   S    
C6    C11   S    
C12   C108  A    
C173  H71   S    
S20   O158  D    
C210  H181  S    
C185  H102  S    
C67   O63   S    
C219  C220  S    
C36   C86   S    
S17   O149  D    
O25   Zn16  S    
C39   O35   A    
C60   C76   S    
O5    Zn16  S    
C4    O8    A    
C38   C88   S    
C17   C142  S    
C206  H155  S    
C37   O33   A    
O80   C199  S    
C196  H128  S    
O53   C145  S    
O29   Zn4   S    
C66   C82   S    
C178  H84   S    
O12   Zn13  S    
C8    O20   A    
S23   O167  D    
C54   C70   S    
C212  H186  S    
O51   Zn11  S    
C169  C170  S    
O93   H163  S    
C48   C87   S    
S27   O180  D    
C214  H189  S    
O63   C165  S    
O42   Zn2   S    
C234  H241  S    
C95   S7    S    
C33   C83   S    
C202  H145  S    
C226  H219  S    
O105  H167  S    
C36   O52   A    
O146  C235  S    
C87   C103  S    
C26   O22   A    
S16   O130  D    
C46   C62   S    
C205  H152  S    
C71   C87   S    
O142  C227  S    
O40   Zn8   S    
C214  H191  S    
C189  H112  S    
S2    O88   D    
S18   O153  D    
C172  H70   S    
C131  C143  A    
C23   N4    A    
S17   O151  S    
C131  S27   S    
C107  O135  S    
O129  H175  S    
C199  H137  S    
C48   C96   S    
C159  C160  S    
C215  H192  S    
C204  H148  S    
O1    Zn16  S    
C192  H118  S    
C63   C104  S    
C173  C174  S    
O2    Zn2   S    
C60   C99   S    
C61   C102  S    
O34   Zn7   S    
O27   Zn10  S    
S25   O175  S    
C222  H209  S    
C207  C208  S    
C21   N2    A    
C74   C90   S    
S18   O154  S    
C53   C78   S    
C206  H153  S    
S19   O157  S    
C61   O57   S    
C18   N13   A    
O145  C233  S    
C159  H37   S    
C55   C80   S    
C171  C172  S    
C78   C94   S    
C216  H194  S    
C41   C82   S    
C67   C92   S    
C93   S5    S    
S22   O165  D    
C175  H76   S    
C27   O23   A    
C198  H134  S    
C49   C97   S    
C162  H43   S    
C127  S23   S    
O2    Zn11  S    
C231  H233  S    
C104  S16   S    
C240  H254  S    
C31   O27   A    
O57   C153  S    
O16   Zn1   S    
C103  S15   S    
C152  H19   S    
C190  H113  S    
O75   C189  S    
C181  C182  S    
C55   C71   S    
C224  H215  S    
O3    Zn7   S    
C41   C89   S    
C66   O62   S    
C49   O77   S    
O147  C237  S    
O50   Zn10  S    
O76   C191  S    
O8    Zn9   S    
C44   C83   S    
C45   C93   S    
S13   O123  S    
C188  H108  S    
C3    O7    A    
O133  C209  S    
C22   C137  S    
C125  S21   S    
C150  H13   S    
O61   C161  S    
C221  C222  S    
C27   O43   A    
C19   N16   A    
S24   O171  D    
C25   O41   A    
C16   C120  A    
C32   C74   S    
S14   O124  D    
C136  C144  A    
C215  H193  S    
C166  H54   S    
C9    C105  A    
C92   S4    S    
C123  C139  A    
C155  H27   S    
S4    O94   D    
C152  H18   S    
C121  C137  A    
N9    N14   A    
C225  H217  S    
O87   H161  S    
C226  H221  S    
C167  H57   S    
C34   O50   A    
C179  H86   S    
S16   O132  S    
O26   Zn15  S    
C61   C77   S    
O6    Zn15  S    
C164  H49   S    
C116  C132  A    
C201  H141  S    
C46   O74   S    
O30   Zn3   S    
N1    N6    A    
C235  C236  S    
C43   C59   S    
C54   C77   S    
S32   O195  D    
O28   Zn9   S    
C168  H60   S    
C135  C143  A    
O54   C147  S    
C237  H248  S    
C59   C100  S    
C238  H250  S    
C200  H139  S    
O20   Zn5   S    
C176  H79   S    
C42   C81   S    
C34   C84   S    
O32   Zn5   S    
S20   O160  S    
O4    Zn9   S    
C216  H195  S    
S31   O192  D    
C41   O69   S    
O166  H262  S    
C195  H127  S    
C222  H211  S    
C163  H47   S    
S5    O98   D    
C226  H220  S    
C209  H177  S    
C105  C121  A    
O15   Zn2   S    
C40   C82   S    
C23   C140  S    
C34   O30   A    
O39   Zn7   S    
C51   C76   S    
S14   O126  S    
C102  S14   S    
C171  H66   S    
S31   O193  S    
C229  H228  S    
C151  C152  S    
C212  H185  S    
C21   N6    A    
C52   C100  S    
C42   C90   S    
C225  C226  S    
C221  H208  S    
O7    Zn10  S    
O46   Zn14  S    
S1    O85   D    
C154  H24   S    
O120  H172  S    
C46   C94   S    
O11   Zn14  S    
C240  H256  S    
S32   O194  D    
C106  C122  A    
C201  C202  S    
C101  S13   S    
C160  H38   S    
C51   C67   S    
C190  H115  S    
C177  H82   S    
C132  S28   S    
C179  C180  S    
C194  H124  S    
O144  C231  S    
C221  H207  S    
C110  C126  A    
S8    O107  D    
S23   O168  D    
C42   O70   S    
C76   C92   S    
C168  H58   S    
C94   S6    S    
C193  H121  S    
C233  H238  S    
C10   C106  A    
C234  H240  S    
C123  S19   S    
S7    O103  D    
C86   C102  S    
C12   C112  A    
C220  H206  S    
C69   C85   S    
C58   C74   S    
O81   C201  S    
C121  S17   S    
O52   Zn12  S    
C234  H239  S    
C202  H143  S    
C119  O147  S    
S30   O188  D    
C150  H15   S    
C227  H223  S    
C4    O12   A    
C106  O134  S    
C105  O133  S    
C71   O67   S    
C37   O45   A    
C62   C78   S    
C18   C141  S    
C47   O75   S    
C205  C206  S    
O96   H164  S    
C8    O16   A    
C153  H21   S    
C158  H34   S    
O44   Zn4   S    
C29   O37   A    
S4    O96   S    
S29   O187  S    
C62   C101  S    
C45   C86   S    
C218  H199  S    
C96   S8    S    
C148  H10   S    
O141  C225  S    
O48   Zn16  S    
C11   C107  A    
C35   C85   S    
C203  C204  S    
O135  C213  S    
C204  H149  S    
C15   C119  A    
S3    O93   S    
C187  H107  S    
S11   O116  D    
C207  H156  S    
C130  C142  A    
S15   O129  S    
C223  H213  S    
C182  H94   S    
S25   O173  D    
C116  O144  S    
C217  H197  S    
C130  S26   S    
C193  C194  S    
C200  H138  S    
S9    O111  S    
S27   O179  D    
C157  H31   S    
C20   C143  S    
C118  O146  S    
C117  O145  S    
C184  H99   S    
O90   H162  S    
C165  C166  S    
O79   C197  S    
C48   O76   S    
O99   H165  S    
C228  H225  S    
C209  C210  S    
C64   O60   S    
C7    C10   S    
C191  H117  S    
C23   N8    A    
O2    Zn6   S    
C183  H96   S    
C20   N11   A    
C59   C75   S    
S10   O114  S    
C114  C130  A    
O184  H268  S    
C155  C156  S    
C107  C123  A    
C188  H110  S    
C239  H253  S    
C31   O39   A    
C232  H234  S    
S31   O191  D    
C176  H78   S    
O4    Zn4   S    
C67   C83   S    
C230  H230  S    
C147  C148  S    
C90   S2    S    
O117  H171  S    
O68   C175  S    
C192  H119  S    
O66   C171  S    
O24   Zn13  S    
S12   O118  D    
C108  C124  A    
C228  H224  S    
S1    O87   S    
C185  H101  S    
C47   C63   S    
C161  H41   S    
C217  H198  S    
C210  H180  S    
O9    Zn12  S    
C129  C141  A    
S9    O109  D    
S32   O196  S    
C208  H160  S    
O60   C159  S    
C238  H249  S    
O13   Zn8   S    
C197  H131  S    
C211  H183  S    
C122  S18   S    
C133  S29   S    
C149  H11   S    
O3    Zn3   S    
C160  H40   S    
C53   C101  S    
C51   O79   S    
C157  C158  S    
O143  C229  S    
C35   O31   A    
O45   Zn13  S    
C174  H74   S    
C58   O54   S    
C98   S10   S    
C2    O6    A    
C45   O73   S    
C211  C212  S    
C46   C85   S    
C53   O81   S    
S7    O105  S    
S16   O131  D    
O157  H259  S    
N11   N16   A    
C22   N5    A    
O160  H260  S    
C208  H158  S    
C36   O32   A    
O114  H170  S    
C6    O18   A    
C19   N12   A    
C64   C80   S    
C231  C232  S    
S2    O89   D    
C21   C138  S    
O37   Zn5   S    
C17   N10   A    
C16   C116  A    
O31   Zn6   S    
C172  H69   S    
C220  H204  S    
C147  H7    S    
C52   O80   S    
S17   O150  D    
C24   C139  S    
C9    C109  A    
C65   C90   S    
C30   O38   A    
C214  H190  S    
C11   C111  A    
C68   C84   S    
C122  C138  A    
C161  C162  S    
S20   O159  D    
C69   C94   S    
C148  H9    S    
O172  H264  S    
C114  O142  S    
C203  H146  S    
C63   O59   S    
C63   C79   S    
C71   C96   S    
C183  C184  S    
C125  C137  A    
O82   C203  S    
C24   N3    A    
C119  C135  A    
O132  H176  S    
C83   C99   S    
C197  C198  S    
C80   C96   S    
S15   O127  D    
S19   O156  D    
C79   C95   S    
O178  H266  S    
S13   O122  D    
C134  C142  A    
N2    N5    A    
C57   O53   S    
C3    O11   A    
C65   C81   S    
C29   C79   S    
O108  H168  S    
C200  H140  S    
C124  S20   S    
O190  H270  S    
C59   O55   S    
C162  H44   S    
C235  H242  S    
C175  H77   S    
C2    C15   S    
C239  C240  S    
C56   C104  S    
C3    C14   S    
C49   C65   S    
N10   N13   A    
C218  H201  S    
C113  O141  S    
C129  S25   S    
C228  H226  S    
C191  H116  S    
C206  H154  S    
O181  H267  S    
C72   O68   S    
C91   S3    S    
C176  H80   S    
C112  O140  S    
C230  H229  S    
O3    Zn10  S    
C165  H51   S    
S21   O163  S    
S6    O100  D    
C26   O42   A    
S22   O164  D    
C110  O138  S    
C136  S32   S    
S12   O120  S    
O62   C163  S    
C135  S31   S    
C198  H135  S    
C13   C117  A    
S28   O184  S    
C186  H105  S    
C6    O14   A    
C133  C141  A    
C227  C228  S    
C89   S1    S    
C152  H20   S    
C151  H16   S    
C73   C89   S    
C145  H1    S    
C32   O40   A    
C14   C114  A    
C70   O66   S    
S14   O125  D    
C170  H65   S    
C215  C216  S    
C222  H210  S    
C166  H53   S    
O56   C151  S    
C44   C60   S    
C57   C98   S    
C77   C93   S    
C60   O56   S    
S4    O95   D    
C10   C110  A    
S27   O181  S    
C109  O137  S    
O77   C193  S    
C128  C140  A    
O65   C169  S    
C225  H218  S    
C44   O72   S    
C112  C128  A    
C31   C73   S    
C62   O58   S    
O10   Zn11  S    
C38   O34   A    
C120  O148  S    
S1    O86   D    
C164  H48   S    
C146  H4    S    
C231  H232  S    
C160  H39   S    
C201  H142  S    
O14   Zn7   S    
O70   C179  S    
C120  C136  A    
S18   O152  D    
O74   C187  S    
S2    O90   S    
C155  H26   S    
C108  O136  S    
O193  H271  S    
S15   O128  D    
C199  H136  S    
C100  S12   S    
S21   O161  D    
S22   O166  S    
S7    O104  D    
C169  H62   S    
C54   O82   S    
C5    O13   A    
C185  C186  S    
O2    Zn15  S    
C198  H133  S    
C115  C131  A    
O148  C239  S    
S28   O182  D    
C186  H104  S    
C163  C164  S    
S5    O97   D    
C211  H182  S    
C113  C129  A    
C68   O64   S    
C30   O26   A    
C174  H75   S    
O123  H173  S    
C24   N7    A    
O72   C183  S    
S29   O185  D    
C159  H36   S    
C171  H67   S    
C191  C192  S    
C175  C176  S    
C57   C73   S    
C19   C144  S    
C55   C103  S    
C148  H8    S    
C68   C91   S    
O58   C155  S    
O151  H257  S    
C145  C146  S    
O102  H166  S    
C202  H144  S    
C4    C13   S    
C35   O51   A    
C239  H252  S    
C48   C64   S    
C208  H159  S    
C181  H91   S    
C173  H72   S    
C33   O49   A    
C29   O25   A    
S8    O106  D    
C240  H255  S    
C20   N15   A    
C7    O15   A    
S6    O101  D    
S11   O115  D    
C156  H29   S    
C192  H120  S    
C190  H114  S    
O3    Zn14  S    
C28   C78   S    
C154  H23   S    
S10   O113  D    
C52   C68   S    
C28   O24   A    
C224  H216  S    
C30   C80   S    
C196  H130  S    
C49   C74   S    
C54   C102  S    
O21   Zn12  S    
C193  H122  S    
C43   C84   S    
C72   C95   S    
O17   Zn4   S    
C177  H81   S    
C58   C97   S    
C127  C139  A    
C213  C214  S    
O23   Zn14  S    
C72   C88   S    
C25   O21   A    
C179  H87   S    
S30   O189  D    
C51   C99   S    
C149  H12   S    
C216  H196  S    
C150  H14   S    
C32   O28   A    
C28   O44   A    
S24   O170  D    
C39   C81   S    
O84   C207  S    
C50   C73   S    
C41   C57   S    
C1    C16   S    
O169  H263  S    
C8    C9    S    
C166  H55   S    
C153  H22   S    
C162  H45   S    
C115  O143  S    
S6    O102  S    
C168  H59   S    
C158  H33   S    
C189  C190  S    
O136  C215  S    
C169  H61   S    
C39   O47   A    
S29   O186  D    
C219  H203  S    
O137  C217  S    
C167  H56   S    
C146  H5    S    
C26   C76   S    
C195  C196  S    
C22   N1    A    
C1    O5    A    
C145  H2    S    
C164  H50   S    
O41   Zn1   S    
C236  H246  S    
S13   O121  D    
C170  H64   S    
C7    O19   A    
S3    O92   D    
C219  H202  S    
C207  H157  S    
C17   N14   A    
C50   C66   S    
C223  C224  S    
C5    O17   A    
C182  H93   S    
O4    Zn13  S    
C18   N9    A    
C167  C168  S    
C50   O78   S    
C109  C125  A    
C2    O10   A    
S26   O176  D    
S26   O177  D    
S9    O110  D    
O19   Zn6   S    
C111  C127  A    
C56   O84   S    
C238  H251  S    
C157  H32   S    
C218  H200  S    
C25   C75   S    
O196  H272  S    
C70   C86   S    
S28   O183  D    
O35   Zn2   S    
C85   C101  S    
C14   C118  A    
C180  H88   S    
C146  H3    S    
O47   Zn15  S    
C189  H111  S    
O1    Zn1   S    
C163  H46   S    
C126  C138  A    
S5    O99   S    
C183  H97   S    
C38   O46   A    
C237  H247  S    
C233  H237  S    
C99   S11   S    
C37   C87   S    
N12   N15   A    
C27   C77   S    
C118  C134  A    
C213  H188  S    
O138  C219  S    
C40   O36   A    
C229  H227  S    
C75   C91   S    
S26   O178  S    
C196  H129  S    
C178  H83   S    
C204  H150  S    
O139  C221  S    
C230  H231  S    
C47   C88   S    
C184  H100  S    
C217  C218  S    
S12   O119  D    
N3    N8    A    
C220  H205  S    
S25   O174  D    
O71   C181  S    
C161  H42   S    
O36   Zn1   S    
O4    Zn8   S    
C210  H179  S    
O73   C185  S    
C81   C97   S    
C126  S22   S    
S8    O108  S    
C1    O9    A    
C232  H236  S    
C194  H125  S    
C181  H92   S    
C134  S30   S    
C15   C115  A    
O134  C211  S    
C111  O139  S    
C154  H25   S    
C197  H132  S    
C205  H151  S    
C128  S24   S    
C65   O61   S    
S23   O169  S    
O163  H261  S    
C237  C238  S    
C212  H184  S    
C47   C95   S    
C187  H106  S    
C195  H126  S    
C180  H89   S    
C174  H73   S    
O59   C157  S    
S30   O190  S    
C13   C113  A    
O67   C173  S    
C156  H28   S    
