data_mof_unit_57598.cif
_audit_creation_date              2012-12-10T18:33:45-0500
_audit_creation_method            fapswitch 2.2
_symmetry_space_group_name_H-M    P1
_symmetry_Int_Tables_number       1
_space_group_crystal_system       triclinic
_cell_length_a                    10.515383
_cell_length_b                    15.01368
_cell_length_c                    15.452904
_cell_angle_alpha                 82.299035
_cell_angle_beta                  89.894975
_cell_angle_gamma                 104.625229
_cell_volume                      2337.66344561

loop_
_atom_site_label
_atom_site_type_symbol
_atom_type_description
_atom_site_fract_x
_atom_site_fract_y
_atom_site_fract_z
_atom_type_partial_charge
C1    C     C_R   0.484666 0.442003 0.662236 0.907755
C2    C     C_R   0.593948 0.489879 0.044191 0.102154
C3    C     C_R   0.585467 0.395277 0.074694 -0.258007
C4    C     C_R   0.638047 0.614985 0.922138 -0.259332
C5    C     C_R   0.565775 0.329421 0.017526 -0.171241
C6    C     C_R   0.655530 0.680801 0.979184 -0.165655
C7    C     C_R   0.691658 0.841804 0.639693 -0.308524
C8    C     C_R   0.307345 0.157874 0.360995 -0.308458
C9    C     C_R   0.660616 0.753049 0.616367 0.018070
C10   C     C_R   0.338764 0.246745 0.384034 0.016477
C11   C     C_R   0.515336 0.794006 0.509801 -0.046052
C12   C     C_R   0.521957 0.558162 0.337753 0.896197
C13   C     C_R   0.484807 0.206048 0.490167 -0.046943
C14   C     C_R   0.542262 0.885556 0.530413 -0.003500
C15   C     C_R   0.457292 0.114323 0.469965 -0.003207
C16   C     C_R   0.742432 0.500939 0.500383 0.928328
C17   C     C_R   0.257550 0.499070 0.499591 0.932521
C18   C     C_R   0.632793 0.908438 0.596920 0.177611
C19   C     C_R   0.366347 0.091306 0.403715 0.175275
C20   C     C_R   0.483054 0.954322 0.487861 0.081194
C21   C     C_R   0.516291 0.045505 0.512666 0.081522
C22   C     C_R   0.607176 0.064795 0.579256 -0.233063
C23   C     C_R   0.530105 0.474277 0.811357 -0.256821
C24   C     C_R   0.391739 0.934912 0.421536 -0.231721
C25   C     C_R   0.663946 0.997405 0.620381 -0.198271
C26   C     C_R   0.334812 0.002242 0.380503 -0.199479
C27   C     C_3   0.931600 0.430134 0.560249 -0.310342
C28   C     C_3   0.068303 0.569890 0.439676 -0.310868
C29   C     C_3   0.046334 0.511109 0.577592 0.507187
C30   C     C_3   0.953556 0.488916 0.422332 0.507146
C31   C     C_3   0.122113 0.497803 0.498551 -0.077893
C32   C     C_3   0.877818 0.502220 0.501382 -0.075393
C33   C     C_3   0.008661 0.416512 0.479246 -0.263691
C34   C     C_R   0.555267 0.528698 0.188633 -0.234222
C35   C     C_3   0.991241 0.583508 0.520677 -0.262551
C36   C     C_R   0.497386 0.408457 0.754330 -0.094938
C37   C     C_R   0.554836 0.593198 0.245365 -0.092727
C38   C     C_R   0.514194 0.287257 0.871968 0.452237
C39   C     C_R   0.630657 0.719131 0.125797 0.452531
C40   C     C_R   0.490527 0.315033 0.784107 -0.318949
C41   C     C_R   0.594341 0.688402 0.214537 -0.312403
C42   C     C_R   0.562022 0.450276 0.897158 0.011569
C43   C     C_R   0.595744 0.556538 0.101210 0.015492
C44   C     C_R   0.547974 0.355042 0.928950 0.118229
C45   C     C_R   0.628512 0.652838 0.068673 0.116110
C46   C     C_R   0.598572 0.518753 0.953450 0.105321
H1    H     H_    0.552151 0.230727 0.539112 0.124435
H2    H     H_    0.126909 0.624951 0.389535 0.156940
H3    H     H_    0.019115 0.349731 0.460654 0.168631
H4    H     H_    0.980759 0.650281 0.539272 0.168678
H5    H     H_    0.559174 0.257725 0.043814 0.204812
H6    H     H_    0.684548 0.753718 0.952250 0.201829
H7    H     H_    0.518669 0.455910 0.213032 0.172034
H8    H     H_    0.526958 0.544702 0.788361 0.179093
H9    H     H_    0.596057 0.738591 0.259060 0.158253
H10   H     H_    0.467168 0.264007 0.739329 0.157506
H11   H     H_    0.597071 0.370800 0.142444 0.165156
H12   H     H_    0.448572 0.769498 0.460504 0.124689
H13   H     H_    0.658933 0.641104 0.853643 0.146821
H14   H     H_    0.733074 0.015219 0.671168 0.151742
H15   H     H_    0.265273 0.984307 0.329968 0.150972
H16   H     H_    0.029769 0.529432 0.696957 0.326597
H17   H     H_    0.969850 0.470604 0.302926 0.325429
H18   H     H_    0.480192 0.157254 0.854992 0.337028
H19   H     H_    0.662270 0.849223 0.142060 0.337425
H20   H     H_    0.294020 0.299007 0.351577 0.131414
H21   H     H_    0.705092 0.700699 0.648971 0.126237
H22   H     H_    0.760829 0.858187 0.690711 0.147901
H23   H     H_    0.237693 0.141325 0.310279 0.150905
H24   H     H_    0.637064 0.131537 0.601682 0.138801
H25   H     H_    0.361377 0.868055 0.399389 0.139222
H26   H     H_    0.872936 0.375103 0.610397 0.158353
N1    N     N_R   0.574200 0.731700 0.552740 -0.099216
N2    N     N_R   0.425800 0.268300 0.447260 -0.100384
O1    O     O_R   0.462600 0.383110 0.605620 -0.625118
O2    O     O_3   0.898195 0.477736 0.341048 -0.757126
O3    O     O_3   0.504637 0.195043 0.903216 -0.778422
O4    O     O_3   0.666538 0.812784 0.093621 -0.778199
O5    O     O_R   0.537400 0.616890 0.394380 -0.625924
O6    O     O_R   0.510210 0.531900 0.639510 -0.618447
O7    O     O_R   0.489790 0.468100 0.360490 -0.621036
O8    O     O_R   0.662240 0.425610 0.483080 -0.596618
O9    O     O_R   0.337760 0.574390 0.516920 -0.593864
O10   O     O_R   0.709860 0.574400 0.516970 -0.638572
O11   O     O_R   0.290140 0.425600 0.483030 -0.636562
O12   O     O_3   0.101527 0.522318 0.658910 -0.754030
Zn1   Zn    Zn3+2 0.468210 0.400660 0.477370 0.956061
Zn2   Zn    Zn3+2 0.531790 0.599340 0.522630 0.957874

loop_
_geom_bond_atom_site_label_1
_geom_bond_atom_site_label_2
_ccdc_geom_bond_type
C30   C32   S    
C6    C45   A    
C27   C29   S    
C34   C37   A    
H18   O3    S    
C14   C18   A    
C39   C41   A    
C4    C46   A    
C27   C33   S    
C15   C19   A    
H16   O12   S    
C8    H23   S    
C23   C42   A    
C9    N1    A    
C17   O11   A    
C26   H15   S    
C24   C26   A    
C11   C14   A    
H17   O2    S    
C33   H3    S    
O8    Zn1   S    
C12   O5    A    
C16   O10   A    
C42   C46   A    
C12   C37   S    
C19   C26   A    
C41   H9    S    
C7    H22   S    
C20   C24   A    
C28   C35   S    
C40   H10   S    
C22   C25   A    
C31   C33   S    
C25   H14   S    
N2    Zn1   S    
C11   H12   S    
C39   C45   A    
O11   Zn1   S    
O9    Zn2   S    
C21   C22   A    
C18   C25   A    
C42   C44   A    
O5    Zn2   S    
C10   H20   S    
C8    C19   A    
C1    O1    A    
C32   C35   S    
C14   C20   A    
C36   C40   A    
C4    C6    A    
C11   N1    A    
C13   H1    S    
C2    C46   A    
C17   O9    A    
C9    H21   S    
N1    Zn2   S    
C38   C44   A    
C30   O2    S    
C2    C43   A    
C29   C31   S    
C7    C18   A    
C35   H4    S    
C16   O8    A    
C13   N2    A    
C43   C45   A    
C29   O12   S    
O7    Zn1   S    
C3    H11   S    
O1    Zn1   S    
C5    C44   A    
C13   C15   A    
C17   C31   S    
C23   H8    S    
C7    C9    A    
C28   H2    S    
H19   O4    S    
C30   C33   S    
C27   C32   S    
C28   C31   S    
C34   C43   A    
O10   Zn2   S    
C3    C5    A    
C38   O3    S    
C16   C32   S    
C29   C35   S    
C28   C30   S    
C2    C3    A    
O6    Zn2   S    
C38   C40   A    
C10   N2    A    
C4    H13   S    
C12   O7    A    
C37   C41   A    
C15   C21   A    
C20   C21   A    
C24   H25   S    
C34   H7    S    
C8    C10   A    
C23   C36   A    
C1    O6    A    
C5    H5    S    
C6    H6    S    
C39   O4    S    
C22   H24   S    
C27   H26   S    
C1    C36   S    
