data_mof_unit_10239.cif
_audit_creation_date              2012-10-26T21:03:33-0400
_audit_creation_method            fapswitch 2.2
_symmetry_space_group_name_H-M    P1
_symmetry_Int_Tables_number       1
_space_group_crystal_system       triclinic
_cell_length_a                    15.994207
_cell_length_b                    14.741518
_cell_length_c                    10.719639
_cell_angle_alpha                 90.053558
_cell_angle_beta                  90.764033
_cell_angle_gamma                 89.88624
_cell_volume                      2527.23385202

loop_
_atom_site_label
_atom_site_type_symbol
_atom_type_description
_atom_site_fract_x
_atom_site_fract_y
_atom_site_fract_z
_atom_type_partial_charge
C1    C     C_R   0.340842 0.500060 0.500973 0.531965
C2    C     C_R   0.436558 0.951459 0.431719 0.016089
C3    C     C_R   0.501490 0.902919 0.494705 -0.016208
C4    C     C_R   0.434915 0.048810 0.436019 0.023645
C5    C     C_R   0.562746 0.047953 0.566397 0.018018
C6    C     C_R   0.498797 0.096806 0.501816 -0.010155
C7    C     C_1   0.500541 0.802516 0.497990 0.089149
C8    C     C_1   0.499701 0.197383 0.500587 0.099228
C9    C     C_R   0.510722 0.499631 0.261738 0.538164
C10   C     C_R   0.489651 0.499800 0.738429 0.538043
C11   C     C_R   0.564232 0.660410 0.096776 0.054601
C12   C     C_R   0.659108 0.499985 0.499595 0.532250
C13   C     C_R   0.441649 0.662452 0.903920 0.055444
C14   C     C_R   0.539507 0.744599 0.041643 0.043233
C15   C     C_R   0.469458 0.745900 0.957775 0.044420
C16   C     C_R   0.481337 0.580844 0.942488 -0.014089
C17   C     C_R   0.522306 0.580234 0.058093 -0.013411
C18   C     C_R   0.524381 0.497986 0.125581 -0.018421
C19   C     C_R   0.477015 0.498574 0.874860 -0.018954
C20   C     C_R   0.517547 0.414484 0.060703 0.005269
C21   C     C_R   0.482634 0.414887 0.939473 0.005533
C22   C     C_R   0.956366 0.584929 0.496199 0.228917
C23   C     C_R   0.955829 0.419226 0.495956 0.220081
C24   C     C_R   0.043900 0.584099 0.505804 0.235694
C25   C     C_R   0.912488 0.502148 0.494819 -0.054996
C26   C     C_R   0.087191 0.501107 0.506402 -0.050375
C27   C     C_3   0.557195 0.327519 0.112698 -0.255719
C28   C     C_3   0.647175 0.342398 0.158966 -0.427046
C29   C     C_3   0.441787 0.328737 0.887251 -0.256086
C30   C     C_3   0.351944 0.345378 0.841380 -0.427828
C31   C     C_3   0.646099 0.651535 0.171233 -0.262685
C32   C     C_3   0.717644 0.624985 0.085553 -0.461064
C33   C     C_3   0.358614 0.656296 0.832121 -0.258291
C34   C     C_R   0.043434 0.418721 0.506950 0.217420
C35   C     C_3   0.287414 0.634831 0.920820 -0.460445
C36   C     C_3   0.589342 0.830904 0.067265 -0.282509
C37   C     C_3   0.567926 0.873817 0.192397 -0.443780
C38   C     C_3   0.422837 0.834327 0.931161 -0.282730
C39   C     C_3   0.445678 0.875263 0.805522 -0.441669
C40   C     C_3   0.095449 0.691626 0.636869 0.010806
C41   C     C_3   0.160667 0.766076 0.647991 -0.388945
C42   C     C_3   0.881663 0.685090 0.374042 0.007536
C43   C     C_3   0.899209 0.783196 0.339445 -0.368631
C44   C     C_3   0.908633 0.308272 0.366698 0.010052
C45   C     C_1   0.822914 0.501493 0.495808 0.007489
C46   C     C_3   0.845133 0.232118 0.355098 -0.386389
C47   C     C_3   0.086666 0.309875 0.642306 0.009737
C48   C     C_3   0.147104 0.231159 0.659667 -0.388440
C49   C     C_3   0.625123 0.100694 0.647169 -0.269008
C50   C     C_3   0.704693 0.121850 0.576058 -0.429008
C51   C     C_3   0.365327 0.103618 0.372034 -0.267181
C52   C     C_3   0.305281 0.144720 0.466606 -0.432603
C53   C     C_3   0.640319 0.896752 0.611414 -0.270005
C54   C     C_3   0.696793 0.860053 0.508847 -0.433019
C55   C     C_3   0.370452 0.897844 0.358455 -0.269768
C56   C     C_1   0.176872 0.500558 0.506054 0.023501
C57   C     C_3   0.290240 0.887307 0.432304 -0.433190
C58   C     C_1   0.251849 0.500269 0.504036 -0.020018
C59   C     C_1   0.748000 0.500404 0.497459 -0.028504
C60   C     C_R   0.566675 0.950986 0.557082 0.020517
Cu1   Cu    Cu3+1 0.500000 0.589220 0.500000 0.949416
Cu2   Cu    Cu3+1 0.500000 0.410780 0.500000 0.941022
H1    H     H_    0.685564 0.371080 0.082980 0.138944
H2    H     H_    0.436209 0.276203 0.960696 0.120905
H3    H     H_    0.705180 0.557734 0.042359 0.156357
H4    H     H_    0.725347 0.676096 0.010615 0.154421
H5    H     H_    0.776856 0.620590 0.140446 0.118198
H6    H     H_    0.663004 0.714558 0.221513 0.136121
H7    H     H_    0.642670 0.599335 0.244741 0.157080
H8    H     H_    0.297978 0.567801 0.965719 0.155721
H9    H     H_    0.282679 0.687568 0.994390 0.153047
H10   H     H_    0.227357 0.632368 0.867899 0.126227
H11   H     H_    0.343529 0.719209 0.780454 0.138740
H12   H     H_    0.649860 0.388871 0.240235 0.167097
H13   H     H_    0.359010 0.602561 0.760250 0.158433
H14   H     H_    0.505788 0.906827 0.187273 0.142237
H15   H     H_    0.567299 0.822228 0.267151 0.162186
H16   H     H_    0.614996 0.926352 0.217021 0.136591
H17   H     H_    0.657366 0.816627 0.064028 0.135471
H18   H     H_    0.579349 0.882158 0.993176 0.137535
H19   H     H_    0.511315 0.898956 0.807099 0.141547
H20   H     H_    0.437719 0.825060 0.729634 0.163269
H21   H     H_    0.404619 0.934390 0.785142 0.135863
H22   H     H_    0.354324 0.823627 0.934782 0.134676
H23   H     H_    0.674839 0.276450 0.188036 0.125037
H24   H     H_    0.435012 0.885570 0.004615 0.137030
H25   H     H_    0.116222 0.634499 0.698224 0.101187
H26   H     H_    0.034730 0.718399 0.670787 0.166973
H27   H     H_    0.141850 0.825151 0.589770 0.157233
H28   H     H_    0.166931 0.788234 0.746716 0.088390
H29   H     H_    0.222025 0.739917 0.616456 0.156844
H30   H     H_    0.812827 0.675135 0.375315 0.135786
H31   H     H_    0.907795 0.641096 0.298938 0.107537
H32   H     H_    0.967722 0.794014 0.333047 0.174096
H33   H     H_    0.869449 0.799103 0.247829 0.083148
H34   H     H_    0.518545 0.297495 0.187126 0.171650
H35   H     H_    0.873717 0.829678 0.411053 0.149576
H36   H     H_    0.970800 0.281924 0.338252 0.166422
H37   H     H_    0.888638 0.363392 0.301381 0.107668
H38   H     H_    0.782169 0.258156 0.379019 0.155815
H39   H     H_    0.843340 0.206209 0.257800 0.085893
H40   H     H_    0.862327 0.175674 0.419088 0.157962
H41   H     H_    0.023179 0.286901 0.669295 0.169718
H42   H     H_    0.107365 0.365556 0.706201 0.107359
H43   H     H_    0.211496 0.253931 0.638873 0.152343
H44   H     H_    0.145509 0.206925 0.757654 0.087665
H45   H     H_    0.562204 0.274931 0.039054 0.120691
H46   H     H_    0.129550 0.174411 0.596391 0.157589
H47   H     H_    0.739074 0.058853 0.552935 0.145086
H48   H     H_    0.688748 0.158471 0.488475 0.154865
H49   H     H_    0.746217 0.165514 0.634135 0.151920
H50   H     H_    0.597930 0.165773 0.679585 0.143978
H51   H     H_    0.639490 0.065031 0.735847 0.118547
H52   H     H_    0.282307 0.092060 0.531540 0.138613
H53   H     H_    0.335898 0.199010 0.522137 0.165158
H54   H     H_    0.250828 0.175099 0.416551 0.153800
H55   H     H_    0.393020 0.158659 0.315201 0.137985
H56   H     H_    0.314136 0.375138 0.917440 0.139996
H57   H     H_    0.327384 0.063829 0.305183 0.135645
H58   H     H_    0.718090 0.915916 0.447671 0.137758
H59   H     H_    0.752413 0.827021 0.552245 0.153402
H60   H     H_    0.664111 0.808618 0.450757 0.156629
H61   H     H_    0.617048 0.839238 0.668030 0.147657
H62   H     H_    0.680486 0.936126 0.675845 0.135528
H63   H     H_    0.305078 0.863029 0.528122 0.148666
H64   H     H_    0.255961 0.952446 0.437733 0.146640
H65   H     H_    0.248810 0.837020 0.385437 0.154359
H66   H     H_    0.357575 0.927864 0.265483 0.115514
H67   H     H_    0.349748 0.391600 0.759934 0.166324
H68   H     H_    0.392877 0.828861 0.334399 0.156265
H69   H     H_    0.323302 0.279918 0.812706 0.123629
H70   H     H_    0.479923 0.297977 0.812590 0.170173
N1    N     N_1   0.500000 0.276710 0.500000 -0.209481
N2    N     N_1   0.500000 0.723290 0.500000 -0.204829
O1    O     O_R   0.380310 0.575320 0.500020 -0.493718
O2    O     O_3   0.914904 0.667506 0.494801 -0.543092
O3    O     O_3   0.912067 0.338463 0.491751 -0.545774
O4    O     O_3   0.086605 0.337583 0.516121 -0.546482
O5    O     O_R   0.619690 0.575320 0.499980 -0.498377
O6    O     O_R   0.380310 0.424640 0.499960 -0.492841
O7    O     O_R   0.619690 0.424640 0.500040 -0.488721
O8    O     O_R   0.500000 0.575360 0.319640 -0.491812
O9    O     O_R   0.500000 0.575360 0.680360 -0.490129
O10   O     O_R   0.500000 0.424670 0.319580 -0.495111
O11   O     O_R   0.500000 0.424670 0.680420 -0.495976
O12   O     O_3   0.087575 0.664886 0.510631 -0.532144

loop_
_geom_bond_atom_site_label_1
_geom_bond_atom_site_label_2
_ccdc_geom_bond_type
C41   H27   S    
C44   O3    S    
C54   H58   S    
C42   H31   S    
C49   H51   S    
C28   H12   S    
C48   H46   S    
C53   C54   S    
C46   H40   S    
C38   H24   S    
C40   H25   S    
C36   C37   S    
C19   C21   A    
C24   C26   A    
C3    C7    S    
C2    C55   S    
C57   H63   S    
C38   C39   S    
C44   H37   S    
C29   H70   S    
C30   H69   S    
C50   H48   S    
C43   H32   S    
C12   O7    A    
C22   C25   A    
C42   O2    S    
C51   H55   S    
C12   C59   S    
C44   H36   S    
Cu1   O9    S    
C48   H44   S    
C47   C48   S    
C35   H8    S    
C44   C46   S    
C16   C17   A    
Cu2   O11   S    
C43   H33   S    
C42   H30   S    
C3    C60   A    
C23   C34   A    
C41   H28   S    
C54   H60   S    
C29   H2    S    
C11   C31   S    
C48   H43   S    
C5    C49   S    
C27   H34   S    
C9    O10   A    
C26   C34   A    
Cu1   N2    S    
C52   H54   S    
C31   H6    S    
C46   H39   S    
C47   H41   S    
C4    C51   S    
C51   C52   S    
C39   H19   S    
C7    N2    T    
C4    C6    A    
C36   H18   S    
C57   H64   S    
Cu1   O5    S    
C6    C8    S    
C30   H56   S    
C21   C29   S    
C34   O4    S    
C50   H47   S    
C22   O2    S    
C2    C4    A    
C15   C38   S    
C13   C33   S    
C29   C30   S    
C9    C18   S    
C51   H57   S    
C31   C32   S    
C13   C15   A    
C27   H45   S    
C10   C19   S    
C55   H68   S    
C53   C60   S    
C17   C18   A    
C12   O5    A    
C11   C14   A    
C55   H66   S    
C1    O6    A    
C36   H17   S    
C32   H5    S    
C33   H11   S    
C40   C41   S    
C41   H29   S    
C54   H59   S    
C35   H10   S    
C49   H50   S    
C53   H61   S    
C22   C24   A    
C33   H13   S    
C42   C43   S    
Cu2   O7    S    
C25   C45   S    
C28   H23   S    
Cu1   O1    S    
C32   H4    S    
C52   H53   S    
C46   H38   S    
C11   C17   A    
C47   H42   S    
C5    C60   A    
C38   H22   S    
C8    N1    T    
C37   H14   S    
C43   H35   S    
C39   H20   S    
Cu2   O10   S    
C53   H62   S    
C26   C56   S    
C57   H65   S    
C9    O8    A    
C20   C27   S    
C52   H52   S    
C30   H67   S    
C37   H16   S    
C40   O12   S    
C40   H26   S    
C55   C57   S    
C2    C3    A    
C39   H21   S    
C24   O12   S    
C1    C58   S    
C14   C36   S    
C5    C6    A    
C37   H15   S    
C16   C19   A    
C23   O3    S    
C47   O4    S    
C50   H49   S    
C33   C35   S    
C56   C58   T    
C18   C20   A    
C10   O9    A    
C23   C25   A    
Cu1   Cu2   S    
C10   O11   A    
C35   H9    S    
C28   H1    S    
Cu1   O8    S    
C31   H7    S    
C20   C21   A    
C45   C59   T    
C49   C50   S    
C13   C16   A    
C27   C28   S    
C14   C15   A    
Cu2   O6    S    
C1    O1    A    
Cu2   N1    S    
C32   H3    S    
