data_mof_unit_11669.cif
_audit_creation_date              2012-12-11T15:36:58-0500
_audit_creation_method            fapswitch 2.2
_symmetry_space_group_name_H-M    P1
_symmetry_Int_Tables_number       1
_space_group_crystal_system       triclinic
_cell_length_a                    15.064103
_cell_length_b                    15.036506
_cell_length_c                    34.736555
_cell_angle_alpha                 90.854107
_cell_angle_beta                  91.583336
_cell_angle_gamma                 60.07621
_cell_volume                      6816.70301733

loop_
_atom_site_label
_atom_site_type_symbol
_atom_type_description
_atom_site_fract_x
_atom_site_fract_y
_atom_site_fract_z
_atom_type_partial_charge
C1    C     C_R   0.611128 0.301714 0.444160 0.547004
C2    C     C_R   0.599634 0.091372 0.763104 -0.106933
C3    C     C_R   0.082896 0.770176 0.883295 -0.124051
C4    C     C_R   0.103894 0.761150 0.844202 -0.125752
C5    C     C_R   0.101626 0.683193 0.822235 0.032252
C6    C     C_R   0.084492 0.610557 0.840418 -0.110005
C7    C     C_R   0.064426 0.618995 0.879538 -0.128133
C8    C     C_R   0.168585 0.586219 0.761192 -0.080570
C9    C     C_R   0.176565 0.583266 0.721394 -0.072490
C10   C     C_R   0.128623 0.674430 0.699935 0.043770
C11   C     C_R   0.071401 0.768660 0.718734 -0.088354
C12   C     C_R   0.062653 0.771603 0.758619 -0.079845
C13   C     C_R   0.595851 0.167426 0.788221 0.027621
C14   C     C_R   0.659793 0.761535 0.166635 -0.105894
C15   C     C_R   0.111941 0.680384 0.780172 0.048997
C16   C     C_R   0.184398 0.731183 0.643317 -0.124829
C17   C     C_R   0.226557 0.709954 0.606850 -0.127477
C18   C     C_R   0.186133 0.573309 0.599216 -0.126711
C19   C     C_R   0.144029 0.594600 0.635612 -0.121228
C20   C     C_R   0.147552 0.670233 0.658574 0.022180
C21   C     C_R   0.232340 0.627431 0.585382 0.021906
C22   C     C_R   0.672839 0.079303 0.906024 0.021034
C23   C     C_R   0.597306 0.065055 0.887009 -0.127322
C24   C     C_R   0.550739 0.189131 0.639924 -0.115848
C25   C     C_R   0.567242 0.098960 0.849169 -0.120909
C26   C     C_3   0.506085 0.796296 0.089257 -0.290583
C27   C     C_3   0.207844 0.525531 0.092320 -0.282133
C28   C     C_3   0.960973 0.489027 0.397739 -0.318584
C29   C     C_3   0.381996 0.258667 0.382644 -0.313900
C30   C     C_R   0.838067 0.630256 0.162990 -0.140685
C31   C     C_R   0.552177 0.215291 0.601669 -0.122647
C32   C     C_R   0.695874 0.241007 0.617010 -0.126721
C33   C     C_R   0.693489 0.216175 0.655254 -0.121373
C34   C     C_R   0.618343 0.194181 0.667182 0.030220
C35   C     C_R   0.621993 0.245692 0.590300 0.022357
C36   C     C_R   0.000148 0.757896 0.054271 0.568610
C37   C     C_R   0.752244 0.691925 0.185083 0.005167
C38   C     C_R   0.747458 0.746437 0.064338 0.540942
C39   C     C_R   0.750829 0.040727 0.050585 0.529789
C40   C     C_R   0.016350 0.722823 0.939513 0.551911
C41   C     C_R   0.717361 0.730217 0.954824 0.539126
C42   C     C_R   0.833290 0.642920 0.123130 -0.163562
C43   C     C_R   0.721366 0.024705 0.942077 0.544260
C44   C     C_R   0.793543 0.587746 0.244999 -0.122634
C45   C     C_R   0.783863 0.581801 0.284590 -0.114921
C46   C     C_R   0.739386 0.671281 0.307233 0.019213
C47   C     C_R   0.709185 0.766241 0.289921 -0.124661
C48   C     C_R   0.611712 0.148218 0.830063 0.032018
C49   C     C_R   0.717739 0.772300 0.250284 -0.120607
C50   C     C_R   0.757167 0.683435 0.227410 0.022256
C51   C     C_R   0.607537 0.729344 0.356880 -0.147495
C52   C     C_R   0.593400 0.610651 0.449388 0.544575
C53   C     C_R   0.570887 0.714867 0.391127 -0.140670
C54   C     C_R   0.740935 0.577164 0.408180 -0.092678
C55   C     C_R   0.780398 0.593455 0.374202 0.156779
C56   C     C_R   0.710713 0.666757 0.347291 0.032870
C57   C     C_R   0.636162 0.636026 0.416302 -0.010376
C58   C     C_R   0.025239 0.760360 0.095885 0.032832
C59   C     C_R   0.681468 0.169012 0.850212 -0.117045
C60   C     C_R   0.062789 0.672099 0.119695 0.134237
C61   C     C_R   0.061879 0.683001 0.159768 -0.107998
C62   C     C_R   0.029077 0.778800 0.176944 0.006903
C63   C     C_R   0.999226 0.864695 0.153546 -0.133303
C64   C     C_R   0.302436 0.592568 0.442623 0.544201
C65   C     C_R   0.996427 0.855594 0.113429 -0.167172
C66   C     C_R   0.091347 0.823951 0.237271 -0.120189
C67   C     C_R   0.115899 0.807713 0.276577 -0.117368
C68   C     C_R   0.081805 0.753261 0.298703 0.028382
C69   C     C_R   0.015681 0.722961 0.281263 -0.115698
C70   C     C_R   0.711748 0.134851 0.887817 -0.124878
C71   C     C_R   0.992285 0.738113 0.241892 -0.115981
C72   C     C_R   0.033322 0.785069 0.219354 0.024712
C73   C     C_R   0.152682 0.618080 0.350141 -0.122005
C74   C     C_R   0.206840 0.578694 0.384810 -0.128316
C75   C     C_R   0.203577 0.739145 0.397116 -0.129600
C76   C     C_R   0.605926 0.299682 0.553571 0.538577
C77   C     C_R   0.148709 0.778831 0.362593 -0.121631
C78   C     C_R   0.125050 0.717840 0.338153 0.034252
C79   C     C_R   0.235324 0.637822 0.408148 0.020843
C80   C     C_R   0.722348 0.099689 0.086764 0.021981
C81   C     C_R   0.590297 0.255887 0.772843 -0.119069
C82   C     C_R   0.792245 0.121030 0.106514 -0.136420
C83   C     C_R   0.778539 0.148753 0.145318 -0.126581
C84   C     C_R   0.693557 0.157896 0.164465 0.032186
C85   C     C_R   0.618296 0.147406 0.143628 -0.121322
C86   C     C_R   0.632559 0.118496 0.105084 -0.122418
C87   C     C_R   0.594909 0.236659 0.223819 -0.118683
C88   C     C_R   0.588245 0.606762 0.558817 0.542759
C89   C     C_R   0.587507 0.240736 0.263724 -0.115793
C90   C     C_R   0.672673 0.175933 0.287102 0.028164
C91   C     C_R   0.765637 0.107234 0.269888 -0.114294
C92   C     C_R   0.595453 0.265034 0.733302 -0.116664
C93   C     C_R   0.773097 0.103389 0.229922 -0.112825
C94   C     C_R   0.687719 0.168096 0.206628 0.028599
C95   C     C_R   0.742211 0.190754 0.351081 -0.132995
C96   C     C_R   0.727134 0.219304 0.389575 -0.153178
C97   C     C_R   0.560404 0.229192 0.386571 0.140712
C98   C     C_R   0.577171 0.200190 0.347516 -0.092884
C99   C     C_R   0.665326 0.185892 0.329339 0.000291
C100  C     C_R   0.297087 0.589478 0.551444 0.542830
C101  C     C_R   0.634378 0.244644 0.407197 0.024515
C102  C     C_R   0.693661 0.691658 0.918947 0.019908
C103  C     C_R   0.604923 0.186547 0.708461 0.024999
C104  C     C_R   0.771423 0.603491 0.901142 -0.126621
C105  C     C_R   0.761967 0.584072 0.862343 -0.123214
C106  C     C_R   0.674224 0.651713 0.840852 0.035133
C107  C     C_R   0.591946 0.733413 0.859596 -0.116518
C108  C     C_R   0.601560 0.753298 0.898399 -0.129352
C109  C     C_R   0.586491 0.656760 0.778222 -0.136576
C110  C     C_R   0.584005 0.656838 0.738145 -0.176764
C111  C     C_R   0.667810 0.645868 0.717532 0.008027
C112  C     C_R   0.742541 0.717182 0.104516 0.039510
C113  C     C_R   0.755508 0.634923 0.737652 0.283565
C114  C     C_R   0.603547 0.101220 0.723378 -0.108813
C115  C     C_R   0.757662 0.633355 0.777999 -0.096008
C116  C     C_R   0.673409 0.644662 0.798456 -0.021952
C117  C     C_R   0.723924 0.551433 0.655533 -0.064846
C118  C     C_R   0.705414 0.542431 0.616514 -0.129321
C119  C     C_R   0.564337 0.717864 0.616211 -0.127193
C120  C     C_R   0.583266 0.726834 0.655192 -0.097555
C121  C     C_R   0.661266 0.642765 0.675261 0.088253
C122  C     C_R   0.622843 0.624297 0.596854 0.016605
C123  C     C_R   0.059968 0.700949 0.900984 0.022584
C124  C     C_R   0.653265 0.773466 0.126550 0.141830
Cr1   Cr    Cr6+3 0.426010 0.422500 0.497000 1.018958
Cr2   Cr    Cr6+3 0.651300 0.426310 0.501970 1.009255
Cr3   Cr    Cr6+3 0.422670 0.651170 0.501050 1.009868
Cr4   Cr    Cr6+3 0.905130 0.911420 0.992650 1.004563
Cr5   Cr    Cr6+3 0.911860 0.682710 0.002320 1.012509
Cr6   Cr    Cr6+3 0.682710 0.906840 0.004710 1.012880
H1    H     H_    0.489909 0.761511 0.396734 0.133653
H2    H     H_    0.902381 0.597807 0.107098 0.144340
H3    H     H_    0.946299 0.708591 0.228598 0.118794
H4    H     H_    0.137065 0.568284 0.331875 0.096980
H5    H     H_    0.229813 0.500515 0.392560 0.126550
H6    H     H_    0.975614 0.939108 0.166317 0.107053
H7    H     H_    0.223208 0.787168 0.414723 0.121045
H8    H     H_    0.861177 0.109047 0.092908 0.119493
H9    H     H_    0.576603 0.103921 0.090478 0.129005
H10   H     H_    0.521065 0.190684 0.330631 0.102294
H11   H     H_    0.515630 0.296024 0.276351 0.103236
H12   H     H_    0.909891 0.575197 0.176734 0.102085
H13   H     H_    0.528287 0.287331 0.206345 0.100611
H14   H     H_    0.836487 0.158523 0.160823 0.099903
H15   H     H_    0.832140 0.056074 0.287315 0.110223
H16   H     H_    0.844827 0.048208 0.217184 0.106306
H17   H     H_    0.811208 0.179441 0.337702 0.111978
H18   H     H_    0.785877 0.228416 0.404758 0.137481
H19   H     H_    0.552007 0.154276 0.157812 0.100572
H20   H     H_    0.843026 0.553887 0.916255 0.124415
H21   H     H_    0.540168 0.821601 0.911314 0.123459
H22   H     H_    0.534024 0.797719 0.670190 0.108248
H23   H     H_    0.790764 0.517847 0.428270 0.120134
H24   H     H_    0.805930 0.507956 0.297187 0.132854
H25   H     H_    0.516496 0.664817 0.723040 0.116107
H26   H     H_    0.520696 0.665767 0.793445 0.117207
H27   H     H_    0.825550 0.519439 0.848569 0.106278
H28   H     H_    0.824008 0.626509 0.793631 0.149815
H29   H     H_    0.783123 0.485230 0.670832 0.142995
H30   H     H_    0.751469 0.469134 0.602495 0.125272
H31   H     H_    0.523412 0.786592 0.843568 0.104308
H32   H     H_    0.500294 0.782257 0.601854 0.125985
H33   H     H_    0.080419 0.833748 0.899281 0.122377
H34   H     H_    0.968743 0.923771 0.096064 0.136006
H35   H     H_    0.823745 0.518428 0.227812 0.106294
H36   H     H_    0.046133 0.565030 0.892359 0.126823
H37   H     H_    0.114224 0.548016 0.646778 0.140487
H38   H     H_    0.223167 0.509899 0.707481 0.108215
H39   H     H_    0.208247 0.515025 0.777184 0.099677
H40   H     H_    0.119190 0.816702 0.830927 0.098750
H41   H     H_    0.033942 0.839683 0.702572 0.105483
H42   H     H_    0.016684 0.845018 0.772561 0.106750
H43   H     H_    0.187998 0.789751 0.660706 0.101912
H44   H     H_    0.260993 0.753346 0.596725 0.126687
H45   H     H_    0.126947 0.856535 0.354600 0.098289
H46   H     H_    0.081391 0.550261 0.824049 0.123991
H47   H     H_    0.592036 0.806412 0.183511 0.099291
H48   H     H_    0.187906 0.510480 0.582927 0.131437
H49   H     H_    0.566222 0.022225 0.900435 0.126067
H50   H     H_    0.769708 0.147268 0.901922 0.125862
H51   H     H_    0.747216 0.218884 0.675962 0.109833
H52   H     H_    0.593956 0.332637 0.722081 0.109788
H53   H     H_    0.585542 0.316369 0.791521 0.104881
H54   H     H_    0.512468 0.083070 0.834338 0.103360
H55   H     H_    0.610245 0.040305 0.704482 0.124302
H56   H     H_    0.167586 0.831456 0.288905 0.099980
H57   H     H_    0.605269 0.021795 0.774228 0.116773
H58   H     H_    0.492593 0.171790 0.648713 0.108224
H59   H     H_    0.674935 0.836119 0.306847 0.108305
H60   H     H_    0.494693 0.217822 0.581572 0.120723
H61   H     H_    0.717933 0.205770 0.836120 0.106338
H62   H     H_    0.750557 0.264032 0.609126 0.126405
H63   H     H_    0.690611 0.846743 0.237242 0.112012
H64   H     H_    0.553452 0.785919 0.336693 0.111335
H65   H     H_    0.508955 0.903169 0.126753 0.234947
H66   H     H_    0.435072 0.856108 0.074696 0.138561
H67   H     H_    0.124208 0.859826 0.220353 0.102348
H68   H     H_    0.485236 0.754993 0.110227 0.128193
H69   H     H_    0.555966 0.741507 0.067045 0.159023
H70   H     H_    0.090520 0.522770 0.120676 0.227031
H71   H     H_    0.231029 0.450577 0.078207 0.138560
H72   H     H_    0.258880 0.512531 0.117893 0.122802
H73   H     H_    0.217085 0.575478 0.071457 0.171798
H74   H     H_    0.911998 0.568089 0.345914 0.251012
H75   H     H_    0.040024 0.456235 0.386955 0.130608
H76   H     H_    0.954637 0.424927 0.410182 0.147089
H77   H     H_    0.948979 0.547200 0.420174 0.150226
H78   H     H_    0.089599 0.615413 0.177680 0.098347
H79   H     H_    0.484025 0.203104 0.430212 0.249816
H80   H     H_    0.315531 0.284878 0.401734 0.136499
H81   H     H_    0.397797 0.184923 0.369138 0.126164
H82   H     H_    0.361460 0.318294 0.360263 0.146226
H83   H     H_    0.884886 0.693234 0.662802 0.364718
H84   H     H_    0.985817 0.683340 0.297649 0.106189
N1    N     N_2   0.557372 0.844125 0.108957 -0.492364
N2    N     N_2   0.102420 0.571797 0.103916 -0.493540
N3    N     N_2   0.887714 0.535892 0.366150 -0.527842
N4    N     N_2   0.470199 0.244753 0.405245 -0.488117
O1    O     O_R   0.324990 0.503440 0.453910 -0.506341
O2    O     O_R   0.675430 0.831160 0.051290 -0.473225
O3    O     O_R   0.698870 0.998880 0.039560 -0.500914
O4    O     O_R   0.522030 0.339050 0.458320 -0.475118
O5    O     O_R   0.811290 0.006780 0.950620 -0.514794
O6    O     O_R   0.980960 0.812920 0.953200 -0.494501
O7    O     O_R   0.001480 0.656720 0.955830 -0.518194
O8    O     O_R   0.809240 0.683250 0.968050 -0.502445
O9    O     O_R   0.652500 0.818540 0.967340 -0.521125
O10   O     O_R   0.677620 0.987170 0.961730 -0.500441
O11   O     O_3   0.833240 0.833660 0.999890 -0.258951
O12   O     O_R   0.639980 0.519500 0.542640 -0.502649
O13   O     O_R   0.676180 0.324490 0.458320 -0.524301
O14   O     O_R   0.643570 0.521510 0.464260 -0.500145
O15   O     O_R   0.504630 0.675350 0.460920 -0.515709
O16   O     O_R   0.339850 0.642450 0.459830 -0.503671
O17   O     O_R   0.321120 0.501280 0.538470 -0.519981
O18   O     O_R   0.518440 0.337050 0.536710 -0.502875
O19   O     O_R   0.672300 0.322330 0.542880 -0.520743
O20   O     O_2   0.919249 0.661220 0.740399 -0.299820
O21   O     O_2   0.931420 0.518273 0.701728 -0.317074
O22   O     O_3   0.821369 0.703030 0.674504 -0.523945
O23   O     O_R   0.500750 0.673190 0.545480 -0.519473
O24   O     O_R   0.336260 0.640450 0.538210 -0.503551
O25   O     O_3   0.499990 0.499990 0.500010 -0.234635
O26   O     O_R   0.834210 0.019400 0.034570 -0.532843
O27   O     O_R   0.002210 0.824620 0.031030 -0.510512
O28   O     O_R   0.024400 0.669340 0.039790 -0.476770
O29   O     O_R   0.830490 0.694950 0.045870 -0.524478
S1    S     S_3+6 0.861391 0.627453 0.713728 -0.025061

loop_
_geom_bond_atom_site_label_1
_geom_bond_atom_site_label_2
_ccdc_geom_bond_type
C16   H43   S    
C88   O12   A    
C55   C56   A    
C63   C65   A    
C11   H41   S    
C93   C94   A    
C36   O27   A    
Cr5   O11   S    
C111  C121  S    
C27   H72   S    
C36   O28   A    
C73   C74   A    
C54   C55   A    
C59   H61   S    
C95   C96   A    
Cr3   O23   S    
C8    H39   S    
H83   O22   S    
C26   H66   S    
C54   C57   A    
Cr4   O6    S    
C54   H23   S    
C41   O9    A    
C97   C98   A    
C29   H80   S    
C12   H42   S    
O20   S1    D    
C77   C78   A    
C43   O10   A    
C31   H60   S    
C28   N3    S    
C114  H55   S    
C4    H40   S    
C40   O6    A    
C83   C84   A    
C27   H73   S    
H79   N4    S    
C2    C13   A    
Cr2   O12   S    
C51   C56   A    
C36   C58   S    
C85   C86   A    
C5    C6    A    
C95   C99   A    
C117  H29   S    
C106  C107  A    
C58   C60   A    
C115  C116  A    
C18   C21   A    
C87   C94   A    
C13   C81   A    
C28   H76   S    
C41   C102  S    
C32   H62   S    
C18   C19   A    
C118  C122  A    
C104  H20   S    
C40   O7    A    
C69   C71   A    
C109  H26   S    
C117  C121  A    
C2    H57   S    
C80   C86   A    
C110  H25   S    
C92   C103  A    
C46   C47   A    
C81   C92   A    
C118  H30   S    
C105  H27   S    
C107  H31   S    
C10   C20   S    
C8    C9    A    
Cr5   O8    S    
C73   C78   A    
C102  C108  A    
C53   H1    S    
C9    C10   A    
C23   H49   S    
C109  C116  A    
C25   H54   S    
C3    H33   S    
C66   C67   A    
Cr6   O10   S    
C77   H45   S    
C96   C101  A    
C28   H75   S    
Cr3   O24   S    
C19   H37   S    
Cr1   O4    S    
Cr4   O5    S    
C22   C23   A    
C104  C105  A    
C3    C123  A    
C52   O15   A    
C29   H81   S    
Cr5   O28   S    
C9    H38   S    
C68   C78   S    
C96   H18   S    
C66   C72   A    
C35   C76   S    
C120  H22   S    
C14   C124  A    
C69   H84   S    
C115  H28   S    
C62   C72   S    
C67   C68   A    
C66   H67   S    
C32   C35   A    
C38   O2    A    
C103  C114  A    
C95   H17   S    
C84   C85   A    
C55   N3    S    
C75   H7    S    
C88   O23   A    
C21   C100  S    
C53   C57   A    
C68   C69   A    
C42   C112  A    
C61   H78   S    
Cr6   O11   S    
C45   C46   A    
C1    O4    A    
C24   C34   A    
C110  C111  A    
C30   C37   A    
C98   H10   S    
C60   C61   A    
C51   C53   A    
Cr5   O7    S    
C47   H59   S    
Cr2   O14   S    
C64   O16   A    
C62   C63   A    
Cr1   O17   S    
C91   C93   A    
C108  H21   S    
C1    O13   A    
C58   C65   A    
C22   C43   S    
C12   C15   A    
C16   C20   A    
C74   H5    S    
C33   C34   A    
C120  C121  A    
Cr3   O15   S    
Cr3   O25   S    
C93   H16   S    
C111  C113  A    
C84   C94   S    
C102  C104  A    
C26   H69   S    
C75   C77   A    
C25   C48   A    
C49   H63   S    
C86   H9    S    
C119  H32   S    
Cr1   O1    S    
C88   C122  S    
C29   N4    S    
C7    H36   S    
Cr6   O9    S    
C82   C83   A    
C8    C15   A    
C39   O3    A    
C74   C79   A    
C87   C89   A    
C33   H51   S    
C27   N2    S    
Cr4   O26   S    
C64   C79   S    
C31   C35   A    
C75   C79   A    
Cr4   O27   S    
C107  C108  A    
C46   C56   S    
C3    C4    A    
Cr4   O11   S    
C1    C101  S    
C90   C99   S    
C91   H15   S    
C100  O24   A    
C17   H44   S    
C29   H82   S    
C39   O26   A    
Cr5   O29   S    
C119  C122  A    
C44   C50   A    
C40   C123  S    
C41   O8    A    
Cr3   O16   S    
C64   O1    A    
C27   H71   S    
H65   N1    S    
Cr6   O3    S    
C52   O14   A    
C44   C45   A    
C7    C123  A    
C4    C5    A    
C100  O17   A    
C51   H64   S    
C30   H12   S    
C71   H3    S    
C13   C48   S    
C119  C120  A    
C67   H56   S    
C112  C124  A    
C6    C7    A    
C47   C49   A    
C113  S1    S    
C105  C106  A    
C34   C103  S    
C76   O19   A    
C24   H58   S    
H74   N3    S    
Cr6   O2    S    
C10   C11   A    
C32   C33   A    
C19   C20   A    
C49   C50   A    
Cr2   O13   S    
C60   N2    S    
C24   C31   A    
C71   C72   A    
C82   H8    S    
Cr1   O18   S    
C92   H52   S    
C117  C118  A    
C39   C80   S    
C14   C37   A    
C37   C50   S    
C2    C114  A    
C70   H50   S    
C90   C91   A    
C83   H14   S    
C6    H46   S    
C89   H11   S    
C38   O29   A    
C65   H34   S    
C48   C59   A    
H70   N2    S    
C80   C82   A    
C22   C70   A    
Cr1   O25   S    
C30   C42   A    
C44   H35   S    
C23   C25   A    
C61   C62   A    
C26   H68   S    
C16   C17   A    
C85   H19   S    
C5    C15   S    
C14   H47   S    
C52   C57   S    
C59   C70   A    
C26   N1    S    
C73   H4    S    
C18   H48   S    
C98   C99   A    
C106  C116  S    
Cr2   O25   S    
O22   S1    S    
C28   H77   S    
C81   H53   S    
C97   N4    S    
O21   S1    D    
C63   H6    S    
C42   H2    S    
C45   H24   S    
C87   H13   S    
C89   C90   A    
C109  C110  A    
Cr2   O19   S    
C38   C112  S    
C76   O18   A    
C97   C101  A    
C43   O5    A    
C11   C12   A    
C113  C115  A    
C124  N1    S    
C17   C21   A    
