data_mof_unit_17044.cif
_audit_creation_date              2013-03-05T16:44:35-0500
_audit_creation_method            fapswitch 2.2
_symmetry_space_group_name_H-M    P1
_symmetry_Int_Tables_number       1
_space_group_crystal_system       triclinic
_cell_length_a                    27.637215
_cell_length_b                    10.741619
_cell_length_c                    9.880437
_cell_angle_alpha                 89.845818
_cell_angle_beta                  91.870472
_cell_angle_gamma                 89.768527
_cell_volume                      2931.59134887

loop_
_atom_site_label
_atom_site_type_symbol
_atom_site_description
_atom_site_fract_x
_atom_site_fract_y
_atom_site_fract_z
_atom_type_partial_charge
O1    O     O_R   0.500010 0.316790 0.614690 -0.576337
O2    O     O_R   0.500000 0.316760 0.385350 -0.619488
C1    C     C_R   0.501706 0.259838 0.499285 0.967046
O3    O     O_R   0.428760 0.500040 0.614660 -0.629049
O4    O     O_R   0.428750 0.500000 0.385310 -0.581614
C2    C     C_R   0.406201 0.500551 0.497920 0.901710
Zn1   Zn    Zn3+2 0.500000 0.500020 0.653130 0.998843
Zn2   Zn    Zn3+2 0.500000 0.499980 0.346870 0.972382
O5    O     O_R   0.500000 0.683240 0.614650 -0.616813
O6    O     O_R   0.499990 0.683210 0.385310 -0.589878
O7    O     O_R   0.571250 0.500000 0.614690 -0.590598
O8    O     O_R   0.571240 0.499960 0.385340 -0.645922
C3    C     C_R   0.502279 0.739975 0.499184 0.934536
C4    C     C_R   0.593736 0.498895 0.501645 1.042290
C5    C     C_R   0.176419 0.443346 0.379457 0.598849
O9    O     O_2   0.200990 0.375532 0.289494 -0.469423
N1    N     N_R   0.201560 0.507319 0.477848 -0.361707
C6    C     C_R   0.179066 0.578364 0.571187 0.511421
C7    C     C_R   0.278190 0.583824 0.397101 -0.193458
C8    C     C_R   0.328597 0.586227 0.404380 0.440105
C9    C     C_R   0.328243 0.423222 0.576488 -0.287710
C10   C     C_R   0.277931 0.423523 0.570716 -0.090418
C11   C     C_R   0.253053 0.503498 0.480700 0.238491
C12   C     C_R   0.101528 0.518116 0.471550 -0.137941
C13   C     C_R   0.125423 0.447783 0.372954 -0.150010
C14   C     C_R   0.098019 0.387407 0.269524 0.365874
C15   C     C_R   0.128660 0.585729 0.569602 0.025795
C16   C     C_R   0.353693 0.503368 0.492593 -0.145234
H1    H     H_    0.347322 0.359613 0.644952 0.179967
H2    H     H_    0.258222 0.361912 0.635866 0.156803
C17   C     C_R   0.646212 0.501948 0.503867 -0.379805
C18   C     C_R   0.973349 0.427888 0.404380 0.013437
C19   C     C_R   0.975769 0.607421 0.558860 0.064410
C20   C     C_R   0.949222 0.517267 0.483361 -0.010646
C21   C     C_R   0.946925 0.323739 0.354343 0.490117
C22   C     C_R   0.896278 0.324437 0.358090 -0.304778
C23   C     C_R   0.871851 0.420953 0.421802 -0.079602
C24   C     C_R   0.898296 0.515266 0.488730 -0.068977
C25   C     C_R   0.873822 0.606869 0.562251 -0.028818
C26   C     C_R   0.823395 0.602040 0.567632 0.581215
N2    N     N_R   0.798355 0.511365 0.498837 -0.317438
C27   C     C_R   0.821352 0.422205 0.425860 0.549488
C28   C     C_R   0.723284 0.407959 0.565862 0.332149
C29   C     C_R   0.672862 0.398087 0.549809 0.322296
C30   C     C_R   0.669321 0.608247 0.455783 0.266864
C31   C     C_R   0.719786 0.605079 0.440658 0.400182
C32   C     C_R   0.746758 0.508965 0.503890 -0.023044
O10   O     O_2   0.795306 0.334977 0.357953 -0.580099
C33   C     C_R   0.023445 0.443629 0.383314 -0.094582
C34   C     C_R   0.050514 0.520235 0.473428 -0.006797
C35   C     C_R   0.026819 0.599314 0.565310 0.097834
C36   C     C_R   0.046943 0.391658 0.271075 0.428869
H3    H     H_    0.876163 0.246811 0.315216 0.193555
O11   O     O_2   0.205605 0.641854 0.664898 -0.554568
C37   C     C_R   0.105061 0.658642 0.664295 -0.123636
H4    H     H_    0.258517 0.646788 0.329226 0.158733
H5    H     H_    0.125243 0.710443 0.741113 0.189550
C38   C     C_R   0.950287 0.701423 0.626721 -0.226019
C39   C     C_R   0.900094 0.700704 0.628706 -0.138231
O12   O     O_2   0.799493 0.686437 0.641643 -0.561193
C40   C     C_R   0.054975 0.666492 0.661478 -0.225731
H6    H     H_    0.968333 0.777734 0.677757 0.153288
H7    H     H_    0.881999 0.773659 0.683472 0.189362
H8    H     H_    0.039117 0.722249 0.739240 0.139199
C41   C     C_R   0.519518 0.063135 0.614410 -0.031179
C42   C     C_R   0.510506 0.128480 0.494656 -0.262521
C43   C     C_R   0.511444 0.064277 0.369594 0.298329
C44   C     C_R   0.512642 0.935353 0.369463 0.424053
C45   C     C_R   0.511998 0.870783 0.494828 -0.260877
C46   C     C_R   0.521162 0.935553 0.614823 -0.091574
C47   C     C_3   0.498168 0.924866 0.749538 -0.508167
C48   C     C_3   0.494528 0.066301 0.746828 0.866710
H9    H     H_    0.462482 0.877301 0.743438 0.198914
H10   H     H_    0.523897 0.887484 0.828427 0.191478
C49   C     C_R   0.457581 0.494230 0.067365 0.237348
N3    N     N_R   0.499670 0.499140 0.142800 -0.130882
C50   C     C_R   0.541288 0.518496 0.076887 -0.277469
H11   H     H_    0.574037 0.537978 0.135180 0.175074
C51   C     C_R   0.542008 0.515074 0.933480 0.516499
N4    N     N_R   0.499670 0.499180 0.857150 -0.143106
C52   C     C_R   0.457495 0.495158 0.925046 0.132562
C53   C     C_3   0.420706 0.394155 0.916862 -0.467824
C54   C     C_3   0.421019 0.393054 0.070596 -0.459508
H12   H     H_    0.385784 0.427040 0.870377 0.212035
H13   H     H_    0.435334 0.307608 0.872949 0.264649
H14   H     H_    0.386328 0.425478 0.112487 0.225466
H15   H     H_    0.435869 0.305528 0.116094 0.246243
O13   O     O_3   0.641413 0.712610 0.423835 -0.669344
C55   C     C_3   0.655840 0.817562 0.502105 0.074652
H16   H     H_    0.628536 0.891767 0.481092 0.134425
H17   H     H_    0.690788 0.854932 0.468284 0.200340
C56   C     C_3   0.657838 0.794029 0.656405 -0.342437
H18   H     H_    0.621544 0.765643 0.690445 0.242368
H19   H     H_    0.684029 0.718428 0.682925 0.234603
C57   C     C_3   0.674473 0.910208 0.732830 -0.930743
H20   H     H_    0.706306 0.952620 0.684999 0.280449
H21   H     H_    0.685696 0.884115 0.837892 0.276069
H22   H     H_    0.644578 0.979477 0.735158 0.255491
O14   O     O_3   0.744024 0.700849 0.377817 -0.613395
C58   C     C_3   0.732082 0.704329 0.237355 0.075421
H23   H     H_    0.735443 0.802580 0.203584 0.175378
H24   H     H_    0.694162 0.675980 0.211473 0.139899
C59   C     C_3   0.767450 0.623711 0.159234 -0.381433
H25   H     H_    0.805205 0.644352 0.194235 0.243622
H26   H     H_    0.760117 0.523938 0.179651 0.239820
C60   C     C_3   0.762568 0.647689 0.006903 -0.891418
H27   H     H_    0.724824 0.631587 0.969428 0.263487
H28   H     H_    0.786998 0.583796 0.952908 0.278437
H29   H     H_    0.772780 0.745125 0.983501 0.275868
O15   O     O_3   0.504361 0.122891 0.246360 -0.719981
H30   H     H_    0.533026 0.176392 0.233970 0.332776
O16   O     O_3   0.504491 0.876365 0.246296 -0.605765
C61   C     C_3   0.548803 0.835452 0.194077 0.137246
H31   H     H_    0.539961 0.761695 0.119427 0.171788
H32   H     H_    0.573442 0.793291 0.272850 0.174741
C62   C     C_3   0.574128 0.940223 0.120125 -0.381058
H33   H     H_    0.547838 0.986162 0.049165 0.287138
H34   H     H_    0.587605 0.009753 0.194468 0.222325
C63   C     C_3   0.616687 0.891725 0.041795 -1.007758
H35   H     H_    0.643504 0.845387 0.111333 0.273310
H36   H     H_    0.634291 0.971767 0.992607 0.272865
H37   H     H_    0.604175 0.824813 0.962693 0.290711
O17   O     O_3   0.446658 0.109443 0.733107 -0.780088
H38   H     H_    0.430978 0.087623 0.818900 0.335278
O18   O     O_3   0.520958 0.127456 0.850985 -0.779735
H39   H     H_    0.555693 0.105102 0.843635 0.303365
O19   O     O_3   0.585162 0.538464 0.872141 -0.652019
C64   C     C_3   0.614785 0.430301 0.875994 0.157397
H40   H     H_    0.639852 0.440219 0.791978 0.211308
H41   H     H_    0.593910 0.343076 0.856367 0.157472
C65   C     C_3   0.645795 0.419227 0.007532 -0.495150
H42   H     H_    0.656359 0.513257 0.044077 0.239093
H43   H     H_    0.624604 0.372547 0.086496 0.218916
C66   C     C_3   0.691556 0.342406 0.986559 -0.851366
H44   H     H_    0.681967 0.248528 0.947406 0.271960
H45   H     H_    0.712111 0.331972 0.084383 0.274128
H46   H     H_    0.715107 0.389635 0.913477 0.285854
O20   O     O_3   0.121578 0.327852 0.166331 -0.691953
H47   H     H_    0.098164 0.279625 0.109795 0.363887
O21   O     O_3   0.648319 0.290031 0.582418 -0.648294
C67   C     C_3   0.663377 0.188573 0.501882 0.145141
H48   H     H_    0.642219 0.106298 0.532284 0.129754
H49   H     H_    0.701871 0.163731 0.523339 0.219848
C68   C     C_3   0.653555 0.208687 0.348841 -0.414911
H50   H     H_    0.613941 0.206689 0.326707 0.200330
H51   H     H_    0.667397 0.300095 0.315026 0.232841
C69   C     C_3   0.678579 0.108519 0.266915 -0.948587
H52   H     H_    0.718497 0.115458 0.281579 0.298448
H53   H     H_    0.669207 0.121511 0.157852 0.277848
H54   H     H_    0.666891 0.014496 0.298243 0.251997
O22   O     O_3   0.748157 0.318662 0.641608 -0.752338
H55   H     H_    0.781473 0.347818 0.662668 0.340765
O23   O     O_3   0.971132 0.217756 0.314454 -0.710591
H56   H     H_    0.947363 0.153760 0.284515 0.332245
O24   O     O_3   0.020177 0.349989 0.159212 -0.608439
C70   C     C_3   0.015646 0.445545 0.060518 0.068437
H57   H     H_    0.016195 0.400210 0.959613 0.184076
H58   H     H_    0.046222 0.513313 0.063503 0.127156
C71   C     C_3   0.967314 0.514338 0.073098 -0.352666
H59   H     H_    0.937541 0.445691 0.081137 0.244688
H60   H     H_    0.968461 0.572542 0.165863 0.214592
C72   C     C_3   0.956576 0.597983 0.950913 -0.931697
H61   H     H_    0.985736 0.667873 0.940588 0.260256
H62   H     H_    0.921712 0.647670 0.963775 0.271602
H63   H     H_    0.953615 0.540991 0.857433 0.276113
O25   O     O_3   0.352949 0.670620 0.325938 -0.630153
C73   C     C_3   0.358493 0.782255 0.400185 0.058411
H64   H     H_    0.384827 0.767904 0.486712 0.131759
H65   H     H_    0.323268 0.815109 0.439622 0.150711
C74   C     C_3   0.377680 0.883503 0.307703 -0.304189
H66   H     H_    0.412409 0.852092 0.265844 0.276346
H67   H     H_    0.351399 0.899481 0.221788 0.231713
C75   C     C_3   0.385527 0.005564 0.384050 -0.877371
H68   H     H_    0.350643 0.041020 0.421691 0.263998
H69   H     H_    0.400598 0.076326 0.315133 0.288952
H70   H     H_    0.411325 0.991631 0.471364 0.271608

loop_
_geom_bond_atom_site_label_1
_geom_bond_atom_site_label_2
_geom_bond_distance
_ccdc_geom_bond_type
C7    H4    1.083320 S    
C38   H6    1.078918 S    
C54   H15   1.112210 S    
C31   O14   1.386287 S    
C19   C38   1.412025 A    
C26   O12   1.350274 S    
N2    C27   1.367406 A    
C57   H20   1.110924 S    
C35   C40   1.410331 A    
C12   C15   1.410345 A    
C4    C17   1.450248 S    
C28   C29   1.401857 A    
C65   C66   1.527386 S    
C64   H40   1.103655 S    
C66   H46   1.110767 S    
C52   C53   1.490437 S    
C57   H22   1.110463 S    
O17   H38   0.992476 S    
C73   H65   1.116633 S    
C75   H68   1.110889 S    
C36   O24   1.386034 S    
Zn1   O7    2.017580 S    
N1    C11   1.422917 S    
C3    C45   1.432388 S    
C70   H57   1.111257 S    
C69   H53   1.108362 S    
C61   H31   1.106512 S    
C67   H49   1.109355 S    
O4    C2    1.292914 A    
O7    C4    1.295840 A    
C15   C37   1.397777 A    
C5    C13   1.409357 A    
C74   H66   1.109130 S    
C5    O9    1.349351 S    
Zn2   N3    2.016068 S    
C62   H33   1.106785 S    
Zn1   O5    2.003461 S    
C44   O16   1.385851 S    
C23   C27   1.397558 A    
O5    C3    1.295443 A    
O15   H30   0.991187 S    
C56   H18   1.111838 S    
C22   H3    1.083535 S    
C2    C16   1.450610 S    
C69   H52   1.110813 S    
C62   H34   1.106084 S    
C44   C45   1.418660 A    
O22   H55   0.989633 S    
C71   H60   1.110546 S    
C12   C13   1.413450 A    
C46   C47   1.497900 S    
C55   H17   1.108692 S    
C61   C62   1.525003 S    
C50   C51   1.418288 A    
C42   C43   1.417629 A    
C29   O21   1.389155 S    
C20   C24   1.410443 A    
C9    C10   1.389782 A    
O25   C73   1.413674 S    
C68   C69   1.525279 S    
C58   H24   1.114413 S    
O16   C61   1.413246 S    
C34   C35   1.418803 A    
C73   C74   1.526399 S    
C72   H62   1.110676 S    
C63   H36   1.108460 S    
C12   C34   1.410705 A    
O24   C70   1.416242 S    
C17   C29   1.400709 A    
C43   C44   1.385122 A    
C18   C21   1.419610 A    
C30   O13   1.387961 S    
N3    C50   1.356634 A    
C68   H51   1.109812 S    
C67   C68   1.542016 S    
C55   H16   1.109906 S    
C73   H64   1.114491 S    
C47   H9    1.112533 S    
C68   H50   1.109718 S    
C66   H45   1.110196 S    
C8    C16   1.408642 A    
C14   O20   1.384278 S    
C38   C39   1.388006 A    
C50   H11   1.078348 S    
C9    H1    1.083404 S    
C56   C57   1.525111 S    
O1    C1    1.297549 A    
C21   C22   1.401452 A    
C18   C20   1.417093 A    
C41   C46   1.370997 A    
C40   H8    1.078616 S    
C7    C11   1.395651 A    
C49   N3    1.362160 A    
C23   C24   1.405628 A    
C14   C36   1.412737 A    
O4    Zn2   2.017583 S    
C72   H63   1.110434 S    
C43   O15   1.377178 S    
C71   H59   1.111737 S    
Zn2   O8    1.993010 S    
C33   C36   1.417954 A    
C25   C39   1.397363 A    
C69   H54   1.107998 S    
C56   H19   1.110759 S    
N1    C6    1.362623 A    
N2    C32   1.428814 S    
C71   C72   1.523620 S    
C59   H26   1.110686 S    
C27   O10   1.350387 S    
C60   H27   1.109843 S    
O21   C67   1.420117 S    
C55   C56   1.543868 S    
C75   H69   1.110486 S    
O3    C2    1.293113 A    
C26   N2    1.366727 A    
C9    C16   1.400746 A    
O8    C4    1.288582 A    
C53   C54   1.518721 S    
C53   H12   1.111157 S    
C37   H5    1.083476 S    
C48   O17   1.402287 S    
O18   H39   0.993616 S    
C1    C42   1.431936 S    
C65   H42   1.110519 S    
C41   C48   1.499661 S    
C64   C65   1.537331 S    
C25   C26   1.397577 A    
C28   O22   1.381995 S    
C72   H61   1.110557 S    
C75   H70   1.110529 S    
C5    N1    1.365076 A    
C51   O19   1.378992 S    
C31   C32   1.404211 A    
C22   C23   1.397283 A    
C10   H2    1.082846 S    
O1    Zn1   2.005503 S    
C70   C71   1.532685 S    
O2    Zn2   2.003462 S    
C6    C15   1.394590 A    
C21   O23   1.382891 S    
N4    C52   1.364495 A    
C65   H43   1.110507 S    
O6    C3    1.281044 A    
C64   H41   1.116401 S    
C47   H10   1.110974 S    
C63   H35   1.109521 S    
C57   H21   1.108629 S    
C66   H44   1.110992 S    
C49   C52   1.406105 A    
C19   C35   1.412566 A    
C53   H13   1.107495 S    
C8    O25   1.382253 S    
C39   H7    1.083414 S    
C62   C63   1.520037 S    
C48   O18   1.408063 S    
C7    C8    1.392954 A    
C70   H58   1.117286 S    
O2    C1    1.279038 A    
C13   C14   1.412649 A    
C47   C48   1.522263 S    
C41   C42   1.389111 A    
O14   C58   1.416377 S    
C49   C54   1.487954 S    
C24   C25   1.408519 A    
C60   H28   1.110511 S    
C37   C40   1.385850 A    
C58   H23   1.111175 S    
C63   H37   1.111031 S    
C19   C20   1.416483 A    
C59   C60   1.527816 S    
C58   C59   1.532040 S    
C45   C46   1.392880 A    
C18   C33   1.417506 A    
O20   H47   0.989856 S    
C6    O11   1.350373 S    
C51   N4    1.382670 A    
C30   C31   1.407816 A    
C54   H14   1.111671 S    
O13   C55   1.419914 S    
O3    Zn1   1.993010 S    
Zn2   O6    2.005501 S    
C33   C34   1.412433 A    
C17   C30   1.400048 A    
C59   H25   1.111873 S    
C10   C11   1.397482 A    
C74   H67   1.111562 S    
O23   H56   0.991780 S    
C67   H48   1.107887 S    
C28   C32   1.414561 A    
C60   H29   1.110811 S    
O19   C64   1.418326 S    
Zn1   N4    2.016121 S    
C61   H32   1.111566 S    
C74   C75   1.527112 S    
