data_mof_unit_10257.cif
_audit_creation_date              2012-12-10T17:46:15-0500
_audit_creation_method            fapswitch 2.2
_symmetry_space_group_name_H-M    P1
_symmetry_Int_Tables_number       1
_space_group_crystal_system       triclinic
_cell_length_a                    14.150358
_cell_length_b                    10.643558
_cell_length_c                    9.928848
_cell_angle_alpha                 89.9135
_cell_angle_beta                  89.957189
_cell_angle_gamma                 91.584098
_cell_volume                      1494.81168062

loop_
_atom_site_label
_atom_site_type_symbol
_atom_type_description
_atom_site_fract_x
_atom_site_fract_y
_atom_site_fract_z
_atom_type_partial_charge
C1    C     C_R   0.502446 0.260674 0.500128 0.841700
C2    C     C_R   0.439178 0.062012 0.429571 -0.216643
C3    C     C_R   0.439360 0.933624 0.429276 -0.193639
C4    C     C_R   0.329292 0.499681 0.500075 0.874303
C5    C     C_R   0.509455 0.872033 0.499389 -0.063206
C6    C     C_R   0.376704 0.334544 0.140199 -0.146597
C7    C     C_R   0.316400 0.252557 0.070284 -0.190725
C8    C     C_R   0.316426 0.252499 0.930930 -0.179645
C9    C     C_R   0.376782 0.334397 0.860570 -0.141613
C10   C     C_R   0.439430 0.418336 0.927926 0.164853
C11   C     C_R   0.439416 0.418402 0.072437 0.169515
C12   C     C_1   0.772192 0.500064 0.499971 -0.188404
C13   C     C_R   0.558025 0.578134 0.071232 -0.100134
C14   C     C_R   0.558002 0.578113 0.928240 -0.098448
C15   C     C_R   0.502836 0.739479 0.499875 0.866518
C16   C     C_R   0.670713 0.500348 0.499944 0.865920
C17   C     C_1   0.227796 0.499395 0.500185 -0.203252
C18   C     C_1   0.142527 0.499264 0.500249 -0.001963
C19   C     C_1   0.042616 0.499296 0.500274 0.021092
C20   C     C_1   0.957350 0.499463 0.500232 0.027884
C21   C     C_1   0.857448 0.499771 0.500106 0.017402
C22   C     C_R   0.658586 0.136564 0.630321 -0.278431
C23   C     C_R   0.731409 0.073572 0.693621 -0.220521
C24   C     C_R   0.731581 0.942838 0.693342 0.691984
C25   C     C_R   0.658899 0.874675 0.629664 -0.297384
C26   C     C_R   0.583679 0.937084 0.566662 0.010947
C27   C     C_R   0.583500 0.068862 0.566990 0.103910
C28   C     C_R   0.509099 0.128609 0.499977 -0.059930
F1    F     F_    0.803141 0.881780 0.753350 -0.667555
H1    H     H_    0.383183 0.109688 0.377299 0.138689
H2    H     H_    0.371708 0.329406 0.246953 0.194201
H3    H     H_    0.269115 0.188924 0.124791 0.151592
H4    H     H_    0.269138 0.188835 0.876784 0.156668
H5    H     H_    0.371907 0.329141 0.753805 0.199109
H6    H     H_    0.605345 0.642069 0.874445 0.161941
H7    H     H_    0.662785 0.238076 0.629862 0.180698
H8    H     H_    0.788402 0.126513 0.741700 0.172771
H9    H     H_    0.663233 0.773439 0.628518 0.167076
H10   H     H_    0.383475 0.881885 0.376869 0.154227
H11   H     H_    0.605401 0.642080 0.124635 0.157072
N1    N     N_R   0.499190 0.498800 0.142780 -0.117311
N2    N     N_R   0.499160 0.498720 0.857170 -0.117809
O1    O     O_R   0.500000 0.316780 0.614690 -0.634179
O2    O     O_R   0.499990 0.316750 0.385360 -0.623085
O3    O     O_R   0.373720 0.500010 0.614690 -0.608687
O4    O     O_R   0.373710 0.499990 0.385360 -0.614095
O5    O     O_R   0.500010 0.683250 0.614640 -0.608056
O6    O     O_R   0.500000 0.683220 0.385310 -0.606530
O7    O     O_R   0.626290 0.500010 0.614640 -0.602471
O8    O     O_R   0.626280 0.499990 0.385310 -0.587532
Zn1   Zn    Zn3+2 0.500010 0.500020 0.653130 0.936299
Zn2   Zn    Zn3+2 0.499990 0.499980 0.346870 0.941475

loop_
_geom_bond_atom_site_label_1
_geom_bond_atom_site_label_2
_ccdc_geom_bond_type
C1    C28   S    
O8    Zn2   S    
C23   C24   A    
C6    C7    A    
C23   H8    S    
C25   H9    S    
C10   N2    A    
C22   H7    S    
C9    C10   A    
C1    O2    A    
C19   C20   T    
C15   O5    A    
N2    Zn1   S    
C14   N2    A    
O2    Zn2   S    
C13   N1    A    
C17   C18   T    
C25   C26   A    
C3    H10   S    
C7    C8    A    
C4    O4    A    
C13   C14   A    
C24   C25   A    
O1    Zn1   S    
C26   C27   A    
C1    O1    A    
C15   O6    A    
C4    C17   S    
C16   O8    A    
C11   N1    A    
C2    C3    A    
C22   C27   A    
C6    C11   A    
C9    H5    S    
C5    C15   S    
C2    C28   A    
C2    H1    S    
O3    Zn1   S    
C4    O3    A    
C5    C26   A    
O4    Zn2   S    
O6    Zn2   S    
C16   O7    A    
C18   C19   S    
C10   C11   A    
C27   C28   A    
C24   F1    S    
C8    C9    A    
C13   H11   S    
C6    H2    S    
C7    H3    S    
N1    Zn2   S    
C3    C5    A    
C20   C21   S    
C22   C23   A    
C12   C21   T    
C14   H6    S    
O5    Zn1   S    
C12   C16   S    
C8    H4    S    
O7    Zn1   S    
