data_mof_unit_6274.cif
_audit_creation_date              2012-12-10T17:19:23-0500
_audit_creation_method            fapswitch 2.2
_symmetry_space_group_name_H-M    P1
_symmetry_Int_Tables_number       1
_space_group_crystal_system       triclinic
_cell_length_a                    18.284882
_cell_length_b                    18.28498
_cell_length_c                    34.542353
_cell_angle_alpha                 90.002621
_cell_angle_beta                  89.998356
_cell_angle_gamma                 90.001907
_cell_volume                      11548.8454315

loop_
_atom_site_label
_atom_site_type_symbol
_atom_type_description
_atom_site_fract_x
_atom_site_fract_y
_atom_site_fract_z
_atom_type_partial_charge
C1    C     C_R   0.502337 0.134501 0.520452 -0.065585
C2    C     C_R   0.997576 0.365275 0.979543 -0.068363
C3    C     C_R   0.432659 0.997772 0.959236 0.017733
C4    C     C_R   0.998607 0.432637 0.040764 0.017718
C5    C     C_R   0.001334 0.567370 0.959236 0.017816
C6    C     C_R   0.432652 0.997800 0.040768 0.017798
C7    C     C_R   0.567338 0.002239 0.959234 0.017738
C8    C     C_R   0.000003 0.499867 0.644094 0.809657
C9    C     C_R   0.999992 0.499968 0.355903 0.806454
C10   C     C_R   0.499967 0.999992 0.644096 0.806886
C11   C     C_R   0.499865 0.000003 0.355905 0.809150
C12   C     C_R   0.500001 0.000000 0.144101 0.805300
C13   C     C_R   0.634675 0.004245 0.020452 -0.068839
C14   C     C_R   0.499999 0.000000 0.855899 0.805859
C15   C     C_R   0.999999 0.499999 0.144101 0.805406
C16   C     C_R   0.000001 0.500001 0.855900 0.805660
C17   C     C_R   0.860201 0.639799 0.750001 0.784525
C18   C     C_R   0.139812 0.360189 0.249999 0.782153
C19   C     C_R   0.360189 0.860188 0.750000 0.783979
C20   C     C_R   0.639800 0.139798 0.250001 0.786310
C21   C     C_R   0.139799 0.360202 0.749999 0.785824
C22   C     C_R   0.860186 0.639808 0.249999 0.782537
C23   C     C_R   0.639812 0.139809 0.749999 0.783902
C24   C     C_R   0.365347 0.995675 0.979546 -0.068621
C25   C     C_R   0.360200 0.860203 0.250001 0.785866
C26   C     C_R   0.860200 0.360202 0.249999 0.786543
C27   C     C_R   0.139811 0.639812 0.750000 0.783729
C28   C     C_R   0.360188 0.139810 0.250002 0.782529
C29   C     C_R   0.639798 0.860200 0.750000 0.785993
C30   C     C_R   0.139799 0.639798 0.250000 0.786297
C31   C     C_R   0.860188 0.360191 0.750000 0.783899
C32   C     C_R   0.639815 0.860192 0.250001 0.781076
C33   C     C_R   0.360200 0.139798 0.750000 0.785610
C34   C     C_R   0.285937 0.606411 0.774846 -0.134045
C35   C     C_R   0.997417 0.365300 0.020453 -0.068333
C36   C     C_R   0.733918 0.373877 0.201347 -0.138499
C37   C     C_R   0.373941 0.266144 0.798604 -0.144147
C38   C     C_R   0.606457 0.714119 0.225052 -0.138071
C39   C     C_R   0.714062 0.393588 0.774855 -0.132391
C40   C     C_R   0.266072 0.626130 0.201336 -0.138234
C41   C     C_R   0.626051 0.733862 0.798605 -0.144330
C42   C     C_R   0.393511 0.285842 0.224985 -0.139276
C43   C     C_R   0.285855 0.393499 0.224980 -0.139028
C44   C     C_R   0.733855 0.626063 0.798607 -0.143891
C45   C     C_R   0.373879 0.733931 0.201341 -0.138052
C46   C     C_R   0.002491 0.634714 0.979548 -0.068331
C47   C     C_R   0.606410 0.285930 0.774856 -0.133593
C48   C     C_R   0.714096 0.606450 0.225069 -0.139548
C49   C     C_R   0.266143 0.373949 0.798601 -0.144360
C50   C     C_R   0.626104 0.266083 0.201358 -0.138482
C51   C     C_R   0.393592 0.714065 0.774847 -0.134289
C52   C     C_R   0.766085 0.126122 0.298651 -0.138729
C53   C     C_R   0.214065 0.893590 0.725153 -0.134092
C54   C     C_R   0.893544 0.785880 0.274949 -0.138924
C55   C     C_R   0.126062 0.233861 0.701391 -0.144194
C56   C     C_R   0.233949 0.873854 0.298682 -0.132164
C57   C     C_R   0.365326 0.995765 0.020457 -0.068791
C58   C     C_R   0.785937 0.106416 0.725139 -0.132920
C59   C     C_R   0.106492 0.214158 0.275020 -0.139093
C60   C     C_R   0.873959 0.766149 0.701407 -0.143736
C61   C     C_R   0.766154 0.873946 0.701404 -0.144306
C62   C     C_R   0.214150 0.106504 0.275027 -0.138770
C63   C     C_R   0.893586 0.214077 0.725133 -0.130331
C64   C     C_R   0.126133 0.766062 0.298671 -0.137726
C65   C     C_R   0.233858 0.126053 0.701395 -0.144297
C66   C     C_R   0.785911 0.893554 0.274923 -0.138953
C67   C     C_R   0.106407 0.785938 0.725156 -0.134008
C68   C     C_R   0.634650 0.004341 0.979541 -0.068577
C69   C     C_R   0.873894 0.233921 0.298645 -0.138982
C70   C     C_R   0.356774 0.589544 0.786688 -0.134301
C71   C     C_R   0.672951 0.380788 0.177413 -0.139602
C72   C     C_R   0.380880 0.327137 0.822520 -0.148554
C73   C     C_R   0.589606 0.643304 0.213162 -0.136370
C74   C     C_R   0.643225 0.410452 0.786701 -0.133645
C75   C     C_R   0.327033 0.619224 0.177394 -0.139547
C76   C     C_R   0.619114 0.672878 0.822524 -0.148564
C77   C     C_R   0.410336 0.356633 0.213047 -0.136969
C78   C     C_R   0.356650 0.410318 0.213044 -0.136584
C79   C     C_R   0.322211 0.732359 0.762004 0.074848
C80   C     C_R   0.672865 0.619129 0.822525 -0.148616
C81   C     C_R   0.380786 0.672973 0.177397 -0.139520
C82   C     C_R   0.589541 0.356766 0.786702 -0.134134
C83   C     C_R   0.643282 0.589612 0.213172 -0.137194
C84   C     C_R   0.327132 0.380888 0.822519 -0.148621
C85   C     C_R   0.619192 0.327044 0.177419 -0.139647
C86   C     C_R   0.410460 0.643228 0.786688 -0.134352
C87   C     C_R   0.827052 0.119212 0.322586 -0.139517
C88   C     C_R   0.143227 0.910458 0.713313 -0.133894
C89   C     C_R   0.910397 0.856695 0.286837 -0.136498
C90   C     C_R   0.687740 0.257660 0.225797 0.077115
C91   C     C_R   0.119125 0.172870 0.677473 -0.147789
C92   C     C_R   0.172993 0.880756 0.322628 -0.134644
C93   C     C_R   0.856772 0.089555 0.713288 -0.133321
C94   C     C_R   0.089669 0.143369 0.286962 -0.136360
C95   C     C_R   0.880902 0.827139 0.677492 -0.148397
C96   C     C_R   0.827150 0.880886 0.677490 -0.148125
C97   C     C_R   0.143356 0.089685 0.286967 -0.136265
C98   C     C_R   0.910454 0.143242 0.713284 -0.132694
C99   C     C_R   0.119234 0.827012 0.322621 -0.138569
C100  C     C_R   0.172871 0.119117 0.677476 -0.148794
C101  C     C_R   0.257692 0.312289 0.774180 0.075837
C102  C     C_R   0.856724 0.910391 0.286821 -0.136456
C103  C     C_R   0.089540 0.856775 0.713315 -0.133930
C104  C     C_R   0.880807 0.172960 0.322582 -0.139516
C105  C     C_R   0.496088 0.999905 0.520326 0.061955
C106  C     C_R   0.494568 0.000005 0.479645 0.045666
C107  C     C_R   0.999992 0.494575 0.520355 0.045669
C108  C     C_R   0.999893 0.496112 0.479674 0.061950
C109  C     C_R   0.999994 0.500002 0.020336 0.063054
C110  C     C_R   0.000015 0.499998 0.979663 0.063148
C111  C     C_R   0.500000 0.000004 0.020338 0.063290
C112  C     C_R   0.485230 0.865570 0.479577 -0.073652
C113  C     C_R   0.732375 0.677811 0.237951 0.071777
C114  C     C_R   0.499999 0.000005 0.979664 0.063034
C115  C     C_2   0.500845 0.204613 0.542241 0.455576
C116  C     C_2   0.478551 0.794635 0.458705 0.495378
C117  C     C_2   0.204950 0.496768 0.542095 0.436905
C118  C     C_2   0.794693 0.486625 0.457996 0.373429
C119  C     C_2   0.486186 0.794725 0.542000 0.372978
C120  C     C_2   0.497535 0.204929 0.457892 0.439142
C121  C     C_2   0.794570 0.479193 0.541292 0.495726
C122  C     C_2   0.204587 0.500636 0.457754 0.457968
C123  C     C_2   0.998439 0.704846 0.042173 0.450398
C124  C     C_R   0.677790 0.267639 0.762008 0.075461
C125  C     C_2   0.001980 0.295116 0.957841 0.446992
C126  C     C_2   0.704882 0.000842 0.042153 0.447876
C127  C     C_2   0.295178 0.998750 0.957829 0.452095
C128  C     C_2   0.001377 0.295174 0.042171 0.452163
C129  C     C_2   0.998237 0.704857 0.957841 0.448722
C130  C     C_2   0.295122 0.999165 0.042163 0.447883
C131  C     C_2   0.704817 0.001277 0.957820 0.452103
C132  C     C_R   0.312252 0.742347 0.225789 0.077479
C133  C     C_R   0.742306 0.687716 0.774184 0.075962
C134  C     C_R   0.267602 0.322164 0.237909 0.071854
C135  C     C_R   0.322170 0.267596 0.237911 0.071891
C136  C     C_R   0.687710 0.742310 0.774183 0.075721
C137  C     C_R   0.257656 0.687751 0.225788 0.077429
C138  C     C_R   0.732358 0.322209 0.762007 0.075668
C139  C     C_R   0.677813 0.732385 0.237946 0.071938
C140  C     C_R   0.134652 0.500613 0.520442 -0.064672
C141  C     C_R   0.312285 0.257692 0.774181 0.075849
C142  C     C_R   0.742338 0.312254 0.225794 0.077077
C143  C     C_R   0.267642 0.677791 0.762004 0.074919
C144  C     C_R   0.812260 0.242342 0.274204 0.077067
C145  C     C_R   0.177789 0.767642 0.737997 0.074967
C146  C     C_R   0.767628 0.822192 0.262044 0.072015
C147  C     C_R   0.242308 0.187711 0.725817 0.075920
C148  C     C_R   0.187755 0.757649 0.274219 0.077331
C149  C     C_R   0.822208 0.232365 0.737985 0.076014
C150  C     C_R   0.232400 0.177836 0.262095 0.071871
C151  C     C_R   0.865339 0.488830 0.479548 -0.100383
C152  C     C_R   0.757698 0.812289 0.725823 0.075607
C153  C     C_R   0.812295 0.757695 0.725825 0.076047
C154  C     C_R   0.177831 0.232404 0.262092 0.071898
C155  C     C_R   0.767641 0.177794 0.737987 0.075278
C156  C     C_R   0.242354 0.812242 0.274222 0.077445
C157  C     C_R   0.187715 0.242310 0.725815 0.075468
C158  C     C_R   0.822189 0.767616 0.262053 0.071895
C159  C     C_R   0.232359 0.822210 0.737996 0.074890
C160  C     C_R   0.757663 0.187746 0.274206 0.077157
C161  C     C_R   0.304074 0.804073 0.750000 -0.149108
C162  C     C_R   0.488506 0.865367 0.520450 -0.100224
C163  C     C_R   0.695914 0.195914 0.250001 -0.143667
C164  C     C_R   0.195916 0.304088 0.749998 -0.147654
C165  C     C_R   0.804069 0.695923 0.250002 -0.153927
C166  C     C_R   0.695928 0.195926 0.749999 -0.148036
C167  C     C_R   0.304088 0.804086 0.250003 -0.141998
C168  C     C_R   0.804087 0.695915 0.750003 -0.146936
C169  C     C_R   0.195927 0.304073 0.249999 -0.153755
C170  C     C_R   0.304073 0.195927 0.250003 -0.153808
C171  C     C_R   0.695913 0.804085 0.750001 -0.147777
C172  C     C_R   0.195915 0.695913 0.250001 -0.142870
C173  C     C_R   0.501013 0.134639 0.479557 -0.064668
C174  C     C_R   0.804072 0.304076 0.749998 -0.146652
C175  C     C_R   0.695932 0.804078 0.249996 -0.153223
C176  C     C_R   0.304084 0.195912 0.750001 -0.147581
C177  C     C_R   0.804086 0.304086 0.249999 -0.143890
C178  C     C_R   0.195927 0.695928 0.750000 -0.148847
C179  C     C_R   0.494380 0.934087 0.581430 -0.234107
C180  C     C_R   0.499742 0.065946 0.418614 -0.232569
C181  C     C_R   0.934134 0.493887 0.581425 -0.196060
C182  C     C_R   0.065771 0.502518 0.418642 -0.233496
C183  C     C_R   0.502601 0.065770 0.581359 -0.233256
C184  C     C_R   0.865531 0.485615 0.520422 -0.073574
C185  C     C_R   0.493675 0.934150 0.418573 -0.196688
C186  C     C_R   0.065951 0.499533 0.581386 -0.232400
C187  C     C_R   0.934074 0.494506 0.418568 -0.234403
C188  C     C_R   0.997691 0.434053 0.081401 -0.234113
C189  C     C_R   0.002269 0.565948 0.918599 -0.234042
C190  C     C_R   0.434092 0.996846 0.081405 -0.234780
C191  C     C_R   0.565912 0.003084 0.918595 -0.233987
C192  C     C_R   0.002284 0.565948 0.081404 -0.234287
C193  C     C_R   0.997767 0.434051 0.918596 -0.234241
C194  C     C_R   0.565912 0.003158 0.081403 -0.234759
C195  C     C_R   0.134494 0.502095 0.479548 -0.065580
C196  C     C_R   0.434084 0.996923 0.918598 -0.233949
C197  C     C_R   0.499216 0.999944 0.601609 -0.036965
C198  C     C_R   0.497924 0.000027 0.398386 -0.057991
C199  C     C_R   0.000024 0.497925 0.601613 -0.057906
C200  C     C_R   0.999941 0.499231 0.398390 -0.037148
C201  C     C_R   0.999991 0.499999 0.101622 -0.034065
C202  C     C_R   0.000012 0.500001 0.898379 -0.033729
C203  C     C_R   0.500002 0.000001 0.101622 -0.033640
C204  C     C_R   0.499998 0.000002 0.898377 -0.033896
C205  C     C_R   0.500197 0.067193 0.540743 0.017320
C206  C     C_R   0.002543 0.634708 0.020458 -0.068346
C207  C     C_R   0.490293 0.932758 0.459180 0.054733
C208  C     C_R   0.067357 0.497811 0.540761 0.017305
C209  C     C_R   0.932539 0.493884 0.459223 0.041096
C210  C     C_R   0.493727 0.932555 0.540775 0.041073
C211  C     C_R   0.498024 0.067355 0.459239 0.017166
C212  C     C_R   0.932733 0.490498 0.540818 0.054744
C213  C     C_R   0.067184 0.500110 0.459257 0.017241
C214  C     C_R   0.001356 0.567369 0.040767 0.017756
C215  C     C_R   0.998722 0.432623 0.959233 0.017879
C216  C     C_R   0.567351 0.002206 0.040765 0.017794
H1    H     H_    0.245917 0.562945 0.776175 0.127899
H2    H     H_    0.774248 0.582837 0.799584 0.111125
H3    H     H_    0.417108 0.774323 0.200367 0.110017
H4    H     H_    0.562945 0.245909 0.776186 0.127651
H5    H     H_    0.754111 0.562980 0.223751 0.128592
H6    H     H_    0.225752 0.417177 0.799576 0.111423
H7    H     H_    0.582872 0.225693 0.200386 0.110515
H8    H     H_    0.437058 0.754085 0.776176 0.127940
H9    H     H_    0.725689 0.082896 0.299630 0.110367
H10   H     H_    0.254086 0.937054 0.723823 0.127820
H11   H     H_    0.936998 0.745848 0.276286 0.128478
H12   H     H_    0.774316 0.417100 0.200367 0.110538
H13   H     H_    0.082838 0.274256 0.700412 0.112262
H14   H     H_    0.274348 0.917076 0.299663 0.110899
H15   H     H_    0.745918 0.062949 0.723812 0.127790
H16   H     H_    0.063031 0.254185 0.276338 0.128451
H17   H     H_    0.917189 0.725759 0.700433 0.111116
H18   H     H_    0.725761 0.917172 0.700427 0.111695
H19   H     H_    0.254178 0.063046 0.276351 0.128433
H20   H     H_    0.937050 0.254099 0.723801 0.127863
H21   H     H_    0.082900 0.725673 0.299643 0.110596
H22   H     H_    0.274247 0.082823 0.700421 0.111424
H23   H     H_    0.417168 0.225751 0.799581 0.111369
H24   H     H_    0.745899 0.937028 0.276236 0.128451
H25   H     H_    0.062940 0.745919 0.723828 0.127737
H26   H     H_    0.917123 0.274313 0.299618 0.110497
H27   H     H_    0.034689 0.869961 0.703861 0.136095
H28   H     H_    0.928028 0.167477 0.341256 0.131285
H29   H     H_    0.167369 0.071879 0.658814 0.132475
H30   H     H_    0.869899 0.965226 0.296310 0.135653
H31   H     H_    0.965302 0.130062 0.703821 0.135932
H32   H     H_    0.072021 0.832489 0.341302 0.131550
H33   H     H_    0.832656 0.928122 0.658830 0.132845
H34   H     H_    0.563000 0.754148 0.223718 0.128267
H35   H     H_    0.130207 0.034873 0.296500 0.135093
H36   H     H_    0.034853 0.130223 0.296490 0.135575
H37   H     H_    0.928143 0.832643 0.658833 0.132301
H38   H     H_    0.167522 0.927960 0.341316 0.131927
H39   H     H_    0.869958 0.034707 0.703827 0.136029
H40   H     H_    0.965226 0.869853 0.296341 0.135379
H41   H     H_    0.071892 0.167370 0.658809 0.133592
H42   H     H_    0.832534 0.071999 0.341264 0.131267
H43   H     H_    0.130043 0.965307 0.703857 0.136127
H44   H     H_    0.571970 0.332528 0.158747 0.130975
H45   H     H_    0.754081 0.437055 0.776182 0.127075
H46   H     H_    0.465310 0.630044 0.796145 0.136123
H47   H     H_    0.630109 0.534778 0.203681 0.135623
H48   H     H_    0.332635 0.428127 0.841180 0.132108
H49   H     H_    0.428003 0.667493 0.158718 0.130917
H50   H     H_    0.534691 0.369949 0.796162 0.136020
H51   H     H_    0.369802 0.465132 0.203515 0.135613
H52   H     H_    0.667362 0.571896 0.841188 0.131996
H53   H     H_    0.571877 0.667378 0.841187 0.132132
H54   H     H_    0.465153 0.369780 0.203521 0.135515
H55   H     H_    0.630039 0.465301 0.796161 0.135962
H56   H     H_    0.225677 0.582903 0.200358 0.110364
H57   H     H_    0.332511 0.572013 0.158711 0.130925
H58   H     H_    0.428116 0.332640 0.841182 0.132064
H59   H     H_    0.534775 0.630144 0.203661 0.135665
H60   H     H_    0.369959 0.534695 0.796144 0.136097
H61   H     H_    0.667470 0.427999 0.158734 0.131022
H62   H     H_    0.490209 0.884153 0.597989 0.162914
H63   H     H_    0.504060 0.116134 0.402221 0.165727
H64   H     H_    0.883983 0.494727 0.597910 0.201259
H65   H     H_    0.115984 0.507117 0.402273 0.165817
H66   H     H_    0.507314 0.115967 0.597730 0.165706
H67   H     H_    0.582823 0.774254 0.799581 0.111454
H68   H     H_    0.494342 0.883996 0.402087 0.201185
H69   H     H_    0.116145 0.503718 0.597782 0.165615
H70   H     H_    0.884134 0.490410 0.402008 0.162999
H71   H     H_    0.994855 0.383773 0.097814 0.164603
H72   H     H_    0.005126 0.616219 0.902182 0.164480
H73   H     H_    0.383878 0.993229 0.097828 0.164302
H74   H     H_    0.616151 0.006529 0.902178 0.164462
H75   H     H_    0.005156 0.616221 0.097822 0.164522
H76   H     H_    0.994873 0.383786 0.902175 0.164384
H77   H     H_    0.616125 0.006775 0.097825 0.164319
H78   H     H_    0.436971 0.245816 0.223666 0.128443
H79   H     H_    0.383845 0.993475 0.902182 0.164481
H80   H     H_    0.456621 0.215441 0.562396 0.035425
H81   H     H_    0.513771 0.749169 0.466470 0.079177
H82   H     H_    0.213246 0.454035 0.563451 0.040255
H83   H     H_    0.784446 0.524966 0.434654 0.065662
H84   H     H_    0.524542 0.784398 0.565327 0.066368
H85   H     H_    0.454587 0.213592 0.436698 0.038931
H86   H     H_    0.749218 0.514546 0.533508 0.079042
H87   H     H_    0.215623 0.456173 0.437778 0.034074
H88   H     H_    0.954385 0.713755 0.062693 0.035807
H89   H     H_    0.245828 0.436957 0.223658 0.128426
H90   H     H_    0.045666 0.286648 0.937051 0.037423
H91   H     H_    0.713920 0.957345 0.062983 0.037107
H92   H     H_    0.285447 0.042954 0.937511 0.036670
H93   H     H_    0.045666 0.286008 0.062516 0.035352
H94   H     H_    0.954326 0.713571 0.937214 0.036938
H95   H     H_    0.286072 0.042677 0.062984 0.037089
H96   H     H_    0.714567 0.957056 0.937511 0.036648
O1    O     O_3   1.000000 0.500000 0.750000 -0.492566
O2    O     O_R   0.060740 0.500000 0.337440 -0.643091
O3    O     O_R   0.500000 0.939260 0.662560 -0.644379
O4    O     O_R   0.500000 0.060740 0.337440 -0.643370
O5    O     O_R   0.560740 0.000000 0.162560 -0.643721
O6    O     O_R   0.439260 0.000000 0.837440 -0.643523
O7    O     O_R   0.000000 0.560740 0.162560 -0.643605
O8    O     O_R   1.000000 0.439260 0.837440 -0.643661
O9    O     O_R   0.439260 0.000000 0.162560 -0.643753
O10   O     O_R   0.560740 0.000000 0.837440 -0.643558
O11   O     O_R   0.000000 0.439260 0.162560 -0.643577
O12   O     O_3   1.000000 0.500000 0.250000 -0.491038
O13   O     O_R   1.000000 0.560740 0.837440 -0.643560
O14   O     O_R   0.853850 0.585450 0.727070 -0.634857
O15   O     O_R   0.146150 0.414550 0.272930 -0.637046
O16   O     O_R   0.414550 0.853850 0.727070 -0.635389
O17   O     O_R   0.585450 0.146150 0.272930 -0.633777
O18   O     O_R   0.146150 0.414550 0.727070 -0.635990
O19   O     O_R   0.853850 0.585450 0.272930 -0.637340
O20   O     O_R   0.585450 0.146150 0.727070 -0.633668
O21   O     O_R   0.414550 0.853850 0.272930 -0.628376
O22   O     O_R   0.853850 0.414550 0.272930 -0.634111
O23   O     O_3   0.500000 0.000000 0.750000 -0.491213
O24   O     O_R   0.146150 0.585450 0.727070 -0.635103
O25   O     O_R   0.414550 0.146150 0.272930 -0.637141
O26   O     O_R   0.585450 0.853850 0.727070 -0.636144
O27   O     O_R   0.146150 0.585450 0.272930 -0.632459
O28   O     O_R   0.853850 0.414550 0.727070 -0.629448
O29   O     O_R   0.585450 0.853850 0.272930 -0.636006
O30   O     O_R   0.414550 0.146150 0.727070 -0.635910
O31   O     O_R   0.353850 0.085450 0.227070 -0.637153
O32   O     O_R   0.646150 0.914550 0.772930 -0.635821
O33   O     O_R   0.914550 0.353850 0.227070 -0.632999
O34   O     O_3   0.500000 0.000000 0.250000 -0.492307
O35   O     O_R   0.085450 0.646150 0.772930 -0.634437
O36   O     O_R   0.646150 0.914550 0.227070 -0.637496
O37   O     O_R   0.353850 0.085450 0.772930 -0.635898
O38   O     O_R   0.085450 0.646150 0.227070 -0.633608
O39   O     O_R   0.914550 0.353850 0.772930 -0.636100
O40   O     O_R   0.353850 0.914550 0.772930 -0.634335
O41   O     O_R   0.646150 0.085450 0.227070 -0.633289
O42   O     O_R   0.914550 0.646150 0.772930 -0.636329
O43   O     O_R   0.085450 0.353850 0.227070 -0.637100
O44   O     O_R   0.646150 0.085450 0.772930 -0.635000
O45   O     O_R   0.060740 0.500000 0.662560 -0.643343
O46   O     O_R   0.353850 0.914550 0.227070 -0.634713
O47   O     O_R   0.085450 0.353850 0.772930 -0.635933
O48   O     O_R   0.914550 0.646150 0.227070 -0.637047
O49   O     O_2   0.550579 0.248757 0.539278 -0.454217
O50   O     O_2   0.431220 0.785397 0.434251 -0.526540
O51   O     O_2   0.252562 0.542696 0.537476 -0.456651
O52   O     O_2   0.748029 0.441117 0.465698 -0.496823
O53   O     O_2   0.440570 0.748155 0.534318 -0.497275
O54   O     O_2   0.544038 0.252058 0.462288 -0.456002
O55   O     O_2   0.785173 0.431928 0.565764 -0.526818
O56   O     O_R   0.939260 0.500000 0.337440 -0.644442
O57   O     O_2   0.248443 0.550671 0.460496 -0.454141
O58   O     O_2   0.045763 0.751418 0.038638 -0.450336
O59   O     O_2   0.955354 0.247950 0.961731 -0.450705
O60   O     O_2   0.751424 0.048072 0.038222 -0.450577
O61   O     O_2   0.249589 0.950426 0.961108 -0.450762
O62   O     O_2   0.953660 0.248945 0.038856 -0.450259
O63   O     O_2   0.045265 0.751688 0.961519 -0.450510
O64   O     O_2   0.248597 0.951912 0.038247 -0.450650
O65   O     O_2   0.750379 0.049631 0.961082 -0.450877
O66   O     O_R   0.500000 0.060740 0.662560 -0.642986
O67   O     O_R   0.500000 0.939260 0.337440 -0.639499
O68   O     O_R   0.939260 0.500000 0.662560 -0.639259
Zn1   Zn    Zn3+2 0.000000 0.586740 0.782740 0.968243
Zn2   Zn    Zn3+2 0.500000 0.913260 0.717260 0.967488
Zn3   Zn    Zn3+2 0.913260 0.500000 0.282740 0.966973
Zn4   Zn    Zn3+2 0.086740 0.500000 0.717260 0.968693
Zn5   Zn    Zn3+2 0.500000 0.913260 0.282740 0.977247
Zn6   Zn    Zn3+2 0.500000 0.086740 0.717260 0.969768
Zn7   Zn    Zn3+2 0.086740 0.500000 0.282740 0.969212
Zn8   Zn    Zn3+2 0.913260 0.500000 0.717260 0.978086
Zn9   Zn    Zn3+2 1.000000 0.413260 0.217260 0.968430
Zn10  Zn    Zn3+2 0.413260 0.000000 0.782740 0.968860
Zn11  Zn    Zn3+2 0.586740 0.000000 0.217260 0.967630
Zn12  Zn    Zn3+2 1.000000 0.413260 0.782740 0.968518
Zn13  Zn    Zn3+2 0.000000 0.586740 0.217260 0.968318
Zn14  Zn    Zn3+2 0.586740 0.000000 0.782740 0.968816
Zn15  Zn    Zn3+2 0.413260 0.000000 0.217260 0.967871
Zn16  Zn    Zn3+2 0.500000 0.086740 0.282740 0.968213

loop_
_geom_bond_atom_site_label_1
_geom_bond_atom_site_label_2
_ccdc_geom_bond_type
C183  H66   S    
C127  O61   D    
C49   H6    S    
C185  C207  A    
C102  H30   S    
C119  H84   S    
C15   O11   A    
C46   C129  S    
O34   Zn15  S    
C151  C184  A    
C183  C197  A    
C63   C98   A    
C87   H42   S    
C69   H26   S    
C37   H23   S    
C142  C177  A    
O43   Zn9   S    
C12   C203  S    
C125  H90   S    
C36   C142  A    
C60   C153  A    
C100  H29   S    
C7    C68   A    
C50   C90   A    
O18   Zn4   S    
C131  O65   D    
C134  C169  A    
C33   O37   A    
C138  C174  A    
C24   C127  S    
C159  C161  A    
O1    Zn12  S    
C91   C100  A    
C65   C147  A    
C95   H37   S    
C108  C213  A    
C9    C200  S    
C206  C214  A    
C10   O3    A    
O13   Zn1   S    
O67   Zn5   S    
O12   Zn13  S    
C96   H33   S    
C79   C161  A    
C16   C202  S    
C34   C143  A    
C53   C159  A    
C117  O51   D    
C160  C163  A    
C115  O49   D    
C44   H2    S    
C39   H45   S    
C147  C176  A    
C107  C212  A    
C162  C210  A    
C94   C97   A    
C132  C137  A    
C20   C163  S    
C105  C210  A    
O3    Zn2   S    
C68   C131  S    
C188  H71   S    
C76   H53   S    
C26   O33   A    
C27   O35   A    
O12   Zn3   S    
C72   C84   A    
O44   Zn14  S    
C25   O21   A    
C28   C170  S    
O23   Zn2   S    
O37   Zn10  S    
C122  O57   D    
C153  C168  A    
C186  C199  A    
C120  H85   S    
C131  H96   S    
C30   O27   A    
C130  O64   D    
C62   C150  A    
C66   H24   S    
C45   C81   A    
C60   H17   S    
C94   H36   S    
O17   Zn16  S    
C75   C81   A    
C5    C46   A    
C186  C208  A    
C187  C200  A    
O6    Zn10  S    
C149  C155  A    
C5    C189  A    
C17   O14   A    
C41   C76   A    
C113  C165  A    
C4    C188  A    
C19   O16   A    
C150  C170  A    
C127  H92   S    
C185  H68   S    
C54   H11   S    
C66   C146  A    
C180  C198  A    
C19   O40   A    
C60   C95   A    
C126  H91   S    
C45   C132  A    
C43   H89   S    
C1    C115  S    
O66   Zn6   S    
C158  C165  A    
C52   C160  A    
C4    C109  A    
C6    C111  A    
C83   H47   S    
C27   C178  S    
C56   C156  A    
O1    Zn4   S    
C61   C96   A    
C67   C103  A    
C97   H35   S    
C69   C144  A    
C1    C173  A    
C49   C84   A    
O11   Zn9   S    
C145  C159  A    
C143  C178  A    
C190  H73   S    
C5    C110  A    
C118  O52   D    
C135  C170  A    
C194  H77   S    
C63   H20   S    
C64   C99   A    
C79   C143  A    
C16   O13   A    
C42   H78   S    
C24   C57   A    
C137  C172  A    
C14   C204  S    
C67   C145  A    
C107  C108  A    
C113  C139  A    
C12   O9    A    
C39   C138  A    
C64   C148  A    
C81   H49   S    
C12   O5    A    
C3    C24   A    
C31   O39   A    
C32   O29   A    
C15   C201  S    
C193  C215  A    
C40   H56   S    
C32   C175  S    
C11   O67   A    
C70   H60   S    
C57   C130  S    
C109  C214  A    
C133  C168  A    
C16   O8    A    
O23   Zn6   S    
C128  H93   S    
C196  H79   S    
O27   Zn7   S    
C182  C213  A    
C62   C97   A    
C192  C201  A    
O32   Zn14  S    
C29   C171  S    
C157  C164  A    
C30   C172  S    
C121  C184  S    
C116  H81   S    
C183  C205  A    
C65   H22   S    
C196  C204  A    
C181  C199  A    
C10   C197  S    
C112  C116  S    
C22   O48   A    
C144  C160  A    
C49   C101  A    
C26   C177  S    
C46   C206  A    
C62   H19   S    
O35   Zn1   S    
C80   H52   S    
C123  O58   D    
C84   H48   S    
C76   C80   A    
C112  C207  A    
C3    C114  A    
O34   Zn16  S    
C36   C71   A    
C134  C135  A    
C146  C158  A    
C119  O53   D    
C189  C202  A    
C47   H4    S    
C121  H86   S    
C48   C83   A    
C78   H51   S    
C123  H88   S    
C11   C198  S    
C38   H34   S    
C22   O19   A    
C192  H75   S    
C106  C211  A    
C73   C83   A    
C39   C74   A    
C140  C195  A    
C51   C79   A    
O9    Zn15  S    
C2    C125  S    
C152  C153  A    
C42   C77   A    
C21   O18   A    
C92   C99   A    
C13   C68   A    
C14   O6    A    
C2    C35   A    
O25   Zn16  S    
O8    Zn12  S    
C132  C167  A    
C122  C195  S    
C33   O30   A    
C14   O10   A    
C77   C78   A    
C43   C78   A    
C179  C210  A    
C71   H61   S    
C37   C141  A    
C181  C212  A    
C72   H58   S    
C7    C114  A    
C124  C138  A    
C58   C93   A    
C125  O59   D    
C194  C216  A    
C187  H70   S    
C11   O4    A    
O45   Zn4   S    
C51   C86   A    
C149  C174  A    
C19   C161  S    
C18   O15   A    
C33   C176  S    
C55   H13   S    
O56   Zn3   S    
C55   C91   A    
C50   C85   A    
O29   Zn5   S    
O34   Zn5   S    
O42   Zn1   S    
C179  H62   S    
C10   O66   A    
C89   H40   S    
C145  C178  A    
C141  C176  A    
C38   C139  A    
C59   C94   A    
C34   C70   A    
C4    C35   A    
C2    C215  A    
C21   C164  S    
O7    Zn13  S    
C6    C57   A    
C7    C191  A    
C173  C211  A    
C74   C82   A    
O22   Zn3   S    
C140  C208  A    
C119  C162  S    
C59   C154  A    
C50   H7    S    
C34   H1    S    
O33   Zn9   S    
C147  C157  A    
C122  H87   S    
C21   O47   A    
C44   C80   A    
C182  C200  A    
C111  C216  A    
C129  O63   D    
C106  C207  A    
C15   O7    A    
O40   Zn10  S    
O24   Zn4   S    
C117  H82   S    
C17   C168  S    
C193  C202  A    
C123  C206  S    
C42   C135  A    
C43   C134  A    
C91   H41   S    
C86   H46   S    
C53   H10   S    
O10   Zn14  S    
C51   H8    S    
C146  C175  A    
C56   H14   S    
C82   H50   S    
O21   Zn5   S    
C64   H21   S    
C90   C142  A    
C13   C126  S    
C25   O46   A    
C117  C140  S    
C191  C204  A    
O41   Zn11  S    
O5    Zn11  S    
C17   O42   A    
C18   C169  S    
O23   Zn10  S    
O12   Zn9   S    
C29   O32   A    
C101  C164  A    
C20   O41   A    
C65   C100  A    
C120  O54   D    
C186  H69   S    
C181  H64   S    
C74   H55   S    
C93   H39   S    
C105  C205  A    
C105  C106  A    
C3    C196  A    
C40   C75   A    
C90   C163  A    
C9    O56   A    
C110  C215  A    
C109  C110  A    
O34   Zn11  S    
C47   C124  A    
C111  C114  A    
O46   Zn15  S    
C126  O60   D    
C35   C128  S    
C195  C213  A    
O15   Zn7   S    
C87   C104  A    
C55   C157  A    
C144  C177  A    
C154  C169  A    
C27   O24   A    
C18   O43   A    
C37   C72   A    
O38   Zn13  S    
C148  C156  A    
C48   C113  A    
C191  H74   S    
C89   C102  A    
O12   Zn7   S    
C66   C102  A    
O1    Zn8   S    
C139  C175  A    
C95   C96   A    
C182  H65   S    
C108  C209  A    
C67   H25   S    
C25   C167  S    
C118  H83   S    
C13   C216  A    
O1    Zn1   S    
C190  C203  A    
C48   H5    S    
C155  C166  A    
C188  C201  A    
O48   Zn13  S    
C47   C82   A    
C63   C149  A    
C58   H15   S    
C71   C85   A    
C22   C165  S    
O20   Zn6   S    
O26   Zn2   S    
C133  C136  A    
C103  H27   S    
C136  C171  A    
C185  C198  A    
O68   Zn8   S    
C1    C205  A    
O2    Zn7   S    
C88   H43   S    
C28   O25   A    
C29   O26   A    
C36   H12   S    
C40   C137  A    
C61   H18   S    
C32   O36   A    
C101  C141  A    
C180  H63   S    
C59   H16   S    
C193  H76   S    
C192  C214  A    
C20   O17   A    
C184  C212  A    
C130  H95   S    
C187  C209  A    
C54   C89   A    
C152  C171  A    
O30   Zn6   S    
C179  C197  A    
C156  C167  A    
C104  H28   S    
O28   Zn8   S    
O16   Zn2   S    
C180  C211  A    
O47   Zn12  S    
C54   C158  A    
C23   C166  S    
C120  C173  S    
C23   O20   A    
C128  O62   D    
C6    C190  A    
O14   Zn8   S    
C107  C208  A    
C26   O22   A    
O4    Zn16  S    
C124  C166  A    
C45   H3    S    
C70   C86   A    
C88   C103  A    
C9    O2    A    
C69   C104  A    
C116  O50   D    
C44   C133  A    
C151  C209  A    
C115  H80   S    
C121  O55   D    
C52   C87   A    
O31   Zn15  S    
C41   H67   S    
C129  H94   S    
C112  C162  A    
C8    O45   A    
C23   O44   A    
C98   H31   S    
C73   H59   S    
C194  C203  A    
O39   Zn12  S    
C148  C172  A    
C53   C88   A    
O19   Zn3   S    
C85   H44   S    
C118  C151  S    
C61   C152  A    
C58   C155  A    
O36   Zn11  S    
C52   H9    S    
C56   C92   A    
O23   Zn14  S    
C30   O38   A    
C150  C154  A    
C189  H72   S    
C77   H54   S    
C8    O68   A    
C8    C199  S    
C99   H32   S    
C93   C98   A    
C31   C174  S    
C41   C136  A    
C75   H57   S    
C31   O28   A    
C28   O31   A    
C92   H38   S    
C38   C73   A    
