data_mof_unit_61463.cif
_audit_creation_date              2012-12-10T19:29:26-0500
_audit_creation_method            fapswitch 2.2
_symmetry_space_group_name_H-M    P1
_symmetry_Int_Tables_number       1
_space_group_crystal_system       triclinic
_cell_length_a                    22.281317
_cell_length_b                    22.277727
_cell_length_c                    14.94396
_cell_angle_alpha                 90.0
_cell_angle_beta                  90.078923
_cell_angle_gamma                 89.999937
_cell_volume                      7417.83245001

loop_
_atom_site_label
_atom_site_type_symbol
_atom_type_description
_atom_site_fract_x
_atom_site_fract_y
_atom_site_fract_z
_atom_type_partial_charge
C1    C     C_R   0.418794 0.918745 0.499945 0.899521
C2    C     C_R   0.581206 0.081254 0.500055 0.899528
C3    C     C_R   0.581206 0.918745 0.500055 0.899523
C4    C     C_R   0.418794 0.081254 0.499945 0.899526
C5    C     C_R   0.918794 0.418746 0.499945 0.899528
C6    C     C_R   0.081206 0.581254 0.500055 0.899521
C7    C     C_R   0.081206 0.418746 0.500055 0.899527
C8    C     C_R   0.918794 0.581254 0.499945 0.899523
C9    C     C_1   0.337182 0.163540 0.499938 0.117828
C10   C     C_1   0.662818 0.836460 0.500062 0.117827
C11   C     C_1   0.662818 0.163540 0.500062 0.117823
C12   C     C_1   0.337182 0.836460 0.499938 0.117824
C13   C     C_1   0.837182 0.663540 0.499938 0.117827
C14   C     C_1   0.162818 0.336460 0.500062 0.117828
C15   C     C_1   0.162818 0.663540 0.500062 0.117824
C16   C     C_1   0.837182 0.336460 0.499938 0.117823
C17   C     C_1   0.500019 0.000000 0.189690 0.094414
C18   C     C_1   0.499981 1.000000 0.810310 0.094406
C19   C     C_1   0.000019 0.500000 0.189690 0.094406
C20   C     C_1   0.999981 0.500000 0.810310 0.094414
C21   C     C_3   0.471802 0.950738 0.969834 -0.136032
C22   C     C_3   0.528197 0.049262 0.030166 -0.136044
C23   C     C_3   0.528561 0.950948 0.030167 -0.136022
C24   C     C_3   0.471439 0.049052 0.969833 -0.136026
C25   C     C_3   0.971802 0.450738 0.969834 -0.136044
C26   C     C_3   0.028198 0.549262 0.030166 -0.136032
C27   C     C_3   0.028561 0.450948 0.030167 -0.136026
C28   C     C_3   0.971439 0.549052 0.969833 -0.136021
C29   C     C_3   0.700794 0.728571 0.542482 -0.372416
C30   C     C_3   0.299196 0.271419 0.457482 -0.372414
C31   C     C_3   0.299207 0.728570 0.457522 -0.372414
C32   C     C_3   0.700834 0.271389 0.542629 -0.372423
C33   C     C_3   0.200804 0.228581 0.542518 -0.372414
C34   C     C_3   0.799206 0.771429 0.457518 -0.372416
C35   C     C_3   0.799166 0.228611 0.457371 -0.372423
C36   C     C_3   0.200793 0.771430 0.542478 -0.372414
C37   C     C_3   0.229983 0.201545 0.458040 0.701697
C38   C     C_3   0.770007 0.798445 0.541995 0.701700
C39   C     C_3   0.770047 0.201515 0.541852 0.701698
C40   C     C_3   0.229993 0.798444 0.458001 0.701690
C41   C     C_3   0.729992 0.701555 0.458005 0.701700
C42   C     C_3   0.270017 0.298455 0.541960 0.701697
C43   C     C_3   0.270007 0.701556 0.541999 0.701690
C44   C     C_3   0.729953 0.298484 0.458148 0.701698
C45   C     C_1   0.374593 0.125805 0.499854 -0.127945
C46   C     C_1   0.625407 0.874194 0.500146 -0.127945
C47   C     C_1   0.625407 0.125805 0.500146 -0.127950
C48   C     C_1   0.374593 0.874194 0.499854 -0.127948
C49   C     C_1   0.874593 0.625805 0.499854 -0.127945
C50   C     C_1   0.125407 0.374194 0.500146 -0.127945
C51   C     C_1   0.125407 0.625805 0.500146 -0.127948
C52   C     C_1   0.874592 0.374195 0.499854 -0.127950
C53   C     C_3   0.263894 0.236050 0.584957 0.097132
C54   C     C_3   0.736125 0.763970 0.415043 0.097132
C55   C     C_3   0.736046 0.236111 0.415042 0.097132
C56   C     C_3   0.263872 0.763971 0.584958 0.097132
C57   C     C_3   0.763875 0.736030 0.584957 0.097132
C58   C     C_3   0.236106 0.263950 0.415043 0.097132
C59   C     C_3   0.236127 0.736029 0.415042 0.097132
C60   C     C_3   0.763954 0.263889 0.584958 0.097132
C61   C     C_3   0.291973 0.209009 0.500336 -0.127966
C62   C     C_3   0.708027 0.790991 0.499663 -0.127967
C63   C     C_3   0.708027 0.209009 0.499665 -0.127960
C64   C     C_3   0.291972 0.790991 0.500337 -0.127964
C65   C     C_3   0.791972 0.709009 0.500337 -0.127967
C66   C     C_3   0.208027 0.290991 0.499664 -0.127966
C67   C     C_3   0.208028 0.709009 0.499663 -0.127964
C68   C     C_3   0.791973 0.290991 0.500335 -0.127960
C69   C     C_3   0.443252 0.999790 0.030009 -0.132317
C70   C     C_3   0.556748 0.000210 0.969991 -0.132329
C71   C     C_3   0.943252 0.499790 0.030009 -0.132329
C72   C     C_3   0.056748 0.500210 0.969991 -0.132318
C73   C     C_3   0.500010 0.000000 0.089228 0.081555
C74   C     C_3   0.499990 1.000000 0.910772 0.081556
C75   C     C_3   0.000010 0.500000 0.089228 0.081555
C76   C     C_3   0.999990 0.500000 0.910772 0.081555
H1    H     H_    0.603716 0.000384 0.945321 0.163975
H2    H     H_    0.396284 0.999616 0.054679 0.163983
H3    H     H_    0.103716 0.500384 0.945321 0.163983
H4    H     H_    0.896284 0.499616 0.054679 0.163975
H5    H     H_    0.659857 0.711609 0.576358 0.216037
H6    H     H_    0.340125 0.288373 0.423576 0.216039
H7    H     H_    0.340145 0.711607 0.423649 0.216036
H8    H     H_    0.659929 0.288319 0.576626 0.216032
H9    H     H_    0.159875 0.211626 0.576424 0.216039
H10   H     H_    0.840143 0.788391 0.423642 0.216037
H11   H     H_    0.840071 0.211681 0.423374 0.216033
H12   H     H_    0.159855 0.788393 0.576351 0.216036
H13   H     H_    0.552203 0.910354 0.054973 0.162797
H14   H     H_    0.447797 0.089646 0.945027 0.162796
H15   H     H_    0.448461 0.909970 0.945029 0.162773
H16   H     H_    0.551539 0.090030 0.054971 0.162769
H17   H     H_    0.052203 0.410354 0.054973 0.162796
H18   H     H_    0.947797 0.589646 0.945027 0.162797
H19   H     H_    0.948461 0.409970 0.945029 0.162769
H20   H     H_    0.051539 0.590030 0.054971 0.162773
N1    N     N_1   0.500020 0.000000 0.268010 -0.079412
N2    N     N_1   0.499980 0.000000 0.731990 -0.079414
N3    N     N_1   0.000020 0.500000 0.268010 -0.079413
N4    N     N_1   0.999980 0.500000 0.731990 -0.079412
O1    O     O_R   0.438390 0.938390 0.574460 -0.605013
O2    O     O_R   0.561610 0.061610 0.425540 -0.605008
O3    O     O_R   0.561610 0.938390 0.425540 -0.605015
O4    O     O_R   0.438390 0.061610 0.574460 -0.605015
O5    O     O_R   0.938390 0.438390 0.574460 -0.605008
O6    O     O_R   0.061610 0.561610 0.425540 -0.605013
O7    O     O_R   0.061610 0.438390 0.425540 -0.605015
O8    O     O_R   0.938390 0.561610 0.574460 -0.605015
O9    O     O_R   0.438400 0.938390 0.425520 -0.603260
O10   O     O_R   0.561600 0.061610 0.574480 -0.603275
O11   O     O_R   0.561600 0.938390 0.574480 -0.603260
O12   O     O_R   0.438400 0.061610 0.425520 -0.603260
O13   O     O_R   0.938400 0.438390 0.425520 -0.603275
O14   O     O_R   0.061600 0.561610 0.574480 -0.603260
O15   O     O_R   0.061600 0.438390 0.574480 -0.603260
O16   O     O_R   0.938400 0.561610 0.425520 -0.603259
Zn1   Zn    Zn3+2 0.500000 0.000000 0.599450 1.024589
Zn2   Zn    Zn3+2 0.500000 1.000000 0.400550 1.024599
Zn3   Zn    Zn3+2 0.000000 0.500000 0.599450 1.024599
Zn4   Zn    Zn3+2 0.000000 0.500000 0.400550 1.024589
F1    F     F_    0.210525 0.150384 0.414387 -0.599594
F2    F     F_    0.789455 0.849596 0.585685 -0.599590
F3    F     F_    0.789535 0.150323 0.585394 -0.599590
F4    F     F_    0.210547 0.849595 0.414308 -0.599600
F5    F     F_    0.710545 0.650404 0.414314 -0.599590
F6    F     F_    0.289475 0.349616 0.585613 -0.599594
F7    F     F_    0.289453 0.650405 0.585692 -0.599600
F8    F     F_    0.710465 0.349677 0.414606 -0.599590
I1    I     I_    0.712738 0.785825 0.280300 -0.199171
I2    I     I_    0.287313 0.214226 0.719699 -0.199176
I3    I     I_    0.287256 0.785829 0.719702 -0.199146
I4    I     I_    0.712532 0.214382 0.280302 -0.199190
I5    I     I_    0.212687 0.285774 0.280301 -0.199176
I6    I     I_    0.787262 0.714175 0.719700 -0.199171
I7    I     I_    0.787468 0.285617 0.719698 -0.199189
I8    I     I_    0.212744 0.714171 0.280298 -0.199147

loop_
_geom_bond_atom_site_label_1
_geom_bond_atom_site_label_2
_ccdc_geom_bond_type
C17   C73   S    
C9    C45   T    
C26   C72   S    
O7    Zn4   S    
C37   C58   S    
C11   C47   T    
O8    Zn3   S    
C72   C76   S    
O5    Zn3   S    
C36   C67   S    
C31   H7    S    
C5    O5    A    
C36   H12   S    
C32   H8    S    
C31   C43   S    
C9    C61   S    
C22   C24   S    
C37   F1    S    
C72   H3    S    
C11   C63   S    
C42   C53   S    
C12   C64   S    
C2    O2    A    
C31   C59   S    
O13   Zn4   S    
C4    O4    A    
C59   I8    S    
C39   F3    S    
C20   C76   S    
C28   H18   S    
C34   H10   S    
C7    O15   A    
N1    Zn2   S    
C33   H9    S    
C70   C74   S    
C6    O14   A    
C59   C67   S    
N3    Zn4   S    
C53   C61   S    
C58   C66   S    
C44   F8    S    
C3    O11   A    
C55   C63   S    
C24   C69   S    
C56   C64   S    
C5    C52   S    
C69   C73   S    
C16   C68   S    
C15   C51   T    
C6    C51   S    
O14   Zn3   S    
O2    Zn2   S    
C12   C48   T    
C1    O9    A    
C4    O12   A    
C18   C74   S    
C40   C59   S    
C70   H1    S    
C33   C53   S    
C23   C70   S    
C69   H2    S    
C10   C62   S    
C35   H11   S    
C23   C73   S    
C27   C75   S    
C8    O8    A    
C34   C65   S    
C71   H4    S    
O9    Zn2   S    
C4    C45   S    
C58   I5    S    
C26   H20   S    
C40   F4    S    
C35   C55   S    
C41   F5    S    
C36   C40   S    
C32   C63   S    
C43   F7    S    
C19   N3    T    
C13   C65   S    
C54   C62   S    
C8    O16   A    
C21   C74   S    
C33   C37   S    
O16   Zn4   S    
C21   C69   S    
C30   H6    S    
C35   C39   S    
C29   H5    S    
C36   C56   S    
O12   Zn2   S    
C38   C57   S    
C5    O13   A    
C20   N4    T    
C15   C67   S    
C33   C66   S    
C23   H13   S    
C26   C75   S    
C14   C66   S    
N4    Zn3   S    
C6    O6    A    
C60   I7    S    
C60   C68   S    
C38   F2    S    
C25   C71   S    
C29   C57   S    
C25   H19   S    
O15   Zn3   S    
C21   C23   S    
C13   C49   T    
C57   I6    S    
C27   H17   S    
O3    Zn2   S    
C32   C60   S    
C28   C76   S    
C1    O1    A    
C10   C46   T    
N2    Zn1   S    
O4    Zn1   S    
C21   H15   S    
C3    O3    A    
C54   I1    S    
C29   C62   S    
C2    O10   A    
C29   C41   S    
C34   C38   S    
C31   C64   S    
O6    Zn4   S    
C16   C52   T    
C7    C50   S    
C57   C65   S    
C24   H14   S    
C37   C61   S    
C1    C48   S    
C34   C54   S    
C2    C47   S    
C25   C27   S    
C39   C63   S    
C3    C46   S    
C26   C28   S    
C40   C64   S    
O11   Zn1   S    
C25   C76   S    
O1    Zn1   S    
C19   C75   S    
C71   C75   S    
C44   C55   S    
C24   C74   S    
C14   C50   T    
C35   C68   S    
O10   Zn1   S    
C39   C60   S    
C30   C58   S    
C7    O7    A    
C41   C65   S    
C41   C54   S    
C56   I3    S    
C44   C68   S    
C42   F6    S    
C28   C71   S    
C43   C56   S    
C32   C44   S    
C43   C67   S    
C55   I4    S    
C30   C61   S    
C42   C66   S    
C22   H16   S    
C30   C42   S    
C53   I2    S    
C18   N2    T    
C22   C73   S    
C17   N1    T    
C8    C49   S    
C22   C70   S    
C27   C72   S    
C38   C62   S    
