data_mof_unit_63735.cif
_audit_creation_date              2012-12-10T17:37:41-0500
_audit_creation_method            fapswitch 2.2
_symmetry_space_group_name_H-M    P1
_symmetry_Int_Tables_number       1
_space_group_crystal_system       triclinic
_cell_length_a                    38.838926
_cell_length_b                    45.353784
_cell_length_c                    29.842361
_cell_angle_alpha                 90.138933
_cell_angle_beta                  130.733122
_cell_angle_gamma                 89.819301
_cell_volume                      39832.8886688

loop_
_atom_site_label
_atom_site_type_symbol
_atom_type_description
_atom_site_fract_x
_atom_site_fract_y
_atom_site_fract_z
_atom_type_partial_charge
C1    C     C_R   0.290146 0.209880 0.080169 0.830047
C2    C     C_R   0.710215 0.209887 0.919848 0.832242
C3    C     C_R   0.790052 0.709883 0.080166 0.821492
C4    C     C_R   0.210002 0.709887 0.919844 0.822104
C5    C     C_R   0.355708 0.248504 0.002860 -0.160459
C6    C     C_R   0.644611 0.249325 0.998306 -0.150220
C7    C     C_R   0.855024 0.749239 0.001293 -0.157348
C8    C     C_R   0.144786 0.749301 0.998296 -0.157177
C9    C     C_R   0.535836 0.250025 0.002620 0.422374
C10   C     C_R   0.467138 0.248763 0.004653 0.433057
C11   C     C_R   0.033982 0.750113 0.998214 0.423588
C12   C     C_R   0.965651 0.750071 0.001028 0.423652
C13   C     C_R   0.959880 0.459859 0.419752 0.821555
C14   C     C_R   0.040209 0.459880 0.580236 0.820484
C15   C     C_R   0.459880 0.959858 0.419752 0.821705
C16   C     C_R   0.540207 0.959878 0.580232 0.820580
C17   C     C_3   0.357109 0.124514 0.276321 0.126117
C18   C     C_3   0.644449 0.123245 0.725482 0.126478
C19   C     C_3   0.853946 0.622482 0.272357 0.126804
C20   C     C_3   0.145649 0.622378 0.727335 0.126853
C21   C     C_3   0.329534 0.119081 0.209509 0.100418
C22   C     C_3   0.670261 0.118129 0.791905 0.099967
C23   C     C_3   0.830140 0.617576 0.206484 0.099826
C24   C     C_3   0.169765 0.617514 0.793299 0.099849
C25   C     C_1   0.312447 0.187596 0.124936 -0.177721
C26   C     C_1   0.688099 0.187613 0.875067 -0.179394
C27   C     C_1   0.812216 0.687612 0.124943 -0.178163
C28   C     C_1   0.187823 0.687614 0.875071 -0.178591
C29   C     C_1   0.437370 0.062400 0.375061 -0.167837
C30   C     C_1   0.562461 0.062392 0.624962 -0.168905
C31   C     C_1   0.937320 0.562389 0.375009 -0.167832
C32   C     C_1   0.062481 0.562371 0.625012 -0.168815
C33   C     C_3   0.380716 0.151715 0.275480 0.061557
C34   C     C_3   0.621495 0.151408 0.724931 0.061675
C35   C     C_3   0.876500 0.651182 0.274458 0.061183
C36   C     C_3   0.123089 0.651127 0.725468 0.061314
C37   C     C_3   0.353541 0.146115 0.208498 -0.037245
C38   C     C_3   0.646883 0.146141 0.791489 -0.037409
C39   C     C_3   0.853149 0.646135 0.208489 -0.038598
C40   C     C_3   0.146756 0.646124 0.791533 -0.038676
C41   C     C_3   0.418679 0.131113 0.289845 0.135724
C42   C     C_3   0.581961 0.132084 0.708782 0.135476
C43   C     C_3   0.917462 0.632619 0.292723 0.135303
C44   C     C_3   0.082308 0.632638 0.707550 0.135428
C45   C     C_R   0.316737 0.249458 0.000929 0.808986
C46   C     C_R   0.683281 0.249635 0.999279 0.819492
C47   C     C_R   0.816448 0.749752 0.000279 0.809338
C48   C     C_R   0.183506 0.749781 0.999615 0.809244
C49   C     C_3   0.395608 0.104054 0.291810 0.042317
C50   C     C_3   0.604406 0.104058 0.708214 0.042556
C51   C     C_3   0.895385 0.604052 0.291739 0.042680
C52   C     C_3   0.104386 0.604023 0.708300 0.042877
C53   C     C_3   0.391796 0.125848 0.223737 0.162412
C54   C     C_3   0.607095 0.127149 0.774485 0.163343
C55   C     C_3   0.894321 0.627899 0.227596 0.163166
C56   C     C_3   0.105759 0.627962 0.772776 0.163106
C57   C     C_3   0.368446 0.099107 0.225157 0.096951
C58   C     C_3   0.629826 0.099441 0.774463 0.095700
C59   C     C_3   0.871953 0.599653 0.226056 0.095037
C60   C     C_3   0.128126 0.599665 0.774075 0.094885
C61   C     C_1   0.331052 0.168868 0.162582 -0.042430
C62   C     C_1   0.669498 0.168898 0.837392 -0.039741
C63   C     C_1   0.830723 0.668900 0.162610 -0.036181
C64   C     C_1   0.169265 0.668895 0.837404 -0.036031
C65   C     C_1   0.418504 0.081185 0.337479 0.000975
C66   C     C_1   0.581359 0.081180 0.662555 0.000602
C67   C     C_1   0.918383 0.581171 0.337407 0.001322
C68   C     C_1   0.081373 0.581147 0.662631 0.000653
C69   C     C_R   0.101784 0.260498 0.948689 0.101243
C70   C     C_R   0.898079 0.262278 0.052962 0.100934
C71   C     C_R   0.601984 0.760781 0.949048 0.101294
C72   C     C_R   0.398091 0.762244 0.052989 0.100955
C73   C     C_R   0.065327 0.261278 0.949133 0.130472
C74   C     C_R   0.935382 0.262722 0.054186 0.130812
C75   C     C_R   0.565528 0.761521 0.949493 0.130635
C76   C     C_R   0.435417 0.762649 0.054256 0.130915
C77   C     C_R   0.072663 0.250890 0.999622 -0.076180
C78   C     C_R   0.929631 0.251211 0.005365 -0.075676
C79   C     C_R   0.572728 0.750777 0.999699 -0.076439
C80   C     C_R   0.429675 0.751129 0.005443 -0.075762
C81   C     C_R   0.115785 0.240227 0.049263 0.109400
C82   C     C_R   0.887226 0.239740 0.955708 0.109637
C83   C     C_R   0.615711 0.739760 0.049022 0.109708
C84   C     C_R   0.387259 0.739671 0.955770 0.109673
C85   C     C_R   0.152232 0.240030 0.049648 0.124756
C86   C     C_R   0.850074 0.239617 0.953847 0.124589
C87   C     C_R   0.652147 0.739580 0.049385 0.124513
C88   C     C_R   0.350096 0.739566 0.953890 0.124475
C89   C     C_R   0.209801 0.290042 0.919642 0.827404
C90   C     C_R   0.790081 0.290022 0.080320 0.824388
C91   C     C_R   0.709789 0.790043 0.919643 0.826194
C92   C     C_R   0.290078 0.790022 0.080320 0.823333
C93   C     C_R   0.145250 0.250161 0.999380 -0.155209
C94   C     C_R   0.855551 0.250750 0.002521 -0.153799
C95   C     C_R   0.645304 0.750111 0.999442 -0.155097
C96   C     C_R   0.355556 0.750732 0.002531 -0.154005
C97   C     C_R   0.967632 0.251136 0.005182 0.423769
C98   C     C_R   0.035448 0.250978 0.001316 0.422880
C99   C     C_R   0.467693 0.751040 0.005280 0.423961
C100  C     C_R   0.535523 0.750869 0.001426 0.423110
C101  C     C_3   0.151017 0.382706 0.739162 0.119115
C102  C     C_3   0.847367 0.396081 0.234982 0.121463
C103  C     C_3   0.650751 0.882421 0.738600 0.119080
C104  C     C_3   0.347372 0.896103 0.234940 0.121506
C105  C     C_3   0.133004 0.351093 0.730475 -0.222651
C106  C     C_3   0.839923 0.364021 0.244124 -0.220083
C107  C     C_3   0.632425 0.850933 0.730162 -0.222646
C108  C     C_3   0.339860 0.864056 0.244055 -0.219904
C109  C     C_1   0.187001 0.312372 0.874672 -0.178221
C110  C     C_1   0.812502 0.312303 0.125263 -0.177161
C111  C     C_1   0.686983 0.812374 0.874676 -0.177959
C112  C     C_1   0.312489 0.812302 0.125262 -0.176599
C113  C     C_1   0.062754 0.437502 0.624981 -0.170871
C114  C     C_1   0.937710 0.437358 0.375138 -0.169452
C115  C     C_1   0.562748 0.937496 0.624970 -0.170843
C116  C     C_1   0.437708 0.937357 0.375138 -0.169337
C117  C     C_3   0.162641 0.385131 0.798743 0.123129
C118  C     C_3   0.861525 0.385583 0.200419 0.122644
C119  C     C_3   0.662921 0.885008 0.798500 0.123028
C120  C     C_3   0.361569 0.885570 0.200440 0.122640
C121  C     C_3   0.144279 0.353879 0.790756 0.025830
C122  C     C_3   0.855009 0.353487 0.209646 0.025255
C123  C     C_3   0.644262 0.853887 0.790774 0.025834
C124  C     C_3   0.354986 0.853487 0.209643 0.025206
C125  C     C_3   0.115457 0.398364 0.768691 0.115857
C126  C     C_3   0.911728 0.384571 0.257571 0.112953
C127  C     C_3   0.616005 0.898528 0.769012 0.115755
C128  C     C_3   0.411753 0.884533 0.257634 0.112953
C129  C     C_3   0.103877 0.395753 0.708252 0.001930
C130  C     C_3   0.897032 0.395227 0.292444 0.000759
C131  C     C_3   0.603866 0.895750 0.708247 0.001967
C132  C     C_3   0.397018 0.895225 0.292444 0.000763
C133  C     C_R   0.183597 0.249960 0.999899 0.831332
C134  C     C_R   0.816658 0.250181 0.000712 0.828628
C135  C     C_R   0.683626 0.749937 0.999941 0.830969
C136  C     C_R   0.316656 0.750177 0.000709 0.828879
C137  C     C_3   0.096323 0.366786 0.759871 0.156845
C138  C     C_3   0.905453 0.352061 0.267640 0.154707
C139  C     C_3   0.596567 0.867085 0.760460 0.156866
C140  C     C_3   0.405410 0.852036 0.267679 0.154641
C141  C     C_3   0.085095 0.364241 0.699572 0.144181
C142  C     C_3   0.890518 0.362876 0.302221 0.142885
C143  C     C_3   0.584780 0.864370 0.699829 0.144185
C144  C     C_3   0.390436 0.862887 0.302196 0.142750
C145  C     C_1   0.167700 0.331091 0.836833 -0.027470
C146  C     C_1   0.831540 0.330928 0.163229 -0.030573
C147  C     C_1   0.667680 0.831096 0.836844 -0.027724
C148  C     C_1   0.331520 0.830928 0.163226 -0.030358
C149  C     C_1   0.081524 0.418688 0.662548 -0.041929
C150  C     C_1   0.919319 0.418404 0.337778 -0.040251
C151  C     C_1   0.581514 0.918681 0.662534 -0.041927
C152  C     C_1   0.419312 0.918402 0.337779 -0.040149
C153  C     C_R   0.540072 0.040048 0.580214 0.819963
C154  C     C_R   0.459868 0.040052 0.419795 0.821306
C155  C     C_R   0.040078 0.540042 0.580227 0.820081
C156  C     C_R   0.959857 0.540049 0.419777 0.821270
C157  C     C_R   0.383734 0.222968 0.023310 0.092512
C158  C     C_R   0.620769 0.222762 0.987110 0.109028
C159  C     C_R   0.881785 0.723391 0.018363 0.095967
C160  C     C_R   0.118031 0.723501 0.980807 0.095881
C161  C     C_R   0.421115 0.223048 0.024458 0.123211
C162  C     C_R   0.586515 0.222624 0.991841 0.108267
C163  C     C_R   0.919448 0.723884 0.020301 0.118326
C164  C     C_R   0.080288 0.724001 0.978709 0.118212
C165  C     C_R   0.429439 0.248541 0.005168 -0.072331
C166  C     C_R   0.573646 0.249620 0.001900 -0.079841
C167  C     C_R   0.928267 0.749747 0.002388 -0.074583
C168  C     C_R   0.071376 0.749818 0.996866 -0.074454
C169  C     C_R   0.401329 0.273734 0.985066 0.140498
C170  C     C_R   0.596067 0.276288 0.009898 0.152568
C171  C     C_R   0.901043 0.775283 0.984874 0.149592
C172  C     C_R   0.098553 0.775320 0.014707 0.149310
C173  C     C_R   0.364828 0.273671 0.984417 0.091064
C174  C     C_R   0.632157 0.275827 0.009522 0.076600
C175  C     C_R   0.864953 0.775004 0.985183 0.084222
C176  C     C_R   0.134734 0.775035 0.014572 0.084104
Cu1   Cu    Cu3+1 0.270670 0.270660 0.041400 0.941712
Cu2   Cu    Cu3+1 0.729330 0.270660 0.958600 0.937970
Cu3   Cu    Cu3+1 0.770670 0.770660 0.041400 0.941159
Cu4   Cu    Cu3+1 0.229330 0.770660 0.958600 0.940413
Cu5   Cu    Cu3+1 0.229220 0.229230 0.958490 0.933539
Cu6   Cu    Cu3+1 0.770780 0.229230 0.041510 0.931327
Cu7   Cu    Cu3+1 0.729220 0.729230 0.958490 0.933553
Cu8   Cu    Cu3+1 0.270780 0.729230 0.041510 0.932660
Cu9   Cu    Cu3+1 0.465750 0.999970 0.499990 0.966881
Cu10  Cu    Cu3+1 0.534250 0.999970 0.500010 0.966403
Cu11  Cu    Cu3+1 0.965750 0.499970 0.499990 0.966792
Cu12  Cu    Cu3+1 0.034250 0.499970 0.500010 0.966687
H1    H     H_    0.140749 0.331825 0.715332 0.154507
H2    H     H_    0.810157 0.355777 0.237875 0.154254
H3    H     H_    0.639710 0.831530 0.714754 0.154532
H4    H     H_    0.310057 0.855841 0.237751 0.154356
N1    N     N_R   0.459794 0.240686 0.955254 -0.259272
N2    N     N_R   0.493554 0.241357 0.954263 -0.239766
N3    N     N_R   0.956411 0.749961 0.948631 -0.255689
N4    N     N_R   0.990001 0.750116 0.947269 -0.243176
N5    N     N_R   0.543068 0.258168 0.051978 -0.261808
N6    N     N_R   0.509173 0.257869 0.052758 -0.236879
N7    N     N_R   0.043221 0.749914 0.050609 -0.255729
N8    N     N_R   0.009632 0.750029 0.051972 -0.243139
N9    N     N_R   0.018386 0.225243 0.002613 -0.246907
N10   N     N_R   0.984580 0.276862 0.003633 -0.252600
N11   N     N_R   0.518282 0.725138 0.002397 -0.247079
N12   N     N_R   0.484819 0.776762 0.004053 -0.252647
N13   N     N_R   0.985120 0.225323 0.004614 -0.247996
N14   N     N_R   0.018252 0.276787 0.002442 -0.252698
N15   N     N_R   0.485016 0.725224 0.004400 -0.248080
N16   N     N_R   0.518501 0.776679 0.002883 -0.252720
O1    O     O_R   0.297670 0.237210 0.095410 -0.580743
O2    O     O_R   0.702330 0.237210 0.904590 -0.584043
O3    O     O_R   0.797670 0.737210 0.095410 -0.581630
O4    O     O_R   0.202330 0.737210 0.904590 -0.581152
O5    O     O_R   0.559100 0.030200 0.560470 -0.580477
O6    O     O_R   0.440900 0.030200 0.439530 -0.579143
O7    O     O_R   0.059100 0.530200 0.560470 -0.580362
O8    O     O_R   0.940900 0.530200 0.439530 -0.579282
O9    O     O_R   0.940840 0.469740 0.439520 -0.577170
O10   O     O_R   0.059160 0.469740 0.560480 -0.576989
O11   O     O_R   0.440840 0.969740 0.439520 -0.577260
O12   O     O_R   0.559160 0.969740 0.560480 -0.577055
O13   O     O_R   0.998640 0.469740 0.439520 -0.583103
O14   O     O_R   0.001360 0.469740 0.560480 -0.583998
O15   O     O_R   0.498640 0.969740 0.439520 -0.583009
O16   O     O_R   0.501360 0.969740 0.560480 -0.583939
O17   O     O_R   0.262670 0.202220 0.025400 -0.589424
O18   O     O_R   0.737330 0.202220 0.974600 -0.582691
O19   O     O_R   0.762670 0.702220 0.025400 -0.581863
O20   O     O_R   0.237330 0.702220 0.974600 -0.581418
O21   O     O_R   0.317380 0.267440 0.034950 -0.582286
O22   O     O_R   0.682620 0.267440 0.965050 -0.589094
O23   O     O_R   0.817380 0.767440 0.034950 -0.588414
O24   O     O_R   0.182620 0.767440 0.965050 -0.588773
O25   O     O_R   0.282380 0.232450 0.964940 -0.591791
O26   O     O_R   0.717620 0.232450 0.035060 -0.590204
O27   O     O_R   0.782380 0.732450 0.964940 -0.580147
O28   O     O_R   0.217620 0.732450 0.035060 -0.579959
O29   O     O_R   0.237220 0.297670 0.974490 -0.577986
O30   O     O_R   0.762780 0.297670 0.025510 -0.578601
O31   O     O_R   0.737220 0.797670 0.974490 -0.577669
O32   O     O_R   0.262780 0.797670 0.025510 -0.578572
O33   O     O_R   0.202220 0.262680 0.904480 -0.582265
O34   O     O_R   0.797780 0.262680 0.095520 -0.585521
O35   O     O_R   0.702220 0.762680 0.904480 -0.583770
O36   O     O_R   0.297780 0.762680 0.095520 -0.586587
O37   O     O_R   0.217520 0.267440 0.034950 -0.590903
O38   O     O_R   0.782480 0.267440 0.965050 -0.588529
O39   O     O_R   0.717520 0.767440 0.034950 -0.590364
O40   O     O_R   0.282480 0.767440 0.965050 -0.588458
O41   O     O_R   0.182510 0.232450 0.964930 -0.591859
O42   O     O_R   0.817490 0.232450 0.035070 -0.592437
O43   O     O_R   0.682510 0.732450 0.964930 -0.592015
O44   O     O_R   0.317490 0.732450 0.035070 -0.592175
O45   O     O_R   0.501310 0.030200 0.560470 -0.577123
O46   O     O_R   0.498690 0.030200 0.439530 -0.577413
O47   O     O_R   0.001310 0.530200 0.560470 -0.577152
O48   O     O_R   0.998690 0.530200 0.439530 -0.577137
C177  C     C_3   0.374297 0.196350 0.045416 -0.397722
C178  C     C_3   0.407271 0.194756 0.112842 -0.807924
H5    H     H_    0.441911 0.188869 0.130951 0.266302
H6    H     H_    0.408183 0.216203 0.131653 0.251889
H7    H     H_    0.395805 0.177519 0.126878 0.254738
H8    H     H_    0.339862 0.196808 0.030774 0.214087
H9    H     H_    0.374180 0.175469 0.026014 0.186678
C179  C     C_3   0.630514 0.195378 0.966869 -0.406903
C180  C     C_3   0.610306 0.198550 0.902762 -0.801789
H10   H     H_    0.573052 0.202188 0.873097 0.256755
H11   H     H_    0.625725 0.217354 0.897780 0.245526
H12   H     H_    0.616805 0.178124 0.888723 0.248764
H13   H     H_    0.667454 0.191076 0.995804 0.217504
H14   H     H_    0.617064 0.174818 0.969878 0.205167
C181  C     C_3   0.870195 0.695605 0.035008 -0.374297
C182  C     C_3   0.839146 0.675055 0.981918 -0.801173
H15   H     H_    0.806693 0.686154 0.945882 0.271131
H16   H     H_    0.855532 0.667886 0.964166 0.233656
H17   H     H_    0.831439 0.655196 0.995668 0.234649
H18   H     H_    0.901057 0.683387 0.071426 0.205516
H19   H     H_    0.853536 0.701094 0.053170 0.191843
C183  C     C_3   0.129708 0.695763 0.963877 -0.374051
C184  C     C_3   0.160682 0.675049 0.016692 -0.801192
H20   H     H_    0.193126 0.686025 0.052933 0.271264
H21   H     H_    0.144227 0.667848 0.034257 0.233583
H22   H     H_    0.168414 0.655220 0.002713 0.234682
H23   H     H_    0.098877 0.683660 0.927217 0.205706
H24   H     H_    0.146464 0.701307 0.945928 0.191808
C185  C     C_3   0.385715 0.182609 0.299935 -0.383333
C186  C     C_3   0.414038 0.182909 0.366779 -0.849338
H25   H     H_    0.397963 0.169298 0.379478 0.248238
H26   H     H_    0.448916 0.174738 0.389862 0.247332
H27   H     H_    0.416502 0.205880 0.381571 0.245244
H28   H     H_    0.401993 0.197179 0.288596 0.210626
H29   H     H_    0.351349 0.191528 0.278205 0.204015
C187  C     C_3   0.618723 0.181948 0.700956 -0.383280
C188  C     C_3   0.591874 0.181974 0.634447 -0.849357
H30   H     H_    0.608124 0.167431 0.623021 0.248188
H31   H     H_    0.556407 0.174762 0.610030 0.247408
H32   H     H_    0.590988 0.204702 0.619981 0.245214
H33   H     H_    0.602353 0.197426 0.711050 0.211179
H34   H     H_    0.653745 0.189903 0.724033 0.203723
C189  C     C_3   0.877168 0.681477 0.297792 -0.384107
C190  C     C_3   0.902214 0.681326 0.363797 -0.847904
H35   H     H_    0.885517 0.666276 0.373678 0.248477
H36   H     H_    0.938153 0.674645 0.389792 0.247115
H37   H     H_    0.901668 0.703890 0.377835 0.245287
H38   H     H_    0.893873 0.697468 0.289197 0.211036
H39   H     H_    0.841594 0.688868 0.273114 0.203662
C191  C     C_3   0.122155 0.681386 0.702022 -0.383984
C192  C     C_3   0.096807 0.681189 0.635926 -0.848179
H40   H     H_    0.113388 0.666071 0.625788 0.248456
H41   H     H_    0.060921 0.674566 0.610190 0.247160
H42   H     H_    0.097186 0.703726 0.621814 0.245266
H43   H     H_    0.105544 0.697433 0.710862 0.210999
H44   H     H_    0.157663 0.688727 0.726434 0.203665
C193  C     C_3   0.095302 0.271845 0.895469 -0.404199
C194  C     C_3   0.109035 0.304158 0.903742 -0.853415
H45   H     H_    0.086434 0.318169 0.905469 0.251134
H46   H     H_    0.144733 0.307243 0.945104 0.260973
H47   H     H_    0.106316 0.311275 0.866093 0.234289
H48   H     H_    0.115211 0.258852 0.887861 0.218870
H49   H     H_    0.060087 0.269041 0.853309 0.206849
C195  C     C_3   0.902915 0.274966 0.104351 -0.414158
C196  C     C_3   0.891320 0.307798 0.095334 -0.836993
H50   H     H_    0.913349 0.320195 0.090539 0.251288
H51   H     H_    0.855245 0.311231 0.055084 0.261869
H52   H     H_    0.896483 0.316693 0.134032 0.240626
H53   H     H_    0.880859 0.263552 0.110020 0.216402
H54   H     H_    0.937349 0.271294 0.147491 0.206535
C197  C     C_3   0.595673 0.772477 0.896148 -0.404662
C198  C     C_3   0.609645 0.804771 0.905174 -0.852940
H55   H     H_    0.587117 0.818705 0.907155 0.251096
H56   H     H_    0.645349 0.807664 0.946646 0.261603
H57   H     H_    0.607045 0.812149 0.867744 0.234208
H58   H     H_    0.615571 0.759602 0.888371 0.218298
H59   H     H_    0.560462 0.769847 0.853883 0.206852
C199  C     C_3   0.402918 0.774941 0.104369 -0.414148
C200  C     C_3   0.391429 0.807789 0.095407 -0.837036
H60   H     H_    0.413521 0.820149 0.090677 0.251320
H61   H     H_    0.355374 0.811267 0.055137 0.261833
H62   H     H_    0.396585 0.816688 0.134098 0.240647
H63   H     H_    0.380800 0.763572 0.109975 0.216386
H64   H     H_    0.437323 0.771221 0.147525 0.206497
C201  C     C_3   0.018133 0.271938 0.895135 -0.394518
C202  C     C_3   0.989177 0.246325 0.853701 -0.832735
H65   H     H_    0.005797 0.235207 0.838950 0.247584
H66   H     H_    0.983980 0.229991 0.876470 0.264945
H67   H     H_    0.955471 0.254700 0.814196 0.242190
H68   H     H_    0.000010 0.282922 0.907606 0.221111
H69   H     H_    0.019699 0.289485 0.870788 0.203760
C203  C     C_3   0.981985 0.273891 0.108549 -0.395506
C204  C     C_3   0.011401 0.248594 0.150769 -0.831129
H70   H     H_    0.994646 0.237500 0.165238 0.247889
H71   H     H_    0.017411 0.232175 0.128837 0.264736
H72   H     H_    0.044730 0.257298 0.190381 0.242240
H73   H     H_    0.000131 0.285085 0.096422 0.221100
H74   H     H_    0.979605 0.291330 0.132417 0.206066
C205  C     C_3   0.518456 0.772476 0.895725 -0.394471
C206  C     C_3   0.489212 0.747086 0.853755 -0.832703
H75   H     H_    0.505705 0.736046 0.838756 0.247624
H76   H     H_    0.483844 0.730636 0.876182 0.264863
H77   H     H_    0.455595 0.755673 0.814437 0.242241
H78   H     H_    0.500459 0.783418 0.908417 0.221296
H79   H     H_    0.520211 0.790134 0.871729 0.203811
C207  C     C_3   0.482039 0.773759 0.108685 -0.395454
C208  C     C_3   0.511377 0.748419 0.150821 -0.831173
H80   H     H_    0.494572 0.737328 0.165222 0.247931
H81   H     H_    0.517361 0.732010 0.128847 0.264649
H82   H     H_    0.544722 0.757080 0.190480 0.242253
H83   H     H_    0.500236 0.784959 0.096645 0.221243
H84   H     H_    0.479691 0.791183 0.132606 0.206042
N17   N     N_3   0.123161 0.229597 0.100285 -0.601310
H85   H     H_    0.114014 0.246100 0.115343 0.225630
H86   H     H_    0.102796 0.211092 0.088278 0.244503
N18   N     N_3   0.881277 0.228195 0.906142 -0.601227
H87   H     H_    0.890592 0.244313 0.890825 0.225826
H88   H     H_    0.902151 0.209728 0.919791 0.245103
N19   N     N_3   0.622975 0.728760 0.099756 -0.600992
H89   H     H_    0.614033 0.745135 0.115276 0.225591
H90   H     H_    0.602399 0.710316 0.087256 0.244519
N20   N     N_3   0.381303 0.728120 0.906204 -0.601199
H91   H     H_    0.390675 0.744219 0.890926 0.225893
H92   H     H_    0.402116 0.709623 0.919826 0.245228
C209  C     C_3   0.198069 0.227637 0.103234 -0.369013
C210  C     C_3   0.202956 0.195343 0.093732 -0.837277
H93   H     H_    0.175899 0.181937 0.086707 0.263985
H94   H     H_    0.200662 0.192896 0.054836 0.252305
H95   H     H_    0.236525 0.186905 0.133405 0.230361
H96   H     H_    0.226590 0.240531 0.113353 0.203838
H97   H     H_    0.202624 0.229332 0.143941 0.230253
C211  C     C_3   0.805049 0.226363 0.900371 -0.369741
C212  C     C_3   0.801198 0.194173 0.911352 -0.835433
H98   H     H_    0.829150 0.180984 0.920008 0.264051
H99   H     H_    0.802778 0.192223 0.949730 0.253312
H100  H     H_    0.768237 0.185079 0.871707 0.229982
H101  H     H_    0.775747 0.239001 0.888831 0.201898
H102  H     H_    0.801154 0.227573 0.860114 0.230187
C213  C     C_3   0.697796 0.726759 0.102541 -0.369462
C214  C     C_3   0.701904 0.694437 0.092261 -0.836600
H103  H     H_    0.674480 0.681291 0.084817 0.264168
H104  H     H_    0.699599 0.692101 0.053337 0.252600
H105  H     H_    0.735232 0.685593 0.131737 0.230772
H106  H     H_    0.726527 0.739393 0.112698 0.203021
H107  H     H_    0.702552 0.728392 0.143403 0.230089
C215  C     C_3   0.305080 0.726283 0.900441 -0.369771
C216  C     C_3   0.301260 0.694097 0.911493 -0.834750
H108  H     H_    0.329263 0.680920 0.920259 0.263856
H109  H     H_    0.302789 0.692177 0.949833 0.253667
H110  H     H_    0.268336 0.684958 0.871847 0.230186
H111  H     H_    0.275766 0.738917 0.888877 0.202054
H112  H     H_    0.301183 0.727471 0.860180 0.230167
N21   N     N_3   0.180570 0.391705 0.727663 -0.573566
H113  H     H_    0.210875 0.379838 0.756474 0.214658
H114  H     H_    0.188538 0.413910 0.739463 0.215848
N22   N     N_3   0.816108 0.420291 0.217520 -0.573734
H115  H     H_    0.785345 0.415241 0.175702 0.214746
H116  H     H_    0.828990 0.439021 0.212619 0.213881
N23   N     N_3   0.680029 0.891103 0.726476 -0.573546
H117  H     H_    0.710221 0.879094 0.755010 0.214589
H118  H     H_    0.688317 0.913287 0.738233 0.215853
N24   N     N_3   0.316139 0.920338 0.217434 -0.573821
H119  H     H_    0.285387 0.915298 0.175598 0.214883
H120  H     H_    0.329068 0.939051 0.212563 0.214095
C217  C     C_3   0.041748 0.353426 0.639666 -0.377387
C218  C     C_3   0.031985 0.321074 0.641236 -0.840181
H121  H     H_    0.061625 0.307109 0.657291 0.251188
H122  H     H_    0.023815 0.317926 0.670197 0.254219
H123  H     H_    0.002267 0.313790 0.595938 0.241225
H124  H     H_    0.012492 0.367256 0.625347 0.199190
H125  H     H_    0.045961 0.356102 0.606482 0.206891
C219  C     C_3   0.905717 0.352224 0.361409 -0.378275
C220  C     C_3   0.892682 0.320196 0.358846 -0.838121
H126  H     H_    0.855588 0.317016 0.322621 0.251391
H127  H     H_    0.911483 0.305221 0.352008 0.254101
H128  H     H_    0.901527 0.314241 0.401357 0.241313
H129  H     H_    0.943000 0.354947 0.396563 0.197185
H130  H     H_    0.889159 0.366295 0.373154 0.209910
C221  C     C_3   0.541066 0.853674 0.640167 -0.377326
C222  C     C_3   0.531025 0.821417 0.641940 -0.840187
H131  H     H_    0.560394 0.807263 0.657591 0.251141
H132  H     H_    0.523217 0.818468 0.671327 0.254224
H133  H     H_    0.501000 0.814197 0.596778 0.241276
H134  H     H_    0.512087 0.867698 0.626237 0.199263
H135  H     H_    0.544923 0.856163 0.606613 0.206876
C223  C     C_3   0.405561 0.852249 0.361352 -0.378365
C224  C     C_3   0.392462 0.820234 0.358759 -0.837907
H136  H     H_    0.355370 0.817077 0.322493 0.251373
H137  H     H_    0.411268 0.805234 0.351965 0.254106
H138  H     H_    0.401253 0.814292 0.401242 0.241364
H139  H     H_    0.442844 0.854948 0.396547 0.197228
H140  H     H_    0.388995 0.866345 0.373054 0.209899
C225  C     C_3   0.067759 0.355908 0.775153 -0.390415
C226  C     C_3   0.021529 0.371020 0.739030 -0.838990
H141  H     H_    0.025301 0.395254 0.744804 0.254939
H142  H     H_    0.000287 0.365586 0.691498 0.253765
H143  H     H_    0.003607 0.363142 0.754234 0.241652
H144  H     H_    0.062713 0.331772 0.767623 0.198970
H145  H     H_    0.086832 0.359860 0.822830 0.204731
C227  C     C_3   0.935158 0.325309 0.281166 -0.379216
C228  C     C_3   0.983339 0.327797 0.340491 -0.844708
H146  H     H_    0.000199 0.347999 0.342388 0.255142
H147  H     H_    0.983113 0.328035 0.377404 0.253821
H148  H     H_    0.003519 0.308435 0.346409 0.241936
H149  H     H_    0.919040 0.305066 0.280848 0.201420
H150  H     H_    0.936576 0.322815 0.245415 0.198381
C229  C     C_3   0.568288 0.856539 0.776387 -0.390447
C230  C     C_3   0.522264 0.871889 0.740727 -0.838851
H151  H     H_    0.526335 0.896116 0.746409 0.254937
H152  H     H_    0.500647 0.866398 0.693169 0.253766
H153  H     H_    0.504579 0.864262 0.756416 0.241671
H154  H     H_    0.562937 0.832412 0.768931 0.199041
H155  H     H_    0.587726 0.860556 0.824137 0.204629
C231  C     C_3   0.435086 0.825259 0.281248 -0.379260
C232  C     C_3   0.483249 0.827725 0.340609 -0.844560
H156  H     H_    0.500156 0.847909 0.342537 0.255137
H157  H     H_    0.482981 0.827985 0.377485 0.253833
H158  H     H_    0.503412 0.808343 0.346560 0.241944
H159  H     H_    0.418922 0.805034 0.280897 0.201422
H160  H     H_    0.436542 0.822743 0.245533 0.198381
C233  C     C_3   0.107415 0.426887 0.788352 -0.383676
C234  C     C_3   0.121315 0.424217 0.849233 -0.805789
H161  H     H_    0.098030 0.409273 0.847618 0.248823
H162  H     H_    0.156670 0.415921 0.882305 0.275855
H163  H     H_    0.119358 0.446256 0.863737 0.236349
H164  H     H_    0.127603 0.444749 0.789742 0.200183
H165  H     H_    0.071042 0.433213 0.755292 0.199468
C235  C     C_3   0.950806 0.398908 0.264898 -0.378322
C236  C     C_3   0.958696 0.384639 0.225879 -0.814753
H166  H     H_    0.972401 0.362022 0.241308 0.248215
H167  H     H_    0.926729 0.383823 0.179062 0.275876
H168  H     H_    0.983958 0.397786 0.228355 0.237668
H169  H     H_    0.942556 0.422593 0.252972 0.202458
H170  H     H_    0.982424 0.397645 0.311918 0.199128
C237  C     C_3   0.608586 0.927210 0.788978 -0.383563
C238  C     C_3   0.622953 0.924691 0.850144 -0.805619
H171  H     H_    0.599650 0.909968 0.848909 0.248775
H172  H     H_    0.658223 0.916206 0.882884 0.275862
H173  H     H_    0.621460 0.946814 0.864819 0.236441
H174  H     H_    0.628831 0.944893 0.790029 0.200307
H175  H     H_    0.572270 0.933717 0.756262 0.199473
C239  C     C_3   0.450884 0.898831 0.265033 -0.378256
C240  C     C_3   0.458805 0.884531 0.226066 -0.814755
H176  H     H_    0.472470 0.861908 0.241505 0.248203
H177  H     H_    0.426860 0.883726 0.179233 0.275888
H178  H     H_    0.484110 0.897651 0.228591 0.237680
H179  H     H_    0.442676 0.922518 0.253104 0.202618
H180  H     H_    0.482476 0.897558 0.312069 0.199119
C241  C     C_3   0.451924 0.196071 0.044646 -0.382036
C242  C     C_3   0.498411 0.200082 0.106451 -0.802303
H181  H     H_    0.523476 0.208854 0.103542 0.263646
H182  H     H_    0.496345 0.215182 0.133990 0.258636
H183  H     H_    0.511435 0.178406 0.129140 0.230502
H184  H     H_    0.436787 0.175647 0.045017 0.201128
H185  H     H_    0.456685 0.191319 0.012445 0.198924
C243  C     C_3   0.565205 0.193710 0.989509 -0.382018
C244  C     C_3   0.526592 0.183418 0.926119 -0.778278
H186  H     H_    0.507770 0.165261 0.926687 0.233837
H187  H     H_    0.502470 0.201672 0.898739 0.270870
H188  H     H_    0.539679 0.174940 0.904909 0.245154
H189  H     H_    0.591329 0.176212 0.015243 0.179898
H190  H     H_    0.551592 0.195759 0.012482 0.204689
C245  C     C_3   0.950591 0.697070 0.041791 -0.390201
C246  C     C_3   0.988798 0.697522 0.108983 -0.800155
H191  H     H_    0.010201 0.717423 0.123222 0.273392
H192  H     H_    0.975013 0.697443 0.131853 0.240350
H193  H     H_    0.010623 0.677732 0.123080 0.239241
H194  H     H_    0.931605 0.676140 0.028570 0.203804
H195  H     H_    0.965809 0.695864 0.020741 0.205466
C247  C     C_3   0.049162 0.697244 0.956795 -0.390286
C248  C     C_3   0.011022 0.697890 0.889597 -0.799707
H196  H     H_    0.989617 0.717842 0.875576 0.273327
H197  H     H_    0.024876 0.697857 0.866811 0.240387
H198  H     H_    0.989184 0.678150 0.875187 0.239300
H199  H     H_    0.068168 0.676278 0.969764 0.203818
H200  H     H_    0.033885 0.695969 0.977750 0.205511
N25   N     N_3   0.205557 0.396019 0.852969 -0.586928
H201  H     H_    0.210002 0.417422 0.844658 0.212344
H202  H     H_    0.231489 0.383119 0.861170 0.219973
N26   N     N_3   0.844635 0.397747 0.144112 -0.588129
H203  H     H_    0.852347 0.420224 0.150580 0.213123
H204  H     H_    0.809236 0.396043 0.114507 0.219801
N27   N     N_3   0.706151 0.895753 0.852443 -0.586765
H205  H     H_    0.710732 0.917076 0.843975 0.212392
H206  H     H_    0.731782 0.882657 0.860266 0.219880
N28   N     N_3   0.344747 0.897723 0.144156 -0.588068
H207  H     H_    0.352493 0.920195 0.150633 0.213388
H208  H     H_    0.309345 0.896041 0.114510 0.219886
C249  C     C_3   0.410183 0.301207 0.964665 -0.358374
C250  C     C_3   0.439660 0.323110 0.015393 -0.794325
H209  H     H_    0.422433 0.330128 0.032150 0.260159
H210  H     H_    0.472958 0.312994 0.052115 0.261049
H211  H     H_    0.445739 0.342889 0.999556 0.233851
H212  H     H_    0.426932 0.295830 0.946578 0.197966
H213  H     H_    0.377688 0.312026 0.927585 0.222379
C251  C     C_3   0.580765 0.305691 0.016914 -0.361486
C252  C     C_3   0.537407 0.316836 0.957633 -0.816469
H214  H     H_    0.543003 0.319436 0.925794 0.256997
H215  H     H_    0.508798 0.301385 0.938875 0.258820
H216  H     H_    0.527906 0.338603 0.963914 0.237571
H217  H     H_    0.575611 0.303977 0.049177 0.210371
H218  H     H_    0.607025 0.323023 0.035554 0.230180
C253  C     C_3   0.911490 0.803553 0.968232 -0.363811
C254  C     C_3   0.949379 0.820894 0.023276 -0.810410
H219  H     H_    0.939287 0.826766 0.049475 0.258917
H220  H     H_    0.981259 0.807799 0.051302 0.260609
H221  H     H_    0.955915 0.841517 0.009937 0.236799
H222  H     H_    0.921061 0.798830 0.941156 0.205852
H223  H     H_    0.881095 0.817978 0.939826 0.228027
C255  C     C_3   0.087972 0.803557 0.031548 -0.363229
C256  C     C_3   0.049990 0.820957 0.976627 -0.810814
H224  H     H_    0.060041 0.826873 0.950453 0.258679
H225  H     H_    0.018170 0.807889 0.948523 0.260533
H226  H     H_    0.043365 0.841557 0.990115 0.237026
H227  H     H_    0.078437 0.798781 0.058605 0.205860
H228  H     H_    0.118289 0.817964 0.060038 0.228767
N29   N     N_3   0.336465 0.299438 0.963651 -0.598947
H229  H     H_    0.302777 0.293431 0.928738 0.208773
H230  H     H_    0.338829 0.308004 0.998102 0.241852
N30   N     N_3   0.656170 0.302719 0.020754 -0.605843
H231  H     H_    0.690909 0.299370 0.055627 0.211692
H232  H     H_    0.650707 0.308698 0.982765 0.248502
N31   N     N_3   0.837959 0.801191 0.968089 -0.602604
H233  H     H_    0.803834 0.796080 0.933268 0.209508
H234  H     H_    0.841625 0.808756 0.004092 0.245370
N32   N     N_3   0.161693 0.801180 0.032012 -0.602662
H235  H     H_    0.195804 0.795998 0.066904 0.209210
H236  H     H_    0.158154 0.808784 0.996173 0.244191
C257  C     C_3   0.278280 0.113896 0.162706 -0.382640
C258  C     C_3   0.263404 0.085921 0.174196 -0.800193
H237  H     H_    0.278038 0.066135 0.170180 0.238753
H238  H     H_    0.273944 0.086450 0.218827 0.278968
H239  H     H_    0.225809 0.084157 0.140898 0.236023
H240  H     H_    0.260379 0.133093 0.162530 0.205751
H241  H     H_    0.268515 0.112358 0.118536 0.199010
C259  C     C_3   0.721096 0.111894 0.840358 -0.380833
C260  C     C_3   0.735506 0.083169 0.829971 -0.803466
H242  H     H_    0.719213 0.064033 0.832584 0.238503
H243  H     H_    0.726457 0.083319 0.786204 0.278576
H244  H     H_    0.772903 0.080548 0.864664 0.235830
H245  H     H_    0.740426 0.130418 0.841783 0.205107
H246  H     H_    0.729471 0.110799 0.883718 0.198552
C261  C     C_3   0.779815 0.610734 0.156232 -0.382252
C262  C     C_3   0.765600 0.581594 0.165308 -0.800717
H247  H     H_    0.783368 0.562858 0.164111 0.238784
H248  H     H_    0.773056 0.581508 0.208075 0.278958
H249  H     H_    0.728483 0.578485 0.129180 0.235716
H250  H     H_    0.759169 0.628846 0.153441 0.205949
H251  H     H_    0.772987 0.609909 0.113849 0.198519
C263  C     C_3   0.220163 0.610634 0.843280 -0.380602
C264  C     C_3   0.234360 0.581447 0.833989 -0.803746
H252  H     H_    0.216756 0.562755 0.835352 0.238584
H253  H     H_    0.226688 0.581318 0.791082 0.278542
H254  H     H_    0.271515 0.578302 0.869923 0.235757
H255  H     H_    0.240643 0.628705 0.845876 0.205306
H256  H     H_    0.227220 0.609856 0.885813 0.198451
N33   N     N_3   0.337773 0.122982 0.304766 -0.586107
H257  H     H_    0.319012 0.142264 0.294087 0.223187
H258  H     H_    0.364573 0.122973 0.350452 0.220330
N34   N     N_3   0.665187 0.120295 0.698984 -0.586782
H259  H     H_    0.685064 0.139012 0.710456 0.222993
H260  H     H_    0.639183 0.120408 0.653099 0.220325
N35   N     N_3   0.831585 0.618708 0.296513 -0.586147
H261  H     H_    0.810769 0.637080 0.284102 0.223239
H262  H     H_    0.856607 0.618877 0.342566 0.220767
N36   N     N_3   0.167740 0.618505 0.702794 -0.586762
H263  H     H_    0.188458 0.636843 0.715053 0.223068
H264  H     H_    0.142558 0.618664 0.656764 0.220698
N37   N     N_3   0.363618 0.070805 0.198412 -0.589222
H265  H     H_    0.337538 0.072959 0.152735 0.217154
H266  H     H_    0.352993 0.055411 0.213130 0.224897
N38   N     N_3   0.632496 0.071548 0.800673 -0.589003
H267  H     H_    0.657833 0.073627 0.846512 0.217116
H268  H     H_    0.643200 0.055421 0.787046 0.224040
N39   N     N_3   0.871335 0.572039 0.200535 -0.588888
H269  H     H_    0.846926 0.574089 0.154575 0.216825
H270  H     H_    0.860349 0.555496 0.212912 0.224732
N40   N     N_3   0.128999 0.572086 0.799700 -0.588957
H271  H     H_    0.153560 0.574144 0.845646 0.217040
H272  H     H_    0.139907 0.555497 0.787124 0.224067
N41   N     N_3   0.411012 0.126765 0.195132 -0.578878
H273  H     H_    0.435031 0.109826 0.213310 0.246021
H274  H     H_    0.384958 0.121548 0.150575 0.213494
N42   N     N_3   0.586474 0.129530 0.801184 -0.574722
H275  H     H_    0.561463 0.113274 0.782044 0.245547
H276  H     H_    0.611462 0.124119 0.845882 0.211473
N43   N     N_3   0.916575 0.631133 0.203214 -0.569679
H277  H     H_    0.942071 0.615108 0.223023 0.243970
H278  H     H_    0.892660 0.625918 0.158259 0.214248
N44   N     N_3   0.083781 0.631298 0.797547 -0.569926
H279  H     H_    0.058362 0.615302 0.777920 0.243945
H280  H     H_    0.107881 0.626107 0.842487 0.214229
N45   N     N_3   0.467369 0.136761 0.331923 -0.570109
H281  H     H_    0.472297 0.158610 0.326241 0.229510
H282  H     H_    0.478378 0.134973 0.374422 0.213475
N46   N     N_3   0.533626 0.138810 0.665120 -0.569842
H283  H     H_    0.529436 0.160963 0.670347 0.230001
H284  H     H_    0.523667 0.136550 0.623246 0.213370
N47   N     N_3   0.965371 0.639974 0.338155 -0.570058
H285  H     H_    0.969015 0.662284 0.333411 0.229801
H286  H     H_    0.974077 0.637435 0.379244 0.213170
N48   N     N_3   0.034339 0.640029 0.662391 -0.569998
H287  H     H_    0.030653 0.662356 0.667199 0.229756
H288  H     H_    0.025430 0.637442 0.621175 0.213258

loop_
_geom_bond_atom_site_label_1
_geom_bond_atom_site_label_2
_ccdc_geom_bond_type
C132  C144  S    
C218  H122  S    
Cu10  O15   S    
C179  H13   S    
C169  C249  S    
C99   N12   A    
C250  H211  S    
C252  H214  S    
C131  C151  S    
C34   C42   S    
Cu2   O30   S    
C97   N10   A    
C256  H224  S    
C153  O5    A    
C100  N16   A    
C193  H48   S    
C207  H84   S    
C222  H131  S    
C31   C67   T    
C73   C201  S    
C227  H149  S    
C45   O21   A    
C175  N31   S    
C216  H109  S    
C214  H104  S    
Cu10  O46   S    
C69   C93   A    
C123  C147  S    
N28   H207  S    
C7    C159  A    
C211  H102  S    
C181  C182  S    
C22   C38   S    
C21   C257  S    
Cu9   O6    S    
C91   O31   A    
C257  C258  S    
C17   N33   S    
N36   H263  S    
C213  C214  S    
C6    C158  A    
Cu2   O38   S    
C199  H63   S    
N12   N16   A    
C174  N30   S    
C230  H151  S    
C240  H177  S    
C156  O8    A    
C44   N48   S    
N32   H235  S    
C195  H54   S    
C235  H170  S    
N1    N2    A    
C80   C84   A    
C253  H223  S    
C104  C108  S    
N19   H90   S    
N7    N8    A    
N33   H258  S    
C261  H250  S    
C161  C241  S    
N35   H262  S    
C187  H33   S    
C108  C124  S    
C128  C132  S    
C41   C49   S    
N34   H259  S    
C30   C66   T    
Cu12  O7    S    
C106  C142  S    
C47   O27   A    
C165  C169  A    
C205  H79   S    
C90   O30   A    
C229  C230  S    
C247  H200  S    
C164  C168  A    
C160  C183  S    
C10   N1    A    
Cu7   O19   S    
C200  H61   S    
C126  C130  S    
C202  H65   S    
C167  C171  A    
C6    C174  A    
Cu5   O17   S    
C242  H181  S    
Cu10  O12   S    
C206  H77   S    
C17   C21   S    
C99   N15   A    
C138  C227  S    
C19   C23   S    
C259  H245  S    
C135  O39   A    
C124  C148  S    
C78   C82   A    
C85   C209  S    
C205  C206  S    
N39   H269  S    
C243  C244  S    
C120  C128  S    
C239  C240  S    
C2    C26   S    
N20   H92   S    
Cu2   Cu6   S    
C215  H112  S    
Cu4   O40   S    
C254  H219  S    
C33   C185  S    
C158  C179  S    
N25   H202  S    
N41   H273  S    
C132  C152  S    
C228  H148  S    
C36   C44   S    
C114  C150  T    
C17   C49   S    
N43   H277  S    
C16   C115  S    
C108  C144  S    
C131  C143  S    
C190  H35   S    
C2    O18   A    
Cu1   O29   S    
N48   H287  S    
C170  C174  A    
C217  H124  S    
C153  O45   A    
C186  H27   S    
C177  H9    S    
C156  O48   A    
C109  C145  T    
C84   C88   A    
N46   H284  S    
C202  H67   S    
C22   C58   S    
N19   H89   S    
C253  H222  S    
Cu11  O14   S    
C119  C123  S    
C236  H168  S    
C249  H212  S    
C234  H163  S    
C140  C231  S    
N30   H231  S    
C70   C195  S    
C117  N25   S    
C19   C35   S    
C186  H26   S    
N35   H261  S    
N11   N15   A    
C230  H153  S    
C185  H28   S    
C203  C204  S    
C184  H21   S    
C223  H140  S    
C102  C118  S    
C127  C131  S    
C224  H137  S    
Cu6   O26   S    
C22   C259  S    
C200  H60   S    
C72   C96   A    
C125  C129  S    
C181  H19   S    
C71   C95   A    
C262  H247  S    
C246  H192  S    
C196  H50   S    
C256  H226  S    
C115  C151  T    
C73   C77   A    
C14   O10   A    
C103  C107  S    
N31   H234  S    
N21   H113  S    
C75   C79   A    
C134  O38   A    
C161  C165  A    
Cu4   Cu8   S    
C38   C62   S    
C102  C130  S    
C248  H198  S    
C226  H142  S    
C217  C218  S    
C243  H190  S    
C55   C59   S    
C43   N47   S    
C264  H252  S    
C101  N21   S    
N42   H275  S    
C31   C156  S    
C201  H69   S    
C264  H254  S    
C203  H74   S    
C220  H126  S    
N18   H87   S    
C23   C59   S    
C191  H44   S    
C188  H30   S    
C258  H238  S    
C24   C40   S    
C46   O26   A    
C9    C166  S    
N26   H204  S    
Cu2   O22   S    
C93   C133  S    
C231  H159  S    
C182  H17   S    
C100  N11   A    
C226  H143  S    
C207  C208  S    
C123  C139  S    
C229  H155  S    
C49   C57   S    
N38   H267  S    
Cu2   O2    S    
C177  C178  S    
C118  C122  S    
C157  C161  A    
C121  C137  S    
Cu4   O4    S    
C52   C60   S    
C139  C143  S    
C209  H96   S    
C254  H221  S    
C237  H175  S    
N23   H117  S    
C87   C213  S    
C179  C180  S    
C258  H239  S    
C87   C95   A    
C130  C150  S    
C212  H100  S    
Cu3   O31   S    
C257  H240  S    
N23   H118  S    
C89   O33   A    
C35   C43   S    
C189  H38   S    
C41   N45   S    
C190  H37   S    
C37   C53   S    
Cu12  O13   S    
C44   C52   S    
C122  C146  S    
C82   N18   S    
C162  C166  A    
C118  N26   S    
C103  N23   S    
Cu7   O35   S    
C74   C203  S    
C18   C34   S    
C235  C236  S    
C260  H243  S    
C9    N5    A    
N24   H120  S    
C255  H227  S    
N39   H270  S    
Cu8   O36   S    
C181  H18   S    
Cu1   O21   S    
Cu1   O37   S    
C143  C221  S    
C1    O1    A    
C69   C193  S    
Cu12  O48   S    
C193  C194  S    
C163  C245  S    
C199  C200  S    
C189  H39   S    
Cu3   O3    S    
N44   H280  S    
C225  H145  S    
C58   N38   S    
N3    N4    A    
C244  H187  S    
C60   N40   S    
C129  C149  S    
C236  H166  S    
Cu5   O25   S    
C128  C239  S    
C213  H106  S    
C262  H249  S    
C263  H256  S    
C208  H80   S    
C196  H52   S    
C106  C122  S    
C78   C97   S    
C206  H76   S    
C12   N8    A    
C144  C223  S    
C180  H11   S    
C41   C53   S    
N37   H265  S    
C42   C50   S    
C29   C65   T    
C43   C55   S    
C166  C170  A    
C204  H72   S    
C55   N43   S    
C183  H23   S    
C90   O34   A    
C80   C99   S    
C74   C78   A    
C229  H154  S    
C208  H82   S    
C106  H2    S    
C15   O11   A    
C133  O41   A    
C219  C220  S    
C212  H99   S    
C215  C216  S    
C220  H128  S    
C173  N29   S    
N47   H286  S    
C228  H146  S    
Cu11  O8    S    
C213  H107  S    
C59   N39   S    
C232  H157  S    
C18   C22   S    
C5    C173  A    
C11   N4    A    
C136  O44   A    
C76   C80   A    
C135  O43   A    
C259  C260  S    
N43   H278  S    
C53   C57   S    
C56   N44   S    
C8    C176  A    
C139  C229  S    
Cu12  O10   S    
C233  H165  S    
C239  H179  S    
C192  H42   S    
C97   N13   A    
C211  C212  S    
C3    C27   S    
C178  H5    S    
C128  C140  S    
N28   H208  S    
C218  H121  S    
C242  H183  S    
Cu1   Cu5   S    
N18   H88   S    
C16   O12   A    
C159  C163  A    
N5    N6    A    
C130  C142  S    
N36   H264  S    
C83   N19   S    
C199  H64   S    
C241  H184  S    
C218  H123  S    
C230  H152  S    
C225  C226  S    
C107  H3    S    
N27   H205  S    
C169  C173  A    
C183  C184  S    
C108  H4    S    
N32   H236  S    
N37   H266  S    
C223  C224  S    
C110  C146  T    
C103  C131  S    
C81   C85   A    
C172  C176  A    
C133  O37   A    
C29   C154  S    
N17   H86   S    
C101  C129  S    
C219  H129  S    
C83   C87   A    
C88   C96   A    
C71   C197  S    
C210  H93   S    
C252  H215  S    
C237  H174  S    
C98   N9    A    
C187  H34   S    
C107  C123  S    
C154  O6    A    
C51   C67   S    
N34   H260  S    
C96   C136  S    
N45   H282  S    
C204  H70   S    
C160  C164  A    
C70   C94   A    
C45   O25   A    
N24   H119  S    
C188  H32   S    
C107  C143  S    
Cu9   O45   S    
C202  H66   S    
C129  C141  S    
Cu4   O32   S    
C242  H182  S    
N47   H285  S    
Cu10  O5    S    
C36   C191  S    
C238  H171  S    
C136  O40   A    
C142  C219  S    
C250  H209  S    
C194  H46   S    
N29   H230  S    
C164  C247  S    
Cu8   O28   S    
C259  H246  S    
C255  C256  S    
C39   C55   S    
C222  H132  S    
C40   C56   S    
C98   N14   A    
C184  H20   S    
C69   C73   A    
C6    C46   S    
C127  C237  S    
C13   C114  S    
C194  H47   S    
C254  H220  S    
C23   C261  S    
N25   H201  S    
C159  C181  S    
C228  H147  S    
C86   C211  S    
C17   C33   S    
C198  H57   S    
C190  H36   S    
C193  H49   S    
N48   H288  S    
C207  H83   S    
C15   O15   A    
C251  H217  S    
C210  H94   S    
C42   N46   S    
N31   H233  S    
C50   C58   S    
Cu3   Cu7   S    
C89   O29   A    
C79   C100  S    
C216  H110  S    
C214  H103  S    
C122  C138  S    
C138  C142  S    
C3    O19   A    
C13   O13   A    
C88   C215  S    
C9    N2    A    
C198  H55   S    
C210  H95   S    
C125  C137  S    
C211  H101  S    
C82   C86   A    
C54   N42   S    
C33   C37   S    
C192  H40   S    
N30   H232  S    
C35   C39   S    
C232  H156  S    
C8    C48   S    
C185  C186  S    
C111  C147  T    
Cu8   O20   S    
C44   C56   S    
Cu3   O39   S    
C38   C54   S    
C77   C81   A    
C240  H178  S    
C25   C61   T    
C195  H53   S    
N46   H283  S    
C120  N28   S    
C235  H169  S    
C27   C63   T    
C20   N36   S    
C28   C64   T    
C262  H248  S    
C241  H185  S    
C33   C41   S    
C5    C157  A    
C256  H225  S    
C104  N24   S    
C11   C168  S    
C54   C58   S    
C12   N3    A    
C92   C112  S    
C8    C160  A    
C172  C255  S    
C197  H59   S    
C18   C50   S    
C221  H134  S    
C154  O46   A    
C1    O17   A    
C248  H197  S    
C137  C141  S    
N22   H115  S    
C227  H150  S    
C46   O22   A    
C247  H199  S    
C124  C140  S    
Cu6   O18   S    
C191  H43   S    
N42   H276  S    
C200  H62   S    
C57   N37   S    
C201  H68   S    
C264  H253  S    
C188  H31   S    
C14   C113  S    
C35   C189  S    
C238  H173  S    
C101  C117  S    
N22   H116  S    
C194  H45   S    
C197  C198  S    
C231  H160  S    
C42   C54   S    
C79   C83   A    
C43   C51   S    
Cu9   Cu10  S    
C197  H58   S    
C5    C45   S    
C261  H251  S    
N38   H268  S    
C4    O20   A    
Cu6   O42   S    
C263  C264  S    
C11   N7    A    
C215  H111  S    
C20   C36   S    
C56   C60   S    
C245  H195  S    
C85   C93   A    
C21   C37   S    
C162  C243  S    
C104  C132  S    
N41   H274  S    
C15   C116  S    
C137  C225  S    
C13   O9    A    
C140  C144  S    
C225  H144  S    
C179  H14   S    
C7    C47   S    
C104  C120  S    
C19   N35   S    
C217  H125  S    
C185  H29   S    
C102  N22   S    
N27   H206  S    
C251  H218  S    
C216  H108  S    
C214  H105  S    
C72   C76   A    
N40   H272  S    
C75   C205  S    
C260  H242  S    
C245  C246  S    
C255  H228  S    
C201  C202  S    
C92   O32   A    
C241  C242  S    
C233  C234  S    
C49   C65   S    
Cu8   O44   S    
C187  C188  S    
C261  C262  S    
C209  C210  S    
C24   C263  S    
C246  H193  S    
C105  C141  S    
C186  H25   S    
C47   O23   A    
Cu1   O1    S    
C240  H176  S    
C89   C109  S    
C72   C199  S    
C244  H186  S    
C184  H22   S    
C91   C111  S    
C223  H139  S    
C117  C121  S    
C70   C74   A    
C12   C167  S    
C76   C207  S    
C86   C94   A    
C94   C134  S    
C155  O47   A    
C30   C153  S    
C20   C24   S    
C177  H8    S    
C238  H172  S    
C246  H191  S    
C224  H138  S    
Cu9   O16   S    
C7    C175  A    
C237  C238  S    
C102  C106  S    
C84   N20   S    
C125  C233  S    
N21   H114  S    
Cu4   O24   S    
C180  H10   S    
C141  C217  S    
C168  C172  A    
C32   C68   T    
C226  H141  S    
C204  H71   S    
C183  H24   S    
C243  H189  S    
C1    C25   S    
C208  H81   S    
C234  H161  S    
C127  C139  S    
Cu6   O34   S    
C4    C28   S    
C203  H73   S    
C191  C192  S    
C34   C187  S    
C220  H127  S    
C101  C105  S    
C245  H194  S    
C157  C177  S    
C2    O2    A    
C258  H237  S    
C113  C149  T    
C36   C40   S    
N26   H203  S    
C198  H56   S    
C232  H158  S    
C189  C190  S    
C227  C228  S    
C3    O3    A    
C196  H51   S    
C171  C175  A    
C233  H164  S    
C239  H180  S    
C112  C148  T    
C176  N32   S    
C192  H41   S    
C163  C167  A    
C21   C57   S    
C32   C155  S    
C209  H97   S    
C253  C254  S    
C24   C60   S    
C95   C135  S    
C249  C250  S    
C257  H241  S    
C105  C121  S    
C77   C98   S    
C10   N6    A    
C234  H162  S    
C50   C66   S    
C48   O28   A    
C53   N41   S    
C249  H213  S    
C182  H16   S    
C251  C252  S    
Cu5   O33   S    
Cu7   O43   S    
C91   O35   A    
C121  C145  S    
C178  H7    S    
C51   C59   S    
C18   N34   S    
Cu11  O47   S    
C178  H6    S    
C116  C152  T    
C260  H244  S    
C182  H15   S    
N17   H85   S    
Cu11  O9    S    
C219  H130  S    
C126  C138  S    
N9    N13   A    
Cu9   O11   S    
C34   C38   S    
C171  C253  S    
C14   O14   A    
C103  C119  S    
C52   C68   S    
C37   C61   S    
C222  H133  S    
N44   H279  S    
C221  H135  S    
C126  C235  S    
C39   C63   S    
N45   H281  S    
C40   C64   S    
N33   H257  S    
C20   C52   S    
C244  H188  S    
C195  C196  S    
C248  H196  S    
C26   C62   T    
C224  H136  S    
C236  H167  S    
Cu5   O41   S    
C71   C75   A    
C92   O36   A    
C212  H98   S    
C117  C125  S    
C263  H255  S    
N20   H91   S    
C10   C165  S    
C23   C39   S    
C4    O4    A    
C155  O7    A    
C206  H75   S    
C252  H216  S    
C105  H1    S    
C170  C251  S    
C205  H78   S    
C250  H210  S    
N29   H229  S    
C180  H12   S    
C231  C232  S    
C16   O16   A    
C158  C162  A    
C221  C222  S    
C48   O24   A    
C19   C51   S    
Cu11  Cu12  S    
N10   N14   A    
Cu7   O27   S    
C134  O42   A    
C247  C248  S    
C119  N27   S    
C118  C126  S    
N40   H271  S    
Cu3   O23   S    
C81   N17   S    
C120  C124  S    
C119  C127  S    
C90   C110  S    
