data_mof_unit_7972.cif
_audit_creation_date              2013-03-05T15:45:14-0500
_audit_creation_method            fapswitch 2.2
_symmetry_space_group_name_H-M    P1
_symmetry_Int_Tables_number       1
_space_group_crystal_system       triclinic
_cell_length_a                    17.112318
_cell_length_b                    7.065054
_cell_length_c                    16.68759
_cell_angle_alpha                 89.832254
_cell_angle_beta                  100.306636
_cell_angle_gamma                 90.174155
_cell_volume                      1984.95140909

loop_
_atom_site_label
_atom_site_type_symbol
_atom_site_description
_atom_site_fract_x
_atom_site_fract_y
_atom_site_fract_z
_atom_type_partial_charge
O1    O     O_R   0.579510 0.506290 0.439030 -0.582090
O2    O     O_R   0.420490 0.006290 0.560970 -0.579729
O3    O     O_R   0.412540 0.170090 0.405290 -0.595557
O4    O     O_R   0.587460 0.670090 0.594710 -0.593984
C1    C     C_R   0.388776 0.345621 0.378601 0.925127
C2    C     C_R   0.611773 0.845537 0.621096 0.924632
O5    O     O_R   0.578390 0.176230 0.429330 -0.591726
O6    O     O_R   0.421610 0.676230 0.570670 -0.593587
O7    O     O_R   0.587530 0.011250 0.585190 -0.598556
O8    O     O_R   0.412470 0.511250 0.414810 -0.600338
C3    C     C_R   0.606746 0.345100 0.416703 0.936584
C4    C     C_R   0.392423 0.844233 0.582232 0.939335
O9    O     O_3   0.502800 0.340940 0.551110 -0.294340
O10   O     O_3   0.497200 0.840940 0.448890 -0.296034
V1    V     V_3+5 0.499480 0.064020 0.490520 1.108612
V2    V     V_3+5 0.500520 0.564020 0.509480 1.107942
C5    C     C_R   0.165589 0.908537 0.858988 -0.349868
C6    C     C_R   0.834414 0.405408 0.139844 -0.353398
C7    C     C_R   0.326667 0.855706 0.629200 -0.147422
C8    C     C_R   0.671686 0.359808 0.368825 -0.152119
C9    C     C_R   0.190769 0.950928 0.636937 0.330146
C10   C     C_R   0.799881 0.497516 0.354830 0.347266
C11   C     C_R   0.253363 0.931063 0.592944 -0.289370
C12   C     C_R   0.740573 0.459978 0.401098 -0.283435
C13   C     C_R   0.336215 0.792895 0.709774 -0.213493
C14   C     C_R   0.661630 0.297722 0.288093 -0.198274
C15   C     C_R   0.277303 0.827757 0.757042 0.103544
C16   C     C_R   0.719245 0.338169 0.239653 0.102721
C17   C     C_R   0.205323 0.920207 0.723101 -0.005624
C18   C     C_R   0.791873 0.427802 0.273566 0.000377
C19   C     C_R   0.152611 0.978260 0.776970 0.094556
C20   C     C_R   0.853826 0.436903 0.225681 0.142594
C21   C     C_R   0.237001 0.811460 0.889665 0.365878
C22   C     C_R   0.757903 0.335546 0.105919 0.359850
C23   C     C_R   0.291799 0.775038 0.838819 -0.285978
C24   C     C_R   0.703475 0.293153 0.156967 -0.269637
H1    H     H_    0.347491 0.706674 0.863903 0.181151
H2    H     H_    0.646398 0.231902 0.131098 0.178539
H3    H     H_    0.243135 0.961765 0.528327 0.161142
H4    H     H_    0.746949 0.515609 0.462233 0.157074
H5    H     H_    0.391179 0.724349 0.737014 0.126293
H6    H     H_    0.607362 0.224774 0.261750 0.123738
C25   C     C_3   0.790552 0.691253 0.795468 0.173003
C26   C     C_3   0.212026 0.191000 0.201966 0.184896
H7    H     H_    0.784319 0.639428 0.857030 0.136112
H8    H     H_    0.219087 0.144951 0.139788 0.121291
C27   C     C_3   0.709313 0.664778 0.736288 -0.079923
C28   C     C_3   0.293100 0.165740 0.261507 -0.073289
H9    H     H_    0.717456 0.562711 0.687966 0.152106
H10   H     H_    0.285275 0.060241 0.308906 0.154726
H11   H     H_    0.885160 0.932024 0.713360 0.199687
H12   H     H_    0.116152 0.416184 0.286954 0.183549
C29   C     C_3   0.828851 0.987966 0.727847 -0.385281
C30   C     C_3   0.171242 0.479158 0.273066 -0.394263
C31   C     C_3   0.741603 0.009703 0.832453 -0.470219
C32   C     C_3   0.257980 0.515776 0.168984 -0.467375
C33   C     C_3   0.814229 0.905113 0.809544 -0.129954
C34   C     C_3   0.186287 0.404208 0.190431 -0.128317
H13   H     H_    0.758328 0.158172 0.849235 0.237385
H14   H     H_    0.240188 0.664278 0.153977 0.243592
H15   H     H_    0.726524 0.941101 0.887860 0.201554
H16   H     H_    0.273419 0.451323 0.113266 0.212075
C35   C     C_3   0.681946 0.861850 0.693721 -0.039720
C36   C     C_3   0.318853 0.361558 0.305965 -0.042034
C37   C     C_3   0.754944 0.951855 0.658367 -0.064635
C38   C     C_3   0.245279 0.442881 0.342302 -0.054372
C39   C     C_3   0.667846 0.009761 0.761591 0.026190
C40   C     C_3   0.331838 0.515446 0.239601 0.017261
H17   H     H_    0.666636 0.151744 0.732610 0.138964
H18   H     H_    0.332307 0.655607 0.269875 0.140523
H19   H     H_    0.838838 0.142779 0.734692 0.213545
H20   H     H_    0.159360 0.633592 0.267958 0.218049
H21   H     H_    0.736400 0.096341 0.635756 0.153963
H22   H     H_    0.262585 0.586618 0.366712 0.154675
O11   O     O_R   0.087500 0.266000 0.085220 -0.582648
O12   O     O_R   0.912500 0.766000 0.914780 -0.580776
O13   O     O_R   0.921600 0.589950 0.070670 -0.590215
O14   O     O_R   0.078400 0.089950 0.929330 -0.599541
C41   C     C_R   0.895966 0.420625 0.086942 1.040554
C42   C     C_R   0.103067 0.921652 0.911462 1.026698
O15   O     O_R   0.087460 0.596020 0.094710 -0.537386
O16   O     O_R   0.912540 0.096020 0.905290 -0.545827
O17   O     O_R   0.079520 0.760970 0.939020 -0.584276
O18   O     O_R   0.920480 0.260970 0.060980 -0.584687
C43   C     C_R   0.114237 0.425271 0.119983 0.898704
C44   C     C_R   0.885959 0.925451 0.879999 0.902321
O19   O     O_3   0.997180 0.425140 0.948910 -0.242119
O20   O     O_3   0.002820 0.925140 0.051090 -0.234306
V3    V     V_3+5 0.000520 0.702080 0.009480 1.285240
V4    V     V_3+5 0.999480 0.202080 0.990520 1.271376
C45   C     C_3   0.093588 0.140271 0.754975 -0.294024
C46   C     C_3   0.130234 0.328305 0.788459 -0.765482
H23   H     H_    0.084869 0.441989 0.776892 0.268066
H24   H     H_    0.152861 0.320340 0.854946 0.262756
H25   H     H_    0.180395 0.367042 0.757490 0.237610
H26   H     H_    0.074415 0.163203 0.689354 0.236049
H27   H     H_    0.037816 0.111674 0.778138 0.184406
C47   C     C_3   0.941174 0.440105 0.266749 -0.438499
C48   C     C_3   0.961419 0.266631 0.321770 -0.589490
H28   H     H_    0.922179 0.254331 0.367693 0.255979
H29   H     H_    0.955656 0.135793 0.284335 0.268389
H30   H     H_    0.023111 0.277726 0.355415 0.255198
H31   H     H_    0.981692 0.437099 0.222024 0.151089
H32   H     H_    0.957834 0.571678 0.300984 0.262130
C49   C     C_3   0.778069 0.847201 0.583600 -0.254241
C50   C     C_3   0.739149 0.931219 0.501390 -0.851140
H33   H     H_    0.675485 0.892802 0.486529 0.271164
H34   H     H_    0.746315 0.087393 0.500936 0.252600
H35   H     H_    0.767901 0.873342 0.452412 0.290258
H36   H     H_    0.843110 0.856541 0.585126 0.275981
H37   H     H_    0.762663 0.695094 0.583963 0.200309
C51   C     C_3   0.223128 0.329096 0.415807 -0.258694
C52   C     C_3   0.259166 0.410673 0.499265 -0.867307
H38   H     H_    0.323959 0.385450 0.513678 0.276725
H39   H     H_    0.246876 0.564516 0.501682 0.257347
H40   H     H_    0.232194 0.339774 0.547213 0.267271
H41   H     H_    0.158022 0.330093 0.413546 0.251081
H42   H     H_    0.241291 0.179162 0.414644 0.204266
C53   C     C_3   0.590661 0.008011 0.799100 -0.343258
C54   C     C_3   0.513539 0.042584 0.740164 -0.908381
H43   H     H_    0.518939 0.153815 0.695413 0.287743
H44   H     H_    0.495460 0.913054 0.706744 0.226664
H45   H     H_    0.465924 0.082141 0.774250 0.258112
H46   H     H_    0.583277 0.880361 0.834732 0.217533
H47   H     H_    0.596159 0.125334 0.843985 0.249522
C55   C     C_3   0.408680 0.520191 0.201463 -0.337528
C56   C     C_3   0.486076 0.554469 0.260095 -0.903373
H48   H     H_    0.480333 0.659954 0.306751 0.288822
H49   H     H_    0.505652 0.423220 0.291412 0.224384
H50   H     H_    0.532896 0.601232 0.226061 0.257106
H51   H     H_    0.416303 0.395378 0.164623 0.218911
H52   H     H_    0.402219 0.639888 0.157365 0.241547
N1    N     N_R   0.258074 0.761744 0.974383 0.224959
O21   O     O_R   0.239160 0.873101 0.029797 -0.471417
O22   O     O_R   0.309230 0.627406 0.996775 -0.466381
N2    N     N_R   0.734967 0.301756 0.019873 0.224602
O23   O     O_R   0.761496 0.409743 0.967464 -0.481555
O24   O     O_R   0.679119 0.180183 0.993361 -0.460666
N3    N     N_R   0.111728 0.968690 0.590959 0.228301
O25   O     O_R   0.098910 0.066171 0.523608 -0.385645
O26   O     O_R   0.054825 0.863337 0.609206 -0.363908
N4    N     N_R   0.861631 0.627159 0.388031 0.218236
O27   O     O_R   0.867902 0.787583 0.351097 -0.421572
O28   O     O_R   0.899152 0.605165 0.462463 -0.348676
N5    N     N_R   0.853055 0.574234 0.770427 0.224271
O29   O     O_R   0.872286 0.590236 0.698844 -0.428576
O30   O     O_R   0.882539 0.434287 0.816569 -0.389710
N6    N     N_R   0.150683 0.066720 0.225454 0.225868
O31   O     O_R   0.132611 0.072221 0.297754 -0.459628
O32   O     O_R   0.123394 0.927398 0.178014 -0.382715
C57   C     C_3   0.653446 0.562074 0.787214 -0.377018
C58   C     C_3   0.571183 0.508452 0.743882 -0.829408
H53   H     H_    0.534583 0.632778 0.724935 0.252843
H54   H     H_    0.576847 0.421415 0.690582 0.281965
H55   H     H_    0.540561 0.426499 0.785931 0.248700
H56   H     H_    0.682469 0.426488 0.808427 0.217999
H57   H     H_    0.650179 0.636425 0.844551 0.217569
C59   C     C_3   0.349994 0.068271 0.210750 -0.389877
C60   C     C_3   0.432138 0.017450 0.255046 -0.827791
H58   H     H_    0.467656 0.143012 0.274813 0.250316
H59   H     H_    0.426152 0.929356 0.308114 0.282958
H60   H     H_    0.463989 0.938019 0.213592 0.247833
H61   H     H_    0.321928 0.931872 0.188797 0.217673
H62   H     H_    0.353467 0.145004 0.153838 0.213427

loop_
_geom_bond_atom_site_label_1
_geom_bond_atom_site_label_2
_geom_bond_distance
_ccdc_geom_bond_type
C18   C20   1.438403 A    
C49   H36   1.110498 S    
C35   C37   1.602980 S    
C55   C56   1.518490 S    
C31   H13   1.109878 S    
C15   C17   1.420464 A    
C26   C34   1.572278 S    
O1    C3    1.311794 A    
O12   C44   1.310411 A    
O2    C4    1.312519 A    
C2    O7    1.346003 A    
N5    O29   1.299093 A    
C27   H9    1.110817 S    
C58   H54   1.101380 S    
C53   H46   1.098147 S    
O14   V4    1.999705 S    
O5    C3    1.317154 A    
O13   V3    1.994075 S    
C40   C55   1.560224 S    
C5    C21   1.415974 A    
C57   H57   1.103103 S    
C23   H1    1.084273 S    
N6    O32   1.297361 A    
C27   C35   1.594238 S    
C41   O18   1.306425 A    
O14   C42   1.315695 A    
C28   C36   1.594964 S    
C50   H33   1.106336 S    
C47   H31   1.106160 S    
C38   H22   1.114596 S    
C37   H21   1.114445 S    
C33   C44   1.546984 S    
O11   V4    2.029371 S    
C12   H4    1.081399 S    
C45   H26   1.097154 S    
O11   C43   1.310639 A    
C8    C12   1.396596 A    
C26   H8    1.115407 S    
C6    C41   1.493941 S    
C57   C58   1.510695 S    
C60   H59   1.100425 S    
C22   N2    1.439654 S    
C29   C37   1.576064 S    
C22   C24   1.401289 A    
C54   H45   1.110732 S    
C59   H62   1.102903 S    
O12   V3    2.029348 S    
O3    C1    1.355249 A    
C52   H40   1.110220 S    
O15   V3    2.010252 S    
C50   H34   1.109953 S    
C28   H10   1.110390 S    
C49   H37   1.105986 S    
O6    V2    1.999799 S    
O18   V4    1.989539 S    
C42   O17   1.312656 A    
C37   C49   1.563287 S    
C51   C52   1.532103 S    
N5    O30   1.297933 A    
H12   C30   1.102457 S    
O13   C41   1.317113 A    
O17   V3    1.986381 S    
C35   C39   1.593501 S    
C3    C8    1.483442 S    
N6    O31   1.298730 A    
N2    O24   1.301062 A    
C13   H5    1.083651 S    
C45   C46   1.531077 S    
C29   C33   1.542859 S    
O5    V1    1.994167 S    
C15   C23   1.392478 A    
O16   C44   1.329736 A    
C9    C17   1.430718 A    
C46   H25   1.111417 S    
C32   H14   1.108738 S    
C1    C36   1.547467 S    
H11   C29   1.108768 S    
C36   C38   1.600787 S    
C2    C35   1.550247 S    
O4    V2    2.010013 S    
C7    C11   1.397718 A    
C39   C53   1.559536 S    
C56   H49   1.087011 S    
C25   N5    1.472908 S    
C25   H7    1.112478 S    
C60   H58   1.091730 S    
C58   H55   1.108853 S    
C55   H52   1.112078 S    
O6    C4    1.317182 A    
C10   N4    1.431805 S    
C46   H24   1.109123 S    
C60   H60   1.108888 S    
O1    V2    1.987558 S    
C57   H56   1.107960 S    
C45   H27   1.109725 S    
C53   C54   1.518149 S    
O2    V1    1.984454 S    
C6    C22   1.418022 A    
C59   H61   1.108971 S    
C53   H47   1.111263 S    
O4    C2    1.355711 A    
C48   H29   1.111400 S    
O20   V4    2.195817 S    
C19   C45   1.528693 S    
C9    C11   1.410265 A    
N1    O21   1.300674 A    
C5    C19   1.432900 A    
C32   H16   1.110302 S    
O19   V4    1.717978 S    
C6    C20   1.429284 A    
C9    N3    1.436322 S    
C56   H48   1.096579 S    
C29   H19   1.109582 S    
C34   C43   1.551068 S    
C36   C40   1.592937 S    
N4    O28   1.301277 A    
O3    V1    2.010280 S    
C54   H43   1.097545 S    
C54   H44   1.087995 S    
C52   H38   1.106551 S    
C30   C34   1.542868 S    
C39   H17   1.110980 S    
C26   N6    1.471782 S    
C10   C18   1.427369 A    
O10   V1    1.721767 S    
C27   C57   1.563819 S    
N2    O23   1.299646 A    
C8    C14   1.398949 A    
C31   C39   1.567590 S    
N3    O25   1.301478 A    
C30   C38   1.575495 S    
C13   C15   1.409385 A    
C49   C50   1.532532 S    
C14   C16   1.410413 A    
O16   V4    2.009988 S    
C48   H28   1.108663 S    
C51   H41   1.108029 S    
C31   C33   1.553694 S    
O7    V1    2.013274 S    
C56   H50   1.110748 S    
C1    O8    1.346255 A    
C17   C19   1.443800 A    
C32   C40   1.566265 S    
C24   H2    1.084094 S    
C51   H42   1.106049 S    
N3    O26   1.302020 A    
C59   C60   1.510277 S    
C28   C59   1.562715 S    
C55   H51   1.097776 S    
C20   C47   1.528972 S    
C47   H32   1.102258 S    
C31   H15   1.112827 S    
C4    C7    1.484438 S    
C16   C18   1.418296 A    
C46   H23   1.110987 S    
C21   C23   1.397480 A    
C32   C34   1.550513 S    
C10   C12   1.405008 A    
C5    C42   1.502120 S    
C14   H6    1.083331 S    
C7    C13   1.396371 A    
C25   C33   1.570525 S    
C21   N1    1.437886 S    
C48   H30   1.106124 S    
C30   H20   1.110705 S    
O20   V3    1.721484 S    
C16   C24   1.395237 A    
C40   H18   1.112337 S    
C47   C48   1.532092 S    
O9    V2    1.718257 S    
N1    O22   1.301021 A    
O19   V3    2.200776 S    
N4    O27   1.301860 A    
O8    V2    2.013291 S    
C58   H53   1.092979 S    
C38   C51   1.566292 S    
C25   C27   1.565608 S    
C11   H3    1.082474 S    
O15   C43   1.332042 A    
C26   C28   1.565590 S    
C52   H39   1.109914 S    
C50   H35   1.106520 S    
