data_mof_unit_25891.cif
_audit_creation_date              2012-12-11T15:23:41-0500
_audit_creation_method            fapswitch 2.2
_symmetry_space_group_name_H-M    P1
_symmetry_Int_Tables_number       1
_space_group_crystal_system       triclinic
_cell_length_a                    6.958691
_cell_length_b                    17.422086
_cell_length_c                    19.331002
_cell_angle_alpha                 109.443554
_cell_angle_beta                  90.249063
_cell_angle_gamma                 90.461514
_cell_volume                      2209.80393845

loop_
_atom_site_label
_atom_site_type_symbol
_atom_type_description
_atom_site_fract_x
_atom_site_fract_y
_atom_site_fract_z
_atom_type_partial_charge
O1    O     O_R   0.505810 0.439670 0.562310 -0.542787
O2    O     O_R   0.169070 0.404920 0.411210 -0.531838
O3    O     O_R   0.005550 0.560330 0.437690 -0.543371
C1    C     C_R   0.337788 0.381865 0.382926 0.706199
O4    O     O_R   0.175650 0.430000 0.560110 -0.539710
O5    O     O_R   0.012170 0.585580 0.587650 -0.534440
C2    C     C_R   0.344587 0.414793 0.581503 0.716489
O6    O     O_R   0.499180 0.414420 0.412350 -0.539192
O7    O     O_3   0.341430 0.551020 0.508860 -0.371905
V1    V     V_3+5 0.063930 0.490540 0.498360 1.436310
O8    O     O_R   0.682850 0.595080 0.588790 -0.546329
C3    C     C_R   0.851927 0.617009 0.617595 0.731280
O9    O     O_R   0.676280 0.570000 0.439890 -0.533320
C4    C     C_R   0.845019 0.584980 0.418220 0.703417
V2    V     V_3+5 0.564760 0.509460 0.501640 1.424718
O10   O     O_3   0.837130 0.448980 0.491140 -0.368179
C5    C     C_R   0.047122 0.878129 0.188257 -0.152551
C6    C     C_R   0.915222 0.864855 0.130266 -0.104953
C7    C     C_R   0.772966 0.804178 0.119148 -0.201115
C8    C     C_R   0.759319 0.757251 0.166063 0.085547
C9    C     C_R   0.891137 0.772259 0.225275 -0.007233
C10   C     C_R   0.036692 0.832075 0.235542 0.030145
C11   C     C_R   0.620371 0.694355 0.154257 0.277034
C12   C     C_R   0.606606 0.651134 0.203853 -0.242667
C13   C     C_R   0.733989 0.666953 0.263473 0.107170
C14   C     C_R   0.880783 0.726110 0.273189 0.006142
C15   C     C_R   0.018715 0.738281 0.330094 0.029066
C16   C     C_R   0.166552 0.796825 0.338247 0.379995
C17   C     C_R   0.173096 0.843527 0.291721 -0.198585
C18   C     C_R   0.719930 0.622789 0.312295 -0.145197
C19   C     C_R   0.855789 0.634252 0.368854 -0.097605
C20   C     C_R   0.005799 0.691120 0.376779 -0.157830
H1    H     H_    0.158236 0.924387 0.196474 0.153855
H2    H     H_    0.674787 0.793355 0.073182 0.162396
H3    H     H_    0.497735 0.603864 0.194801 0.125098
H4    H     H_    0.606513 0.577660 0.305021 0.107420
H5    H     H_    0.109998 0.699030 0.420405 0.175653
H6    H     H_    0.287198 0.888310 0.298945 0.171389
C21   C     C_3   0.738807 0.800614 0.757618 -0.175072
C22   C     C_3   0.883053 0.776663 0.692778 -0.221961
H7    H     H_    0.875517 0.798447 0.645044 0.135977
H8    H     H_    0.621928 0.845505 0.767311 0.162413
C23   C     C_3   0.865014 0.686642 0.688533 -0.145697
C24   C     C_3   0.717893 0.709889 0.752192 -0.154817
C25   C     C_3   0.886209 0.722042 0.807099 0.282496
C26   C     C_3   0.031686 0.697949 0.744039 0.282755
C27   C     C_3   0.050154 0.787231 0.748123 0.259062
C28   C     C_3   0.907500 0.811889 0.812607 -0.164548
H9    H     H_    0.582163 0.677184 0.751750 0.144364
C29   C     C_3   0.528863 0.302693 0.261815 -0.140046
C30   C     C_3   0.552338 0.212381 0.256739 -0.133473
H10   H     H_    0.689386 0.183176 0.262219 0.205360
H11   H     H_    0.645680 0.348885 0.272121 0.157536
C31   C     C_3   0.416186 0.186444 0.189462 -0.119047
C32   C     C_3   0.393375 0.276174 0.193768 -0.275070
C33   C     C_3   0.221310 0.283467 0.245362 0.305237
C34   C     C_3   0.242197 0.194413 0.240820 0.422588
C35   C     C_3   0.377729 0.221058 0.308544 -0.205273
C36   C     C_3   0.353583 0.310651 0.312756 -0.124331
H12   H     H_    0.402088 0.299838 0.147293 0.122215
H13   H     H_    0.369842 0.198226 0.355666 0.149950
C37   C     C_R   0.548299 0.129127 0.817165 -0.194588
C38   C     C_R   0.414982 0.140390 0.873861 -0.148197
C39   C     C_R   0.273558 0.201792 0.885227 0.291468
C40   C     C_R   0.246147 0.240694 0.831828 -0.032190
C41   C     C_R   0.385660 0.229721 0.776183 -0.046606
C42   C     C_R   0.539397 0.175513 0.770345 0.153675
C43   C     C_R   0.086602 0.291805 0.832874 0.407297
C44   C     C_R   0.074486 0.333487 0.782438 -0.247233
C45   C     C_R   0.218079 0.326416 0.730452 0.026440
C46   C     C_R   0.374457 0.274452 0.727107 0.074821
C47   C     C_R   0.520752 0.267752 0.675018 0.113646
C48   C     C_R   0.674168 0.214740 0.670884 -0.179921
C49   C     C_R   0.681966 0.168210 0.717405 -0.123808
C50   C     C_R   0.207120 0.370516 0.681605 -0.186252
C51   C     C_R   0.354061 0.365487 0.630737 -0.082760
C52   C     C_R   0.511204 0.314266 0.628047 -0.218870
H14   H     H_    0.661128 0.084613 0.810045 0.125648
H15   H     H_    0.951419 0.371802 0.783960 0.164083
H16   H     H_    0.086476 0.410461 0.684424 0.129643
H17   H     H_    0.624602 0.309712 0.588621 0.129655
H18   H     H_    0.787758 0.208888 0.631337 0.133628
H19   H     H_    0.801454 0.127317 0.712727 0.122315
O11   O     O_R   0.271890 0.085690 0.087580 -0.519916
O12   O     O_R   0.595690 0.070020 0.939870 -0.533426
O13   O     O_R   0.758900 0.914390 0.912370 -0.536390
C53   C     C_R   0.426362 0.087992 0.920766 0.688206
O14   O     O_R   0.602020 0.095100 0.088770 -0.535391
O15   O     O_R   0.765280 0.939660 0.062330 -0.535323
C54   C     C_R   0.433233 0.116956 0.117920 0.742188
O16   O     O_R   0.265520 0.060430 0.937620 -0.552538
O17   O     O_3   0.429560 0.949050 0.991100 -0.373489
V3    V     V_3+5 0.707160 0.009450 0.001650 1.473745
O18   O     O_R   0.094540 0.929890 0.060190 -0.539479
C55   C     C_R   0.925704 0.914587 0.081436 0.770219
O19   O     O_R   0.088200 0.904800 0.911290 -0.546761
C56   C     C_R   0.919253 0.882335 0.882896 0.705967
V4    V     V_3+5 0.206300 0.990390 0.998440 1.449488
O20   O     O_3   0.934030 0.050940 0.008900 -0.365078
N1    N     N_2   0.884256 0.698655 0.872359 -0.529748
H20   H     H_    0.011136 0.709355 0.901845 0.246352
C57   C     C_3   0.785604 0.623438 0.866605 -0.540431
H21   H     H_    0.628502 0.633083 0.867652 0.207678
H22   H     H_    0.824084 0.604328 0.914235 0.206674
H23   H     H_    0.824320 0.574274 0.815148 0.191081
N2    N     N_2   0.184334 0.638623 0.730543 -0.515392
H24   H     H_    0.283125 0.642473 0.692330 0.264742
C58   C     C_3   0.264452 0.621089 0.792548 -0.590151
H25   H     H_    0.385432 0.578097 0.773910 0.186529
H26   H     H_    0.156935 0.589915 0.815997 0.226292
H27   H     H_    0.316544 0.678018 0.834777 0.201917
N3    N     N_2   0.227576 0.829918 0.744687 -0.525944
H28   H     H_    0.221312 0.891308 0.773743 0.251069
C59   C     C_3   0.301594 0.813992 0.671283 -0.518198
H29   H     H_    0.436875 0.848683 0.673323 0.191653
H30   H     H_    0.198384 0.834340 0.637176 0.201010
H31   H     H_    0.330834 0.748215 0.644845 0.207412
N4    N     N_2   0.043137 0.322233 0.237715 -0.522805
H32   H     H_    0.058813 0.384384 0.251042 0.240323
C60   C     C_3   0.943870 0.284754 0.168459 -0.495015
H33   H     H_    0.826718 0.324794 0.162084 0.178759
H34   H     H_    0.880208 0.225525 0.166308 0.247995
H35   H     H_    0.043271 0.274440 0.121756 0.186781
Cl1   Cl    Cl    0.057105 0.120232 0.231586 -0.719479
N5    N     N_2   0.187170 0.235671 0.955506 -0.468346
H36   H     H_    0.153872 0.196113 0.983102 0.263571
C61   C     C_3   0.283510 0.308858 0.001891 -0.474828
H37   H     H_    0.197479 0.337711 0.051723 0.185888
H38   H     H_    0.299476 0.353967 0.972946 0.224106
H39   H     H_    0.427989 0.293789 0.018163 0.177032
Cl2   Cl    Cl    0.887570 0.301609 0.891462 -0.662740
N6    N     N_2   0.502381 0.670555 0.090122 -0.531084
H40   H     H_    0.482299 0.608388 0.067779 0.262065
C62   C     C_3   0.322912 0.713524 0.098136 -0.537479
H41   H     H_    0.247140 0.695858 0.044359 0.196750
H42   H     H_    0.349405 0.780240 0.116942 0.207498
H43   H     H_    0.229989 0.697494 0.137961 0.201396
Cl3   Cl    Cl    0.348669 0.813555 0.405522 -0.667985

loop_
_geom_bond_atom_site_label_1
_geom_bond_atom_site_label_2
_ccdc_geom_bond_type
C24   H9    S    
C22   C27   S    
C9    C14   A    
C10   C17   A    
C53   O16   A    
C48   C49   A    
C7    C8    A    
C4    C19   S    
C1    O6    A    
C62   H43   S    
N3    C59   S    
C59   H29   S    
O17   V4    S    
C25   C26   S    
C33   C34   S    
C28   C56   S    
C14   C15   A    
C47   C52   A    
C5    H1    S    
C37   C42   A    
C29   C36   S    
C16   C17   A    
C31   C54   S    
C3    C23   S    
C44   C45   A    
O5    C3    A    
C18   C19   A    
N2    H24   S    
O18   V4    S    
V2    O10   S    
V4    O20   S    
C58   H25   S    
C57   H23   S    
C6    C7    A    
C26   C27   S    
O13   C56   A    
N4    H32   S    
O17   V3    S    
C31   C32   S    
O12   V3    S    
C22   C23   S    
C19   C20   A    
C43   C44   A    
O19   V4    S    
C17   H6    S    
C11   C12   A    
C45   C46   A    
O1    V2    S    
C50   H16   S    
V3    O20   S    
C2    C51   S    
C60   H35   S    
C32   H12   S    
C35   H13   S    
C41   C42   A    
O9    C4    A    
O15   V3    S    
C6    C55   S    
C57   H21   S    
O11   C54   A    
N3    H28   S    
C60   H34   S    
C5    C6    A    
C21   H8    S    
O12   C53   A    
C29   H11   S    
C30   H10   S    
C12   H3    S    
C49   H19   S    
C16   Cl3   S    
C12   C13   A    
C21   C22   S    
O4    C2    A    
N6    H40   S    
C62   H42   S    
C35   C36   S    
C25   N1    S    
O15   C55   A    
C43   Cl2   S    
O2    C1    A    
C50   C51   A    
C61   H38   S    
C41   C46   A    
C37   C38   A    
O13   V3    S    
C27   C28   S    
C8    C11   A    
C52   H17   S    
C40   C43   A    
O19   C56   A    
C32   C33   S    
N1    C57   S    
C29   C30   S    
C30   C35   S    
C20   H5    S    
C51   C52   A    
C57   H22   S    
C21   C24   S    
O3    C4    A    
C22   H7    S    
O14   C54   A    
C40   C41   A    
O6    V2    S    
O8    V2    S    
O9    V2    S    
C23   C24   S    
N5    H36   S    
C44   H15   S    
C61   H37   S    
O2    V1    S    
C48   H18   S    
C45   C50   A    
C24   C25   S    
O7    V1    S    
C25   C28   S    
C13   C18   A    
O14   V3    S    
C38   C53   S    
C15   C20   A    
O1    C2    A    
C33   N4    S    
C37   H14   S    
C29   C32   S    
C47   C48   A    
C7    H2    S    
O5    V1    S    
C59   H30   S    
O8    C3    A    
C58   H27   S    
C62   H41   S    
C5    C10   A    
C33   C36   S    
C18   H4    S    
C30   C31   S    
O11   V4    S    
C39   C40   A    
C13   C14   A    
C61   H39   S    
O4    V1    S    
O3    V1    S    
V1    O10   S    
C34   Cl1   S    
C34   C35   S    
N2    C58   S    
C26   N2    S    
C1    C36   S    
N1    H20   S    
C58   H26   S    
C11   N6    S    
C42   C49   A    
O16   V4    S    
O7    V2    S    
O18   C55   A    
C23   C26   S    
N4    C60   S    
C59   H31   S    
C38   C39   A    
C46   C47   A    
C8    C9    A    
N6    C62   S    
C39   N5    S    
C15   C16   A    
N5    C61   S    
C60   H33   S    
C9    C10   A    
C27   N3    S    
C21   C28   S    
C31   C34   S    
