data_mof_unit_68006.cif
_audit_creation_date              2012-12-11T15:52:14-0500
_audit_creation_method            fapswitch 2.2
_symmetry_space_group_name_H-M    P1
_symmetry_Int_Tables_number       1
_space_group_crystal_system       triclinic
_cell_length_a                    11.539787
_cell_length_b                    11.60028
_cell_length_c                    18.822101
_cell_angle_alpha                 90.080981
_cell_angle_beta                  89.893407
_cell_angle_gamma                 119.513098
_cell_volume                      2192.67433005

loop_
_atom_site_label
_atom_site_type_symbol
_atom_type_description
_atom_site_fract_x
_atom_site_fract_y
_atom_site_fract_z
_atom_type_partial_charge
C1    C     C_R   0.542873 0.424512 0.141027 0.568404
C2    C     C_R   0.546806 0.067385 0.147251 0.497129
C3    C     C_R   0.927839 0.476635 0.146031 0.514253
C4    C     C_R   0.454484 0.520557 0.852829 0.534998
C5    C     C_R   0.071922 0.549201 0.853582 0.562026
C6    C     C_R   0.477547 0.931530 0.853598 0.542398
C7    C     C_3   0.751167 0.090441 0.550674 0.298994
C8    C     C_3   0.910990 0.664640 0.550903 0.303565
C9    C     C_3   0.340638 0.251412 0.552238 0.301538
C10   C     C_3   0.932576 0.681037 0.470142 0.306525
C11   C     C_3   0.748053 0.068373 0.470104 0.302311
C12   C     C_3   0.323736 0.256615 0.472164 0.302714
C13   C     C_R   0.519729 0.454472 0.352710 0.534011
C14   C     C_R   0.544386 0.063105 0.352019 0.541806
C15   C     C_R   0.935505 0.480436 0.352422 0.541811
C16   C     C_R   0.448866 0.523584 0.644626 0.549512
C17   C     C_R   0.074189 0.551306 0.644539 0.554565
C18   C     C_R   0.476753 0.925722 0.644351 0.554652
C19   C     C_R   0.499198 0.987359 0.925898 -0.026603
C20   C     C_R   0.027160 0.523251 0.926498 0.037935
C21   C     C_R   0.498173 0.489884 0.920655 -0.013900
C22   C     C_R   0.979557 0.499006 0.073819 0.016423
C23   C     C_R   0.515043 0.010606 0.075966 0.012195
C24   C     C_R   0.533850 0.443479 0.065060 0.041009
C25   C     C_R   0.403261 0.001407 0.965457 -0.039226
C26   C     C_R   0.022940 0.417799 0.963614 -0.008591
C27   C     C_R   0.591223 0.589205 0.964142 -0.017243
C28   C     C_R   0.998568 0.405164 0.036908 -0.046265
C29   C     C_R   0.410617 0.008784 0.039435 -0.007407
C30   C     C_R   0.608900 0.567432 0.034537 -0.012188
C31   C     C_R   0.612123 0.999501 0.036793 -0.139112
C32   C     C_R   0.980991 0.603343 0.035293 -0.103394
C33   C     C_R   0.452131 0.337126 0.020204 -0.172491
C34   C     C_R   0.003722 0.614548 0.963214 -0.175559
C35   C     C_R   0.609315 0.998854 0.963127 -0.107161
C36   C     C_R   0.435355 0.360442 0.948669 -0.168162
C37   C     C_3   0.256604 0.910838 0.968280 0.174981
C38   C     C_3   0.926552 0.274548 0.950769 0.158363
C39   C     C_3   0.613355 0.724021 0.981170 0.197422
C40   C     C_3   0.898379 0.260526 0.030100 0.148405
C41   C     C_3   0.267684 0.909663 0.048126 0.194636
C42   C     C_3   0.630169 0.699081 0.059056 0.170077
C43   C     C_R   0.492231 0.962517 0.570083 0.066334
C44   C     C_R   0.036785 0.530158 0.570437 0.066261
C45   C     C_R   0.471585 0.508480 0.570789 0.060551
C46   C     C_R   0.978274 0.498679 0.425359 0.029317
C47   C     C_R   0.519247 0.019378 0.424740 0.027667
C48   C     C_R   0.502888 0.480621 0.425707 0.027032
C49   C     C_R   0.611393 0.068284 0.543790 -0.123202
C50   C     C_R   0.931277 0.545903 0.544332 -0.126033
C51   C     C_R   0.458592 0.389124 0.545110 -0.128000
C52   C     C_R   0.914528 0.543414 0.471196 -0.029756
C53   C     C_R   0.626101 0.083883 0.470707 -0.028410
C54   C     C_R   0.461020 0.374569 0.472021 -0.026880
C55   C     C_R   0.405479 0.908531 0.448901 -0.107985
C56   C     C_R   0.090535 0.496561 0.449202 -0.107830
C57   C     C_R   0.506691 0.595444 0.449703 -0.109777
C58   C     C_R   0.121408 0.514017 0.521744 -0.053990
C59   C     C_R   0.392535 0.878292 0.521563 -0.052399
C60   C     C_R   0.488233 0.608694 0.522181 -0.060327
Cr1   Cr    Cr6+3 0.769160 0.541570 0.250690 0.956647
Cr2   Cr    Cr6+3 0.458430 0.227590 0.250690 0.959983
Cr3   Cr    Cr6+3 0.772410 0.230840 0.250690 0.992255
Cr4   Cr    Cr6+3 0.541570 0.769160 0.749310 0.980403
Cr5   Cr    Cr6+3 0.227590 0.458430 0.749310 0.972541
Cr6   Cr    Cr6+3 0.230840 0.772410 0.749310 0.947110
H1    H     H_    0.694735 0.998331 0.062781 0.207777
H2    H     H_    0.960569 0.675708 0.059924 0.141833
H3    H     H_    0.395780 0.237786 0.041180 0.143781
H4    H     H_    0.003749 0.696191 0.936423 0.149093
H5    H     H_    0.692972 0.004393 0.934971 0.248565
H6    H     H_    0.367791 0.278724 0.916697 0.149032
H7    H     H_    0.226387 0.816114 0.940754 0.173703
H8    H     H_    0.979640 0.222279 0.932704 0.145341
H9    H     H_    0.523111 0.732578 0.970606 0.170131
H10   H     H_    0.797891 0.242449 0.044954 0.140077
H11   H     H_    0.209749 0.950144 0.074868 0.126043
H12   H     H_    0.732694 0.765377 0.079586 0.096612
H13   H     H_    0.333390 0.842911 0.411196 0.078503
H14   H     H_    0.156834 0.491430 0.411006 0.076144
H15   H     H_    0.513699 0.667764 0.411929 0.080593
H16   H     H_    0.210275 0.514253 0.540189 0.138595
H17   H     H_    0.304919 0.790270 0.540248 0.141585
H18   H     H_    0.488133 0.696989 0.540695 0.141657
O1    O     O_R   0.911480 0.572650 0.170990 -0.562523
O2    O     O_R   0.427350 0.338830 0.170990 -0.546167
O3    O     O_R   0.661170 0.088520 0.170990 -0.540465
O4    O     O_R   0.572650 0.911480 0.829010 -0.526602
O5    O     O_R   0.338830 0.427350 0.829010 -0.567782
O6    O     O_R   0.088520 0.661170 0.829010 -0.592239
O7    O     O_R   0.640340 0.528970 0.175680 -0.535648
O8    O     O_R   0.471030 0.111370 0.175680 -0.547758
O9    O     O_R   0.888630 0.359660 0.175680 -0.517111
O10   O     O_R   0.528970 0.640340 0.824320 -0.505048
O11   O     O_R   0.111370 0.471030 0.824320 -0.493856
O12   O     O_R   0.359660 0.888630 0.824320 -0.545354
O13   O     O_R   0.909980 0.572450 0.331530 -0.535485
O14   O     O_R   0.427550 0.337530 0.331530 -0.530360
O15   O     O_R   0.662470 0.090020 0.331530 -0.533559
O16   O     O_R   0.572450 0.909980 0.668470 -0.500111
O17   O     O_R   0.337530 0.427550 0.668470 -0.504516
O18   O     O_R   0.090020 0.662470 0.668470 -0.500928
O19   O     O_R   0.638950 0.528780 0.324500 -0.478844
O20   O     O_R   0.471220 0.110170 0.324500 -0.476207
O21   O     O_R   0.889830 0.361050 0.324500 -0.475199
O22   O     O_R   0.528780 0.638950 0.675500 -0.505466
O23   O     O_R   0.110170 0.471220 0.675500 -0.501691
O24   O     O_R   0.361050 0.889830 0.675500 -0.505321
O25   O     O_3   0.666667 0.333333 0.250560 -0.285770
O26   O     O_3   0.333333 0.666667 0.749440 -0.295678
O27   O     O_3   0.180139 0.971568 0.952903 -0.636463
C61   C     C_3   0.195903 0.015303 0.882592 -0.029155
H19   H     H_    0.153166 0.929729 0.846337 0.157644
H20   H     H_    0.302313 0.079643 0.868129 0.140879
C62   C     C_3   0.123922 0.094647 0.875937 -0.403106
H21   H     H_    0.109563 0.127473 0.929001 0.177289
H22   H     H_    0.185402 0.184930 0.845887 0.124649
H23   H     H_    0.025693 0.036039 0.850081 0.126012
O28   O     O_3   0.818546 0.246352 0.903709 -0.578656
C63   C     C_3   0.739963 0.306977 0.918808 -0.010530
H24   H     H_    0.784518 0.392285 0.955101 0.116059
H25   H     H_    0.646841 0.236820 0.945640 0.140097
C64   C     C_3   0.704550 0.347283 0.848773 -0.363242
H26   H     H_    0.648333 0.258645 0.814610 0.155955
H27   H     H_    0.642212 0.393634 0.858302 0.095363
H28   H     H_    0.796257 0.419415 0.820478 0.158110
O29   O     O_3   0.729543 0.830510 0.950700 -0.601141
C65   C     C_3   0.837795 0.807476 0.940661 -0.005810
H29   H     H_    0.845319 0.743375 0.981720 0.098123
H30   H     H_    0.929093 0.903431 0.946990 0.200059
C66   C     C_3   0.833000 0.752616 0.866268 -0.364626
H31   H     H_    0.934238 0.783497 0.847141 0.096422
H32   H     H_    0.776635 0.642922 0.866279 0.130480
H33   H     H_    0.785163 0.789551 0.828936 0.184353
O30   O     O_3   0.927702 0.166805 0.062740 -0.581213
C67   C     C_3   0.061736 0.217891 0.083753 0.011638
H34   H     H_    0.087448 0.291785 0.127140 0.158870
H35   H     H_    0.130726 0.263674 0.038045 0.136034
C68   C     C_3   0.079027 0.104497 0.111881 -0.384620
H36   H     H_    0.050286 0.027254 0.070260 0.167251
H37   H     H_    0.184390 0.141419 0.127041 0.122689
H38   H     H_    0.014878 0.059789 0.159297 0.131349
O31   O     O_3   0.244487 0.784178 0.071660 -0.571588
C69   C     C_3   0.246610 0.773600 0.146654 0.012181
H39   H     H_    0.349929 0.822360 0.166610 0.139436
H40   H     H_    0.203167 0.666944 0.159022 0.159344
C70   C     C_3   0.166056 0.823658 0.188056 -0.410070
H41   H     H_    0.073030 0.801820 0.160387 0.166948
H42   H     H_    0.141986 0.778181 0.241738 0.117859
H43   H     H_    0.226196 0.932088 0.193239 0.119390
O32   O     O_3   0.521308 0.683452 0.101331 -0.558164
C71   C     C_3   0.563972 0.744899 0.168583 0.017045
H44   H     H_    0.571247 0.843158 0.166667 0.153961
H45   H     H_    0.662308 0.759513 0.185864 0.116299
C72   C     C_3   0.462587 0.662543 0.225451 -0.357336
H46   H     H_    0.482489 0.721409 0.275005 0.054798
H47   H     H_    0.360119 0.630513 0.207507 0.138160
H48   H     H_    0.468482 0.572326 0.237310 0.194524
O33   O     O_3   0.758061 0.990036 0.591697 -0.480786
C73   C     C_3   0.838980 0.037423 0.653017 0.045256
H49   H     H_    0.836783 0.122239 0.679418 0.117882
H50   H     H_    0.937562 0.064669 0.633457 0.183911
C74   C     C_3   0.798240 0.933090 0.711304 -0.326739
H51   H     H_    0.741086 0.832048 0.689833 0.228690
H52   H     H_    0.882328 0.939582 0.740454 0.004489
H53   H     H_    0.743200 0.952072 0.752791 0.199062
O34   O     O_3   0.012651 0.771193 0.591240 -0.476671
C75   C     C_3   0.966458 0.807302 0.652565 0.049040
H54   H     H_    0.882928 0.722119 0.680336 0.106317
H55   H     H_    0.936340 0.877041 0.633531 0.187965
C76   C     C_3   0.074190 0.872317 0.708834 -0.340510
H56   H     H_    0.067858 0.949475 0.738595 0.002190
H57   H     H_    0.059695 0.799157 0.749424 0.182648
H58   H     H_    0.173999 0.916354 0.685280 0.237126
O35   O     O_3   0.231553 0.245081 0.591568 -0.479816
C77   C     C_3   0.193695 0.162511 0.652181 0.040986
H59   H     H_    0.278414 0.162778 0.680554 0.104425
H60   H     H_    0.124037 0.064164 0.632301 0.187377
C78   C     C_3   0.127369 0.206133 0.707677 -0.330807
H61   H     H_    0.080403 0.258679 0.683472 0.236692
H62   H     H_    0.053181 0.125383 0.739347 0.020894
H63   H     H_    0.201289 0.268374 0.746386 0.194609
O36   O     O_3   0.831437 0.687238 0.427343 -0.485733
C79   C     C_3   0.889052 0.792133 0.376365 0.084183
H64   H     H_    0.969599 0.790156 0.346367 0.114631
H65   H     H_    0.928360 0.884370 0.405361 0.145853
C80   C     C_3   0.798627 0.792818 0.317712 -0.328487
H66   H     H_    0.699198 0.768824 0.337217 0.151473
H67   H     H_    0.847476 0.889808 0.290638 0.000002
H68   H     H_    0.791621 0.727456 0.273725 0.183831
O37   O     O_3   0.853775 0.169700 0.427182 -0.485678
C81   C     C_3   0.905298 0.113150 0.377264 0.079915
H69   H     H_    0.825103 0.031944 0.347463 0.114703
H70   H     H_    0.959560 0.076099 0.407614 0.149568
C82   C     C_3   0.996195 0.202384 0.318269 -0.321541
H71   H     H_    0.043887 0.151979 0.291168 0.007968
H72   H     H_    0.939183 0.210664 0.273804 0.194455
H73   H     H_    0.071952 0.300660 0.337843 0.149401
O38   O     O_3   0.318428 0.150354 0.429785 -0.489093
C83   C     C_3   0.206476 0.097636 0.383803 0.076687
H74   H     H_    0.201824 0.176659 0.354455 0.114476
H75   H     H_    0.118769 0.042785 0.416774 0.169878
C84   C     C_3   0.206082 0.011660 0.323576 -0.334605
H76   H     H_    0.232625 0.936838 0.340752 0.155190
H77   H     H_    0.107962 0.965579 0.297330 0.000188
H78   H     H_    0.270909 0.074071 0.280609 0.190067
C85   C     C_2   0.843673 0.231720 0.570644 0.258297
H79   H     H_    0.805147 0.297059 0.584753 0.043924
O39   O     O_2   0.961840 0.269292 0.574815 -0.452943
C86   C     C_2   0.769831 0.618923 0.571980 0.260601
H80   H     H_    0.704967 0.516899 0.587368 0.041910
O40   O     O_2   0.732714 0.699980 0.576929 -0.450475
C87   C     C_2   0.387087 0.156411 0.572886 0.258833
H81   H     H_    0.488813 0.192359 0.589915 0.039961
O41   O     O_2   0.306152 0.039201 0.575269 -0.450098
C88   C     C_2   0.077876 0.777033 0.451527 0.223602
H82   H     H_    0.122658 0.753307 0.407623 0.032235
O42   O     O_2   0.140821 0.882192 0.482001 -0.412762
C89   C     C_2   0.704589 0.924253 0.452595 0.234057
H83   H     H_    0.633476 0.876220 0.410592 0.032529
O43   O     O_2   0.755272 0.866590 0.481446 -0.406642
C90   C     C_2   0.225065 0.304820 0.454649 0.231722
H84   H     H_    0.250057 0.376792 0.413021 0.034974
O44   O     O_2   0.114973 0.253871 0.481280 -0.411078

loop_
_geom_bond_atom_site_label_1
_geom_bond_atom_site_label_2
_ccdc_geom_bond_type
C84   H76   S    
C45   C60   A    
Cr3   O25   S    
C82   H72   S    
C55   C59   A    
C3    O1    A    
C48   C57   A    
Cr6   O18   S    
C74   H51   S    
C9    C51   S    
Cr5   O17   S    
C76   H58   S    
C76   H56   S    
C66   H33   S    
Cr1   O25   S    
C65   H29   S    
C61   H20   S    
C64   H26   S    
Cr6   O6    S    
C5    C20   S    
C87   H81   S    
Cr5   O5    S    
C6    C19   S    
C76   H57   S    
C55   H13   S    
C22   C32   A    
C23   C29   A    
Cr6   O12   S    
C70   H42   S    
C59   H17   S    
C41   O31   S    
C88   O42   D    
C58   H16   S    
C41   H11   S    
C68   H38   S    
C75   H55   S    
C64   H27   S    
C72   H47   S    
C45   C51   A    
C36   H6    S    
O31   C69   S    
C46   C52   A    
C33   C36   A    
C6    O4    A    
C79   H64   S    
C13   O14   A    
C80   H68   S    
Cr3   O15   S    
C70   H41   S    
C25   C37   S    
Cr2   O14   S    
Cr4   O26   S    
C77   C78   S    
O27   C61   S    
C44   C58   A    
C83   H74   S    
C62   H22   S    
Cr2   O8    S    
C50   C52   A    
O32   C71   S    
C39   H9    S    
C56   C58   A    
C13   O19   A    
C34   H4    S    
C11   C89   S    
C5    O6    A    
C11   C53   S    
C63   C64   S    
C43   C59   A    
C47   C53   A    
C82   H73   S    
C20   C34   A    
C68   H37   S    
C77   H60   S    
C21   C27   A    
C35   H5    S    
O38   C83   S    
C1    O7    A    
C22   C28   A    
C72   H48   S    
C10   O36   S    
C18   O16   A    
C15   O13   A    
C69   C70   S    
C8    C86   S    
C61   H19   S    
C84   H78   S    
C7    C85   S    
C63   H25   S    
C39   C42   S    
Cr2   O20   S    
C87   O41   D    
Cr5   O23   S    
C25   C29   A    
Cr1   O19   S    
C40   O30   S    
C72   H46   S    
C39   O29   S    
O37   C81   S    
C73   C74   S    
O30   C67   S    
C74   H53   S    
C88   H82   S    
C7    C49   S    
C67   H35   S    
C27   C39   S    
O34   C75   S    
C21   C36   A    
C43   C49   A    
C64   H28   S    
C3    C22   S    
C9    C87   S    
C32   C34   A    
C67   C68   S    
Cr3   O3    S    
C85   H79   S    
C23   C31   A    
C48   C54   A    
C7    C11   S    
O36   C79   S    
C81   C82   S    
C8    O34   S    
C89   O43   D    
C84   H77   S    
C10   C52   S    
C14   O20   A    
O33   C73   S    
C71   C72   S    
Cr4   O16   S    
C68   H36   S    
C62   H23   S    
C70   H43   S    
C2    O3    A    
C3    O9    A    
Cr6   O26   S    
C90   O44   D    
C42   O32   S    
C12   C90   S    
Cr1   O1    S    
C78   H63   S    
C4    O10   A    
C38   O28   S    
C69   H40   S    
C77   H59   S    
C71   H45   S    
C42   H12   S    
C17   O18   A    
C6    O12   A    
C14   O15   A    
C31   C35   A    
C24   C30   A    
Cr3   O21   S    
O29   C65   S    
C65   C66   S    
C8    C50   S    
C89   H83   S    
C63   H24   S    
Cr2   O2    S    
C47   C55   A    
C4    O5    A    
C38   H8    S    
C44   C50   A    
C1    O2    A    
C37   H7    S    
C75   H54   S    
C29   C41   S    
C26   C28   A    
C8    C10   S    
Cr1   O13   S    
Cr6   O24   S    
C69   H39   S    
C66   H32   S    
C66   H31   S    
C65   H30   S    
C16   C45   S    
C13   C48   S    
O28   C63   S    
Cr4   O22   S    
C14   C47   S    
C33   H3    S    
C78   H61   S    
Cr3   O9    S    
C86   O40   D    
C24   C33   A    
C56   H14   S    
C79   C80   S    
C32   H2    S    
C51   C54   A    
C26   C38   S    
C81   H69   S    
C15   O21   A    
C17   O23   A    
C57   C60   A    
C17   C44   S    
Cr4   O10   S    
C80   H66   S    
O35   C77   S    
C19   C35   A    
C18   C43   S    
C73   H49   S    
C38   C40   S    
C4    C21   S    
C60   H18   S    
C10   C88   S    
C16   O22   A    
C5    O11   A    
Cr2   O25   S    
C20   C26   A    
C83   C84   S    
C49   C53   A    
C2    O8    A    
C12   O38   S    
C79   H65   S    
C9    O35   S    
C11   O37   S    
C37   C41   S    
C90   H84   S    
C19   C25   A    
C57   H15   S    
C18   O24   A    
Cr5   O26   S    
C80   H67   S    
C9    C12   S    
C31   H1    S    
C82   H71   S    
C40   H10   S    
C16   O17   A    
Cr5   O11   S    
C37   O27   S    
C7    O33   S    
C71   H44   S    
C1    C24   S    
C83   H75   S    
C86   H80   S    
C46   C56   A    
C2    C23   S    
C85   O39   D    
C28   C40   S    
C30   C42   S    
C74   H52   S    
C78   H62   S    
C75   C76   S    
C15   C46   S    
C62   H21   S    
Cr4   O4    S    
C61   C62   S    
C12   C54   S    
C67   H34   S    
Cr1   O7    S    
C73   H50   S    
C27   C30   A    
C81   H70   S    
