data_mof_unit_68567.cif
_audit_creation_date              2013-03-05T15:53:41-0500
_audit_creation_method            fapswitch 2.2
_symmetry_space_group_name_H-M    P1
_symmetry_Int_Tables_number       1
_space_group_crystal_system       triclinic
_cell_length_a                    8.445371
_cell_length_b                    12.922498
_cell_length_c                    16.393821
_cell_angle_alpha                 94.590548
_cell_angle_beta                  93.436211
_cell_angle_gamma                 97.916956
_cell_volume                      1761.83843449

loop_
_atom_site_label
_atom_site_type_symbol
_atom_site_description
_atom_site_fract_x
_atom_site_fract_y
_atom_site_fract_z
_atom_type_partial_charge
P1    P     P_3+3 0.983580 0.746680 0.563420 0.540539
O1    O     O_2   0.158840 0.763480 0.539220 -0.340076
O2    O     O_3   0.888900 0.629060 0.541050 -0.360166
O3    O     O_3   0.391330 0.697380 0.393380 -0.287312
O4    O     O_2   0.318780 0.880202 0.459313 -0.336356
O5    O     O_3   0.994186 0.760963 0.670573 -0.516828
O6    O     O_3   0.388407 0.893068 0.311526 -0.603882
C1    C     C_3   0.420715 0.916863 0.169446 -0.194869
H1    H     H_    0.293764 0.899003 0.145699 0.156849
P2    P     P_3+3 0.350740 0.415080 0.315970 0.524652
P3    P     P_3+3 0.941173 0.630916 0.243702 0.576435
O7    O     O_2   0.182780 0.447540 0.303450 -0.384794
O8    O     O_3   0.969510 0.643060 0.352850 -0.261427
O9    O     O_2   0.073487 0.569692 0.212681 -0.394062
O10   O     O_3   0.320955 0.278590 0.301121 -0.595678
O11   O     O_3   0.995250 0.758567 0.212565 -0.525774
C2    C     C_3   0.912010 0.772231 0.137317 0.817585
H2    H     H_    0.787018 0.732932 0.134136 -0.025352
C3    C     C_3   0.994630 0.730876 0.063709 -0.915272
H3    H     H_    0.103574 0.785215 0.053656 0.258391
H4    H     H_    0.027316 0.651820 0.071090 0.236226
C4    C     C_3   0.871155 0.266708 0.275041 0.940701
H5    H     H_    0.943464 0.338655 0.304529 -0.026787
C5    C     C_3   0.758654 0.295932 0.205469 0.151008
H6    H     H_    0.825370 0.361327 0.175622 -0.055364
H7    H     H_    0.652798 0.322763 0.232401 0.070831
Ba1   Ba    Ba6+2 0.162890 0.552530 0.460820 1.720921
C6    C     C_3   0.077929 0.686950 0.703765 0.279348
H8    H     H_    0.196869 0.691746 0.678994 0.093391
H9    H     H_    0.010374 0.606888 0.689293 0.061054
C7    C     C_3   0.100000 0.713803 0.796794 -0.042042
H10   H     H_    0.133567 0.799693 0.811339 0.228412
H11   H     H_    0.199414 0.676668 0.823034 0.048580
C8    C     C_3   0.268371 0.231666 0.370805 0.235223
H12   H     H_    0.143990 0.245021 0.379623 0.063730
H13   H     H_    0.345695 0.262241 0.427120 0.114002
C9    C     C_3   0.276356 0.114533 0.354262 0.167663
H14   H     H_    0.262039 0.094867 0.286741 0.162039
H15   H     H_    0.397345 0.100093 0.375471 0.163167
P4    P     P_3+3 0.826720 0.253310 0.436510 0.505876
O12   O     O_2   0.651450 0.236450 0.460750 -0.364092
O13   O     O_3   0.921400 0.370930 0.458880 -0.367749
O14   O     O_3   0.418970 0.302610 0.606550 -0.341769
O15   O     O_3   0.772277 0.218435 0.331058 -0.549975
P5    P     P_3+3 0.879575 0.367521 0.753928 0.559970
O16   O     O_3   0.377910 0.555000 0.596240 -0.415808
O17   O     O_3   0.840790 0.356930 0.647080 -0.350770
O18   O     O_2   0.778607 0.450072 0.787178 -0.253270
O19   O     O_3   0.783072 0.251999 0.787222 -0.445185
Ba2   Ba    Ba6+2 0.647290 0.447460 0.539110 1.693988
P6    P     P_3+3 0.437824 0.837130 0.402621 0.586915
C10   C     C_3   0.446222 0.845984 0.240736 1.079748
H16   H     H_    0.494168 0.898110 0.117922 0.152510
O20   O     O_3   0.432390 0.444990 0.403690 -0.335133
C11   C     C_3   0.583380 0.771222 0.660396 0.467759
H17   H     H_    0.679467 0.725217 0.642806 0.094980
H18   H     H_    0.504083 0.778034 0.605118 0.071210
C12   C     C_3   0.664367 0.879730 0.695170 -0.739598
H19   H     H_    0.697006 0.878988 0.761505 0.313190
H20   H     H_    0.775237 0.903456 0.664986 0.196318
H21   H     H_    0.584943 0.939611 0.685950 0.279301
P7    P     P_3+3 0.457934 0.589032 0.697546 0.480394
O21   O     O_2   0.627510 0.552390 0.696520 -0.306234
O22   O     O_3   0.491848 0.725285 0.720221 -0.543562
H22   H     H_    0.910996 0.727061 0.008512 0.282996
C13   C     C_3   0.892843 0.185789 0.810420 0.046388
H23   H     H_    0.938943 0.147725 0.755204 0.091998
H24   H     H_    0.992658 0.228444 0.851485 0.110481
C14   C     C_3   0.801863 0.103400 0.858016 -0.000931
H25   H     H_    0.712865 0.051930 0.815287 0.161867
H26   H     H_    0.736794 0.144456 0.904474 0.174697
P8    P     P_3+3 0.365077 0.167899 0.614546 0.561880
C15   C     C_3   0.349791 0.179063 0.777885 0.672570
H27   H     H_    0.237412 0.207145 0.755514 -0.218522
O23   O     O_2   0.477355 0.116021 0.557710 -0.359385
O24   O     O_3   0.422043 0.128793 0.712365 -0.518478
H28   H     H_    0.181778 0.059304 0.822408 0.111837
C16   C     C_3   0.300924 0.100544 0.844024 0.232143
C17   C     C_R   0.066562 0.185601 0.535462 -0.471618
C18   C     C_R   0.729648 0.824917 0.486499 -0.405128
C19   C     C_R   0.703713 0.998920 0.449018 -0.134367
C20   C     C_R   0.640393 0.892483 0.449424 0.262309
C21   C     C_R   0.883586 0.856737 0.522014 0.197100
C22   C     C_R   0.944347 0.968477 0.530258 -0.186541
C23   C     C_R   0.853785 0.040263 0.490501 -0.062468
C24   C     C_R   0.917573 0.150463 0.493135 0.269983
C25   C     C_R   0.156023 0.117402 0.573029 0.128265
C26   C     C_R   0.091862 0.011310 0.574770 0.323080
H29   H     H_    0.633973 0.048548 0.417018 0.186627
H30   H     H_    0.117830 0.267183 0.536087 0.144272
H31   H     H_    0.673834 0.746590 0.492489 0.174239
C27   C     C_R   0.629494 0.527854 0.261927 0.110780
C28   C     C_R   0.475928 0.475010 0.237973 0.195763
C29   C     C_R   0.428983 0.454439 0.154136 -0.390620
C30   C     C_R   0.534218 0.488996 0.094617 0.183908
C31   C     C_R   0.691963 0.534664 0.120664 -0.426143
C32   C     C_R   0.738943 0.558271 0.204662 0.087589
C33   C     C_R   0.389420 0.523747 0.852923 -0.193717
C34   C     C_R   0.339256 0.517458 0.769464 0.280891
C35   C     C_R   0.288282 0.474437 0.908207 0.217677
N1    N     N_2   0.484564 0.485189 0.009335 -0.029775
N2    N     N_2   0.336031 0.473845 0.993328 -0.060305
C36   C     C_R   0.192965 0.459295 0.739920 -0.452759
H32   H     H_    0.505367 0.567244 0.874235 0.179280
H33   H     H_    0.774460 0.556040 0.075068 0.183737
C37   C     C_R   0.086950 0.417167 0.794083 0.148430
C38   C     C_R   0.132809 0.427421 0.878658 -0.127958
H34   H     H_    0.310544 0.413492 0.135365 0.173159
H35   H     H_    0.048664 0.397627 0.921450 0.147461
H36   H     H_    0.156030 0.453808 0.675148 0.145468
O25   O     O_3   0.354242 0.744893 0.222046 -0.581681
C39   C     C_3   0.382614 0.697483 0.144458 -0.247451
H37   H     H_    0.510564 0.690666 0.139748 0.145701
H38   H     H_    0.340631 0.738502 0.092584 0.114866
H39   H     H_    0.310093 0.619576 0.135208 0.219665
O26   O     O_3   0.706701 0.207374 0.149231 -0.535382
C40   C     C_3   0.641823 0.238985 0.075637 0.190339
H40   H     H_    0.531044 0.273859 0.085938 0.134781
H41   H     H_    0.607889 0.168478 0.031957 0.206202
H42   H     H_    0.730711 0.293691 0.046693 0.058917
N3    N     N_R   0.953418 0.678985 0.835490 0.263487
O27   O     O_R   0.824635 0.721043 0.820691 -0.319729
O28   O     O_R   0.953547 0.610059 0.888986 -0.433594
O29   O     O_3   0.164272 0.052347 0.396885 -0.673142
C41   C     C_3   0.059065 0.982229 0.341302 0.095428
H43   H     H_    0.122839 0.938223 0.296316 0.184837
H44   H     H_    0.974361 0.026143 0.309524 0.212839
H45   H     H_    0.990824 0.921911 0.374498 0.149705
N4    N     N_R   0.617301 0.837931 0.255002 0.157545
O30   O     O_R   0.722729 0.921634 0.261826 -0.423052
O31   O     O_R   0.659959 0.753325 0.281344 -0.469837
N5    N     N_R   0.454302 0.029401 0.192260 0.284157
O32   O     O_R   0.554168 0.068926 0.253633 -0.322437
O33   O     O_R   0.391516 0.092216 0.145981 -0.342021
N6    N     N_R   0.906883 0.041213 0.900031 0.251723
O34   O     O_R   0.930580 0.056434 0.979447 -0.275000
O35   O     O_R   0.937539 0.953951 0.863401 -0.344379
N7    N     N_R   0.461111 0.270621 0.812302 0.243973
O36   O     O_R   0.498136 0.344687 0.765332 -0.321227
O37   O     O_R   0.539469 0.274396 0.883545 -0.421552
N8    N     N_R   0.279893 0.150178 0.925993 0.232166
O38   O     O_R   0.256451 0.091514 0.986246 -0.257382
O39   O     O_R   0.245486 0.244968 0.935383 -0.474450
N9    N     N_R   0.903472 0.883456 0.130180 0.266587
O40   O     O_R   0.783457 0.909781 0.086978 -0.326877
O41   O     O_R   0.028709 0.953467 0.149745 -0.372837
N10   N     N_R   0.408496 0.020860 0.850290 0.237632
O42   O     O_R   0.492682 0.014824 0.918431 -0.362323
O43   O     O_R   0.389420 0.940418 0.796077 -0.344921
N11   N     N_R   0.161284 0.954656 0.634700 0.243494
O44   O     O_R   0.304901 0.931036 0.628490 -0.341691
O45   O     O_R   0.098069 0.951911 0.704743 -0.423473
N12   N     N_R   0.685223 0.534871 0.344967 0.246970
O46   O     O_R   0.770826 0.466523 0.368960 -0.390597
O47   O     O_R   0.652955 0.608561 0.396558 -0.348247
O48   O     O_3   0.970728 0.194007 0.245110 -0.648878
C42   C     C_3   0.055096 0.228132 0.177673 0.017476
H46   H     H_    0.984275 0.200875 0.118955 0.205092
H47   H     H_    0.165126 0.191278 0.175206 0.220492
H48   H     H_    0.089538 0.314385 0.181428 0.056202

loop_
_geom_bond_atom_site_label_1
_geom_bond_atom_site_label_2
_geom_bond_distance
_ccdc_geom_bond_type
P2    Ba1   3.444328 S    
C13   H24   1.101013 S    
C31   H33   1.078385 S    
C28   C29   1.401432 A    
C8    C9    1.527690 S    
C15   H27   1.114182 S    
C34   C36   1.392875 A    
O25   C39   1.415238 S    
P8    O24   1.778390 S    
O3    Ba1   2.835537 S    
C17   C25   1.393324 A    
C19   C20   1.406096 A    
Ba1   O20   2.984498 S    
N6    O34   1.300268 A    
C4    O48   1.422636 S    
C23   C24   1.447773 A    
C29   H34   1.080017 S    
Ba2   O20   2.777274 S    
O16   P7    1.753587 S    
C36   H36   1.082610 S    
C10   N4    1.468964 S    
O48   C42   1.417854 S    
C3    H4    1.108134 S    
C5    H7    1.105701 S    
O6    C10   1.411427 S    
P1    O1    1.546282 D    
P2    O10   1.742184 S    
C40   H41   1.106386 S    
P3    O9    1.542883 D    
P4    Ba2   3.478133 S    
C13   C14   1.520600 S    
C37   C38   1.407853 A    
C12   H20   1.102874 S    
O26   C40   1.408534 S    
C8    H12   1.103747 S    
P4    C24   1.899957 S    
C14   H26   1.108761 S    
C17   H30   1.082118 S    
P7    O22   1.750413 S    
C42   H46   1.107741 S    
O5    C6    1.390892 S    
P7    O21   1.569681 D    
N10   O42   1.301345 A    
N5    O32   1.296867 A    
C1    N5    1.456648 S    
C41   H45   1.103448 S    
C15   C16   1.577939 S    
C7    H11   1.104981 S    
C27   N12   1.405236 S    
N12   O47   1.290966 A    
C1    C10   1.564217 S    
O10   C8    1.402661 S    
Ba1   Ba2   4.626692 S    
C19   H29   1.074355 S    
C12   H21   1.105032 S    
P4    O13   1.620160 S    
C13   H23   1.112053 S    
C42   H47   1.102400 S    
C11   O22   1.403390 S    
Ba2   O21   2.842488 S    
C38   H35   1.083039 S    
C14   H25   1.105709 S    
C18   C21   1.386338 A    
C39   H38   1.103488 S    
C39   H37   1.102960 S    
O2    Ba2   2.886673 S    
C27   C32   1.397577 A    
O17   Ba2   2.771923 S    
O2    Ba1   2.974787 S    
P5    O17   1.753512 S    
C4    O15   1.403540 S    
O19   C13   1.401584 S    
O7    Ba1   2.842403 S    
P1    O5    1.747160 S    
N1    N2    1.252046 D    
C5    H6    1.113157 S    
C7    N3    1.457305 S    
N9    O41   1.299745 A    
C16   N8    1.473342 S    
C1    H1    1.105324 S    
O3    P6    1.786679 S    
C10   O25   1.425379 S    
C12   H19   1.106874 S    
H28   C16   1.096074 S    
P1    O2    1.620159 S    
C9    H14   1.111298 S    
N11   O45   1.295995 A    
C9    O29   1.410554 S    
P3    O11   1.773528 S    
C7    H10   1.109959 S    
P5    O19   1.743345 S    
C31   C32   1.407363 A    
C11   H17   1.108423 S    
C35   N2    1.430068 S    
C2    H2    1.102907 S    
C22   C23   1.450105 A    
P6    C20   1.856016 S    
N3    O27   1.299810 A    
O1    Ba1   2.924776 S    
P2    O7    1.540442 D    
C16   N10   1.469574 S    
O13   Ba2   2.975650 S    
N5    O33   1.297930 A    
Ba1   O16   2.777884 S    
C18   C20   1.382491 A    
P4    O12   1.546599 D    
C5    O26   1.412959 S    
C42   H48   1.108285 S    
C33   C35   1.411487 A    
C11   H18   1.110734 S    
C41   H43   1.105539 S    
C15   O24   1.422716 S    
C4    C5    1.544048 S    
C21   C22   1.457035 A    
O12   Ba2   2.925387 S    
P8    C25   1.863782 S    
P5    C37   1.843063 S    
P1    Ba1   3.477560 S    
N4    O30   1.295625 A    
P5    O18   1.541256 D    
N6    O35   1.299952 A    
O14   P8    1.755034 S    
C6    H8    1.101604 S    
C35   C38   1.408800 A    
C2    N9    1.462597 S    
N10   O43   1.298165 A    
N11   O44   1.298631 A    
C26   N11   1.417511 S    
C6    C7    1.531166 S    
O4    P6    1.538727 D    
C22   C26   1.423843 A    
N9    O40   1.300833 A    
C1    H16   1.108370 S    
O14   Ba2   2.834914 S    
N7    O37   1.301439 A    
P1    C21   1.900857 S    
O16   Ba2   2.983639 S    
P2    C28   1.856765 S    
P3    C32   1.881209 S    
C3    H3    1.107025 S    
N8    O39   1.296835 A    
O6    P6    1.762997 S    
C9    H15   1.104582 S    
C40   H40   1.108969 S    
P3    O8    1.782431 S    
Ba1   O13   2.886071 S    
P8    O23   1.548480 D    
O11   C2    1.418548 S    
C18   H31   1.070692 S    
C33   H32   1.082965 S    
C6    H9    1.110886 S    
C27   C28   1.398060 A    
C2    C3    1.526123 S    
C40   H42   1.112957 S    
C3    H22   1.107607 S    
C36   C37   1.387377 A    
C8    H13   1.110477 S    
C17   C24   1.399443 A    
C29   C30   1.416234 A    
P2    O20   1.552952 S    
N3    O28   1.299102 A    
N7    O36   1.292743 A    
P7    C34   1.819589 S    
P4    O15   1.768056 S    
C25   C26   1.406223 A    
C14   N6    1.455527 S    
C33   C34   1.400483 A    
C15   N7    1.457808 S    
C11   C12   1.523173 S    
C30   C31   1.407234 A    
C41   H44   1.104380 S    
C4    H5    1.098759 S    
O8    Ba1   2.771306 S    
N12   O46   1.286414 A    
N8    O38   1.300603 A    
C39   H39   1.098280 S    
C19   C23   1.416418 A    
C30   N1    1.430381 S    
O29   C41   1.410602 S    
N4    O31   1.295008 A    
