data_mof_unit_20935.cif
_audit_creation_date              2012-12-10T20:42:39-0500
_audit_creation_method            fapswitch 2.2
_symmetry_space_group_name_H-M    P1
_symmetry_Int_Tables_number       1
_space_group_crystal_system       triclinic
_cell_length_a                    8.890616
_cell_length_b                    10.714431
_cell_length_c                    9.923037
_cell_angle_alpha                 89.048988
_cell_angle_beta                  90.469041
_cell_angle_gamma                 91.127878
_cell_volume                      944.905058598

loop_
_atom_site_label
_atom_site_type_symbol
_atom_type_description
_atom_site_fract_x
_atom_site_fract_y
_atom_site_fract_z
_atom_type_partial_charge
C1    C     C_R   0.501460 0.259996 0.500953 0.910557
C2    C     C_R   0.562007 0.938741 0.382421 -0.227185
C3    C     C_R   0.525334 0.871417 0.499963 -0.067661
C4    C     C_R   0.510133 0.933011 0.621060 0.023370
C5    C     C_3   0.393674 0.914863 0.726622 -0.607456
C6    C     C_3   0.385068 0.058689 0.730327 0.981328
C7    C     C_R   0.425836 0.407831 0.071522 0.011892
C8    C     C_R   0.575477 0.590701 0.071272 0.490851
C9    C     C_R   0.578364 0.589100 0.926914 0.423837
C10   C     C_R   0.427100 0.407636 0.929323 0.197428
C11   C     C_3   0.263608 0.378313 0.918502 -0.496467
C12   C     C_R   0.218930 0.500031 0.499719 0.931757
C13   C     C_3   0.259405 0.378137 0.071208 -0.251071
C14   C     C_R   0.505223 0.739690 0.499189 0.859536
C15   C     C_R   0.781079 0.500142 0.500403 0.892091
C16   C     C_1   0.065480 0.500317 0.499891 -0.149991
C17   C     C_1   0.934530 0.500335 0.500781 -0.186664
C18   C     C_R   0.504165 0.059896 0.622996 0.059463
C19   C     C_R   0.518771 0.128215 0.502645 -0.107005
C20   C     C_R   0.559657 0.067830 0.383966 -0.223485
H1    H     H_    0.581570 0.119252 0.291034 0.174320
H2    H     H_    0.241180 0.285649 0.875535 0.250770
H3    H     H_    0.233096 0.284154 0.115354 0.148438
H4    H     H_    0.583756 0.892665 0.288612 0.214726
H5    H     H_    0.292233 0.866489 0.685292 0.181846
H6    H     H_    0.441944 0.867118 0.816384 0.240479
H7    H     H_    0.200238 0.454600 0.867780 0.209158
N1    N     N_R   0.499010 0.499140 0.142800 -0.155542
N2    N     N_R   0.499010 0.499180 0.857150 -0.169265
O1    O     O_R   0.500020 0.316790 0.614690 -0.578843
O2    O     O_R   0.500000 0.316760 0.385350 -0.635895
O3    O     O_R   0.285350 0.500020 0.614650 -0.626754
O4    O     O_R   0.285340 0.499980 0.385310 -0.593408
O5    O     O_R   0.500000 0.683240 0.614650 -0.568529
O6    O     O_R   0.499980 0.683210 0.385310 -0.577207
O7    O     O_R   0.714660 0.500020 0.614690 -0.628501
O8    O     O_R   0.714650 0.499980 0.385350 -0.598714
Zn1   Zn    Zn3+2 0.500010 0.500020 0.653130 0.995492
Zn2   Zn    Zn3+2 0.499990 0.499980 0.346870 1.002436
C21   C     C_2   0.160669 0.479266 0.122345 0.989527
O9    O     O_2   0.049694 0.450396 0.188535 -0.662321
O10   O     O_R   0.193632 0.604805 0.092071 -0.819080
H8    H     H_    0.119491 0.663379 0.133517 0.316259
O11   O     O_3   0.251414 0.111246 0.676651 -0.628719
C22   C     C_3   0.123250 0.074768 0.751858 -0.349042
H9    H     H_    0.137165 0.091383 0.861118 0.164991
H10   H     H_    0.090642 0.975942 0.734151 0.159657
H11   H     H_    0.027637 0.132182 0.716823 0.203296
O12   O     O_3   0.443109 0.123670 0.844246 -0.618842
C23   C     C_3   0.428063 0.056752 0.967497 -0.391080
H12   H     H_    0.427021 0.124424 0.050732 0.197245
H13   H     H_    0.527344 0.996962 0.984231 0.207758
H14   H     H_    0.322848 0.999475 0.974395 0.162227
O13   O     O_3   0.625787 0.696207 0.137312 -0.586807
C24   C     C_3   0.781562 0.690592 0.164558 -0.259377
H15   H     H_    0.836625 0.604494 0.129633 0.165509
H16   H     H_    0.800696 0.699086 0.274501 0.189308
H17   H     H_    0.838261 0.773279 0.117699 0.151395
O14   O     O_3   0.643926 0.688245 0.856953 -0.578630
C25   C     C_3   0.797670 0.665436 0.834257 -0.221708
H18   H     H_    0.824590 0.693603 0.729014 0.180781
H19   H     H_    0.831458 0.566365 0.849884 0.133440
H20   H     H_    0.868511 0.726099 0.898969 0.144081

loop_
_geom_bond_atom_site_label_1
_geom_bond_atom_site_label_2
_ccdc_geom_bond_type
N2    Zn1   S    
C14   O5    A    
C7    C10   A    
C23   H13   S    
C24   H15   S    
C21   O9    D    
O3    Zn1   S    
C11   H2    S    
O6    Zn2   S    
C19   C20   A    
C9    N2    A    
C4    C18   A    
C20   H1    S    
C21   O10   S    
C2    C3    A    
C3    C4    A    
O14   C25   S    
O8    Zn2   S    
C24   H16   S    
C6    O11   S    
C22   H9    S    
C12   O3    A    
C11   C13   S    
C10   N2    A    
O1    Zn1   S    
O4    Zn2   S    
C3    C14   S    
C25   H20   S    
C5    H5    S    
C4    C5    S    
O7    Zn1   S    
C1    O1    A    
O2    Zn2   S    
C11   H7    S    
C23   H12   S    
C22   H10   S    
C6    O12   S    
C2    H4    S    
C5    C6    S    
C6    C18   S    
C24   H17   S    
C23   H14   S    
C16   C17   T    
C10   C11   S    
C2    C20   A    
C5    H6    S    
C15   O7    A    
C1    O2    A    
O11   C22   S    
C13   H3    S    
C8    N1    A    
C25   H19   S    
C18   C19   A    
O10   H8    S    
C22   H11   S    
C8    O13   S    
C14   O6    A    
O12   C23   S    
O13   C24   S    
C25   H18   S    
C13   C21   S    
C7    C13   S    
N1    Zn2   S    
C12   O4    A    
C15   C17   S    
C1    C19   S    
C15   O8    A    
C7    N1    A    
C12   C16   S    
C8    C9    A    
C9    O14   S    
O5    Zn1   S    
