data_mof_unit_31694.cif
_audit_creation_date              2012-12-10T17:33:41-0500
_audit_creation_method            fapswitch 2.2
_symmetry_space_group_name_H-M    P1
_symmetry_Int_Tables_number       1
_space_group_crystal_system       triclinic
_cell_length_a                    11.663315
_cell_length_b                    12.375484
_cell_length_c                    13.147474
_cell_angle_alpha                 116.699242
_cell_angle_beta                  77.312376
_cell_angle_gamma                 100.888557
_cell_volume                      1645.07646309

loop_
_atom_site_label
_atom_site_type_symbol
_atom_type_description
_atom_site_fract_x
_atom_site_fract_y
_atom_site_fract_z
_atom_type_partial_charge
C1    C     C_R   0.508750 0.855103 0.286517 0.801993
C2    C     C_R   0.458929 0.228675 0.835684 -0.043166
C3    C     C_R   0.580467 0.814526 0.082521 -0.174599
C4    C     C_R   0.601551 0.735410 0.966735 -0.129367
C5    C     C_R   0.561503 0.612609 0.930058 -0.144741
C6    C     C_R   0.494517 0.566820 0.008833 0.099639
C7    C     C_R   0.460451 0.650775 0.124160 0.093051
C8    C     C_R   0.458991 0.440706 0.976709 0.078026
C9    C     C_R   0.380359 0.402045 0.055837 0.158504
C10   C     C_R   0.335801 0.487818 0.163597 -0.229258
C11   C     C_R   0.373864 0.610389 0.196761 -0.184856
C12   C     C_R   0.715346 0.001374 0.502243 0.852874
C13   C     C_R   0.500317 0.351449 0.868520 -0.242535
C14   C     C_R   0.383268 0.191516 0.915211 -0.195120
C15   C     C_R   0.512890 0.773150 0.162895 -0.091691
C16   C     C_R   0.608176 0.301112 0.281474 -0.277286
C17   C     C_R   0.365637 0.775563 0.665037 -0.017874
C18   C     C_R   0.344963 0.690000 0.710652 -0.054761
C19   C     C_R   0.393220 0.578964 0.646876 -0.166324
C20   C     C_R   0.460752 0.552138 0.537176 -0.077883
C21   C     C_R   0.482509 0.643894 0.494850 0.230521
C22   C     C_R   0.509274 0.437896 0.468179 -0.021031
C23   C     C_R   0.482975 0.145088 0.713676 0.784346
C24   C     C_R   0.555172 0.408451 0.351138 0.132576
C25   C     C_R   0.556824 0.490583 0.306092 -0.277540
C26   C     C_R   0.546677 0.611901 0.380776 0.184236
C27   C     C_R   0.513906 0.350370 0.508724 0.033510
C28   C     C_R   0.615607 0.222463 0.327750 0.086608
C29   C     C_R   0.284362 0.000556 0.500431 0.809611
C30   C     C_1   0.837049 0.001854 0.503159 -0.148369
C31   C     C_1   0.939758 0.002021 0.502974 0.022066
C32   C     C_1   0.059827 0.001915 0.502080 0.012063
C33   C     C_1   0.162595 0.001514 0.501194 -0.168863
C34   C     C_R   0.344870 0.277881 0.025209 -0.184807
Cu1   Cu    Cu3+1 0.526510 0.098270 0.475420 0.948281
Cu2   Cu    Cu3+1 0.473490 0.901730 0.524580 0.956050
H1    H     H_    0.350128 0.096763 0.891000 0.141427
H2    H     H_    0.594527 0.466364 0.216283 0.179726
H3    H     H_    0.645301 0.278961 0.192092 0.142300
H4    H     H_    0.474197 0.362016 0.594571 0.121273
H5    H     H_    0.328816 0.861619 0.714367 0.122531
H6    H     H_    0.373951 0.513381 0.682891 0.173497
H7    H     H_    0.271675 0.460043 0.223004 0.152234
H8    H     H_    0.284723 0.247962 0.085299 0.138879
H9    H     H_    0.564254 0.375004 0.807028 0.145592
H10   H     H_    0.619536 0.907920 0.109450 0.144596
H11   H     H_    0.582009 0.556674 0.839037 0.123276
H12   H     H_    0.652692 0.768738 0.905328 0.142680
H13   H     H_    0.332195 0.672850 0.279199 0.173536
H14   H     H_    0.654355 0.138351 0.273073 0.125345
N1    N     N_R   0.566700 0.246290 0.438210 -0.184123
N2    N     N_R   0.434010 0.754320 0.561170 -0.195197
O1    O     O_R   0.533340 0.972510 0.318140 -0.592911
O2    O     O_R   0.488570 0.806530 0.359650 -0.572829
O3    O     O_R   0.685190 0.083000 0.479260 -0.574328
O4    O     O_R   0.640410 0.917020 0.520770 -0.541844
O5    O     O_R   0.511430 0.193470 0.640350 -0.590974
O6    O     O_R   0.466660 0.027490 0.681860 -0.594710
O7    O     O_R   0.359590 0.082980 0.479230 -0.566711
O8    O     O_R   0.314810 0.917000 0.520740 -0.582277
C35   C     C_2   0.273666 0.718965 0.825991 0.360578
H15   H     H_    0.236131 0.805234 0.873389 0.052970
O9    O     O_2   0.256369 0.647560 0.869781 -0.530859
I1    I     I_    0.712681 0.695417 0.330308 -0.367561

loop_
_geom_bond_atom_site_label_1
_geom_bond_atom_site_label_2
_ccdc_geom_bond_type
C16   C28   A    
C23   O6    A    
C13   H9    S    
C1    O2    A    
C29   O8    A    
C18   C35   S    
C14   C34   A    
C6    C7    A    
Cu2   O4    S    
C26   I1    S    
C25   H2    S    
Cu1   O1    S    
C9    C10   A    
C3    H10   S    
C19   C20   A    
Cu2   N2    S    
C19   H6    S    
C27   H4    S    
Cu1   O5    S    
C32   C33   T    
C7    C15   A    
C17   C18   A    
C25   C26   A    
C3    C15   A    
C16   C24   A    
C31   C32   S    
C24   C25   A    
C14   H1    S    
C7    C11   A    
C5    H11   S    
C30   C31   T    
C12   O4    A    
C1    C15   S    
C5    C6    A    
C6    C8    A    
C17   N2    A    
Cu2   O8    S    
C21   C26   A    
C27   N1    A    
C9    C34   A    
Cu2   O6    S    
C22   C27   A    
Cu1   N1    S    
C35   H15   S    
C2    C14   A    
C28   N1    A    
C22   C24   A    
C17   H5    S    
Cu2   O2    S    
C10   C11   A    
C16   H3    S    
Cu1   O3    S    
C3    C4    A    
C12   O3    A    
C8    C13   A    
C29   C33   S    
C34   H8    S    
C20   C21   A    
Cu1   O7    S    
C18   C19   A    
C4    H12   S    
C2    C23   S    
C23   O5    A    
C2    C13   A    
C1    O1    A    
C8    C9    A    
C11   H13   S    
C12   C30   S    
C10   H7    S    
C28   H14   S    
C21   N2    A    
C29   O7    A    
C20   C22   A    
C4    C5    A    
C35   O9    D    
Cu1   Cu2   S    
