data_mof_unit_15055.cif
_audit_creation_date              2012-12-10T17:37:23-0500
_audit_creation_method            fapswitch 2.2
_symmetry_space_group_name_H-M    P1
_symmetry_Int_Tables_number       1
_space_group_crystal_system       triclinic
_cell_length_a                    12.083236
_cell_length_b                    12.824308
_cell_length_c                    16.909923
_cell_angle_alpha                 90.570506
_cell_angle_beta                  83.929827
_cell_angle_gamma                 92.743064
_cell_volume                      2602.63796051

loop_
_atom_site_label
_atom_site_type_symbol
_atom_type_description
_atom_site_fract_x
_atom_site_fract_y
_atom_site_fract_z
_atom_type_partial_charge
C1    C     C_R   0.521105 0.699504 0.499753 1.043098
C2    C     C_R   0.495991 0.127911 0.553573 0.424697
C3    C     C_R   0.496231 0.979523 0.462812 -0.202406
C4    C     C_R   0.504504 0.020270 0.540793 -0.192677
C5    C     C_R   0.956572 0.394543 0.429821 0.422248
C6    C     C_R   0.041085 0.600616 0.571469 0.370324
C7    C     C_R   0.839218 0.399786 0.443030 0.411220
C8    C     C_R   0.158440 0.595112 0.561719 0.420799
C9    C     C_R   0.858531 0.552288 0.522209 0.570403
C10   C     C_R   0.143487 0.450607 0.472496 0.565742
C11   C     C_R   0.975037 0.538869 0.522742 -0.356606
C12   C     C_R   0.478922 0.300384 0.501274 1.039420
C13   C     C_R   0.025783 0.460586 0.474094 -0.316430
C14   C     C_R   0.487165 0.500660 0.653457 1.045916
C15   C     C_R   0.512673 0.497907 0.346707 0.949856
C16   C     C_R   0.485544 0.501201 0.740037 -0.310182
C17   C     C_R   0.509109 0.485202 0.261193 -0.425835
C18   C     C_R   0.573730 0.456488 0.774689 0.327324
C19   C     C_R   0.422274 0.533150 0.227396 0.327220
C20   C     C_R   0.578852 0.466290 0.856893 0.406734
C21   C     C_R   0.386515 0.494302 0.157120 0.463368
C22   C     C_R   0.492158 0.512786 0.903703 -0.295867
C23   C     C_R   0.470526 0.190154 0.491363 -0.254187
C24   C     C_R   0.449430 0.420242 0.113564 -0.354213
C25   C     C_R   0.401935 0.553037 0.870418 0.409809
C26   C     C_R   0.536692 0.372081 0.145213 0.456490
C27   C     C_R   0.400116 0.550104 0.788219 0.275261
C28   C     C_R   0.569253 0.406799 0.218559 0.342545
C29   C     C_2   0.490964 0.509235 0.989937 0.577373
C30   C     C_2   0.447743 0.421475 0.027022 0.592129
C31   C     C_3   0.212640 0.764632 0.591375 -0.122334
C32   C     C_3   0.783782 0.226527 0.432389 -0.171129
C33   C     C_3   0.985556 0.358825 0.297181 -0.360696
C34   C     C_R   0.530151 0.809496 0.510126 -0.286297
C35   C     C_3   0.971367 0.608555 0.700949 -0.208773
C36   C     C_3   0.330677 0.271981 0.028001 -0.312019
C37   C     C_3   0.543385 0.686209 0.999237 -0.233374
C38   C     C_3   0.223979 0.535150 0.929991 -0.206895
C39   C     C_3   0.587562 0.202580 0.131880 -0.163491
C40   C     C_3   0.199496 0.511228 0.160567 -0.302597
C41   C     C_3   0.754633 0.493890 0.891175 -0.301059
C42   C     C_3   0.623952 0.187548 0.636102 -0.135565
C43   C     C_3   0.351812 0.824848 0.379654 -0.202640
C44   C     C_3   0.230730 0.375285 0.359213 -0.091632
C45   C     C_R   0.521948 0.952766 0.603599 0.381900
C46   C     C_3   0.834575 0.725531 0.510205 -0.151103
C47   C     C_R   0.485263 0.046269 0.398646 0.386389
C48   C     C_R   0.545841 0.848431 0.585698 0.218506
C49   C     C_R   0.465270 0.151451 0.414269 0.259517
C50   C     C_R   0.497815 0.871772 0.450656 0.451097
H1    H     H_    0.703438 0.369040 0.759957 0.357398
H2    H     H_    0.034106 0.310339 0.252663 0.174087
H3    H     H_    0.015410 0.441649 0.287311 0.132656
H4    H     H_    0.930301 0.659724 0.747317 0.178442
H5    H     H_    0.050395 0.584426 0.722157 0.154447
H6    H     H_    0.914041 0.539148 0.694289 0.164675
H7    H     H_    0.706021 0.421905 0.267125 0.359199
H8    H     H_    0.268100 0.543290 0.736126 0.342549
H9    H     H_    0.369002 0.228744 0.073758 0.178788
H10   H     H_    0.295596 0.213358 0.987689 0.204095
H11   H     H_    0.260443 0.317348 0.055702 0.142168
H12   H     H_    0.425398 0.656511 0.293562 0.359364
H13   H     H_    0.456396 0.709684 0.997413 0.229897
H14   H     H_    0.590799 0.690747 0.939266 0.138908
H15   H     H_    0.584194 0.743406 0.037789 0.189059
H16   H     H_    0.242223 0.460038 0.956871 0.162349
H17   H     H_    0.185696 0.520402 0.873800 0.149067
H18   H     H_    0.161380 0.573186 0.972005 0.184216
H19   H     H_    0.501955 0.183555 0.161058 0.098647
H20   H     H_    0.649528 0.193019 0.174921 0.207411
H21   H     H_    0.604470 0.144381 0.083684 0.176649
H22   H     H_    0.183285 0.551922 0.218584 0.203855
H23   H     H_    0.292783 0.808121 0.597758 0.172150
H24   H     H_    0.190460 0.425032 0.168824 0.102454
H25   H     H_    0.134458 0.533272 0.123082 0.177592
H26   H     H_    0.734715 0.562385 0.929854 0.191551
H27   H     H_    0.784008 0.520045 0.829637 0.141923
H28   H     H_    0.824474 0.455358 0.914746 0.195024
H29   H     H_    0.658315 0.262011 0.608925 0.179445
H30   H     H_    0.674846 0.122385 0.611162 0.117080
H31   H     H_    0.633527 0.192115 0.700555 0.216901
H32   H     H_    0.311624 0.893473 0.409286 0.130942
H33   H     H_    0.312897 0.752167 0.407341 0.161037
H34   H     H_    0.149791 0.796343 0.636734 0.197486
H35   H     H_    0.332849 0.825170 0.316905 0.220904
H36   H     H_    0.410489 0.180541 0.313298 0.323974
H37   H     H_    0.616475 0.822388 0.681076 0.344531
H38   H     H_    0.487592 0.929319 0.717382 0.348551
H39   H     H_    0.532881 0.065351 0.285858 0.328727
H40   H     H_    0.319442 0.358936 0.349978 0.205935
H41   H     H_    0.217251 0.453409 0.334591 0.111546
H42   H     H_    0.193223 0.313386 0.323239 0.171009
H43   H     H_    0.810899 0.711637 0.448940 0.119316
H44   H     H_    0.924315 0.750191 0.506882 0.140919
H45   H     H_    0.190225 0.780479 0.530503 0.073610
H46   H     H_    0.786805 0.791575 0.536221 0.186325
H47   H     H_    0.802008 0.222335 0.495493 0.097563
H48   H     H_    0.849806 0.189447 0.392724 0.196636
H49   H     H_    0.705688 0.179258 0.427250 0.164462
H50   H     H_    0.897249 0.348376 0.285175 0.229883
N1    N     N_R   0.206400 0.519440 0.514690 -0.213545
N2    N     N_R   0.793600 0.480560 0.485310 -0.212978
O1    O     O_R   0.421320 0.658850 0.503920 -0.606088
O2    O     O_3   0.372322 0.619931 0.260841 -0.744660
O3    O     O_3   0.225929 0.657771 0.605793 -0.542984
O4    O     O_3   0.769082 0.329446 0.407363 -0.554532
O5    O     O_3   0.001793 0.324529 0.374313 -0.580339
O6    O     O_3   0.991860 0.665300 0.629487 -0.578590
O7    O     O_3   0.660426 0.364156 0.245870 -0.713430
O8    O     O_3   0.317043 0.599613 0.756163 -0.667033
O9    O     O_3   0.410763 0.336591 0.982724 -0.616865
O10   O     O_3   0.545619 0.586202 0.032824 -0.643180
O11   O     O_3   0.319939 0.602533 0.918213 -0.570455
O12   O     O_R   0.578680 0.341150 0.496080 -0.600348
O13   O     O_3   0.600103 0.303328 0.098084 -0.549676
O14   O     O_3   0.304606 0.543536 0.122116 -0.555322
O15   O     O_3   0.662701 0.421597 0.892902 -0.567887
O16   O     O_3   0.509097 0.173470 0.627002 -0.558800
O17   O     O_3   0.469036 0.825983 0.380520 -0.575337
O18   O     O_3   0.447867 0.219616 0.354630 -0.785084
O19   O     O_3   0.577165 0.781145 0.641828 -0.735039
O20   O     O_3   0.510804 0.988576 0.681289 -0.713517
O21   O     O_3   0.500669 0.008440 0.321572 -0.719063
O22   O     O_3   0.191809 0.361586 0.440445 -0.548845
O23   O     O_R   0.609840 0.646370 0.494500 -0.597327
O24   O     O_3   0.808651 0.637094 0.559266 -0.513883
O25   O     O_R   0.390160 0.353630 0.505500 -0.578694
O26   O     O_R   0.394600 0.506990 0.621070 -0.600140
O27   O     O_R   0.605400 0.493010 0.378930 -0.593399
O28   O     O_R   0.583120 0.494520 0.611640 -0.543608
O29   O     O_R   0.416880 0.505480 0.388360 -0.634724
O30   O     O_3   0.652870 0.403346 0.727063 -0.768385
Zn1   Zn    Zn3+2 0.374120 0.508330 0.506290 1.021480
Zn2   Zn    Zn3+2 0.625880 0.491670 0.493710 1.045495

loop_
_geom_bond_atom_site_label_1
_geom_bond_atom_site_label_2
_ccdc_geom_bond_type
O23   Zn2   S    
C42   H30   S    
C22   C29   S    
C43   H33   S    
C29   O10   S    
C18   O30   S    
C33   O5    S    
C36   H9    S    
C8    O3    S    
C2    O16   S    
C47   C49   A    
C12   O25   A    
C33   H2    S    
C12   C23   S    
C19   C21   A    
C1    O23   A    
C10   O22   S    
C41   H27   S    
C23   C49   A    
C49   O18   S    
C14   O26   A    
C32   H47   S    
C22   C25   A    
C26   O13   S    
C37   O10   S    
C35   O6    S    
C17   C19   A    
H7    O7    S    
C38   H16   S    
C27   O8    S    
C40   H24   S    
C9    N2    A    
C7    N2    A    
C37   H15   S    
C8    N1    A    
C1    O1    A    
H12   O2    S    
C44   H42   S    
C16   C27   A    
C42   H29   S    
C32   O4    S    
C35   H4    S    
C31   O3    S    
C14   O28   A    
O28   Zn2   S    
C42   H31   S    
C21   O14   S    
C20   O15   S    
C37   H13   S    
C3    C50   A    
C1    C34   S    
C12   O12   A    
C4    C45   A    
C33   H3    S    
C34   C50   A    
C35   H5    S    
C50   O17   S    
C43   H35   S    
H38   O20   S    
C6    C11   A    
H37   O19   S    
C38   O11   S    
C42   O16   S    
C6    C8    A    
H39   O21   S    
C36   H10   S    
C44   O22   S    
C31   H34   S    
C2    C4    A    
N2    Zn2   S    
C29   C30   D    
C41   H28   S    
C25   O11   S    
C19   O2    S    
C47   O21   S    
C46   H44   S    
C36   O9    S    
C39   H19   S    
C7    O4    S    
C46   H46   S    
C9    C11   A    
C44   H41   S    
C38   H18   S    
C39   O13   S    
C45   O20   S    
C14   C16   S    
C34   C48   A    
C3    C4    A    
C48   O19   S    
C37   H14   S    
C44   H40   S    
C5    C7    A    
C5    O5    S    
C45   C48   A    
C15   O27   A    
C15   C17   S    
C6    O6    S    
C40   H22   S    
C35   H6    S    
H8    O8    S    
C17   C28   A    
C5    C13   A    
C46   O24   S    
C10   N1    A    
O25   Zn1   S    
C20   C22   A    
O29   Zn1   S    
C10   C13   A    
H1    O30   S    
C32   H49   S    
N1    Zn1   S    
C28   O7    S    
C25   C27   A    
C26   C28   A    
C9    O24   S    
C40   H25   S    
C30   O9    S    
C33   H50   S    
O1    Zn1   S    
O26   Zn1   S    
C41   H26   S    
C11   C13   A    
C24   C26   A    
C40   O14   S    
C46   H43   S    
C31   H45   S    
C3    C47   A    
O12   Zn2   S    
C39   H20   S    
C32   H48   S    
C18   C20   A    
C24   C30   S    
C31   H23   S    
O27   Zn2   S    
C15   O29   A    
C38   H17   S    
C16   C18   A    
C21   C24   A    
C2    C23   A    
C43   H32   S    
C39   H21   S    
H36   O18   S    
C41   O15   S    
C36   H11   S    
C43   O17   S    
