data_mof_unit_20776.cif
_audit_creation_date              2012-12-11T14:52:31-0500
_audit_creation_method            fapswitch 2.2
_symmetry_space_group_name_H-M    P1
_symmetry_Int_Tables_number       1
_space_group_crystal_system       triclinic
_cell_length_a                    19.664336
_cell_length_b                    11.643048
_cell_length_c                    18.875597
_cell_angle_alpha                 89.987033
_cell_angle_beta                  91.534021
_cell_angle_gamma                 86.476786
_cell_volume                      4311.89949044

loop_
_atom_site_label
_atom_site_type_symbol
_atom_type_description
_atom_site_fract_x
_atom_site_fract_y
_atom_site_fract_z
_atom_type_partial_charge
C1    C     C_R   0.272821 0.039024 0.853182 0.619880
C2    C     C_R   0.721666 0.033153 0.143470 0.663121
C3    C     C_R   0.772809 0.539044 0.853165 0.619607
C4    C     C_R   0.221664 0.533157 0.143475 0.662954
C5    C     C_3   0.526711 0.750231 0.967992 0.166671
C6    C     C_3   0.482302 0.716625 0.029704 0.171112
C7    C     C_3   0.026757 0.250243 0.967963 0.167537
C8    C     C_3   0.982346 0.216642 0.029676 0.171318
C9    C     C_R   0.305241 0.555374 0.971017 -0.010211
C10   C     C_R   0.715040 0.522161 0.043569 0.049242
C11   C     C_R   0.805243 0.055293 0.970983 -0.009825
C12   C     C_R   0.215100 0.022063 0.043620 0.052339
C13   C     C_R   0.294972 0.556627 0.044218 0.159963
C14   C     C_R   0.714217 0.509380 0.969442 0.149793
C15   C     C_R   0.794978 0.056527 0.044184 0.159984
C16   C     C_R   0.214253 0.009335 0.969485 0.151855
C17   C     C_R   0.230635 0.568125 0.070103 0.025141
C18   C     C_R   0.752720 0.577265 0.925079 0.066240
C19   C     C_R   0.730642 0.068089 0.070088 0.025828
C20   C     C_R   0.252777 0.077198 0.925129 0.064560
C21   C     C_R   0.173971 0.604343 0.025356 0.107846
C22   C     C_R   0.785534 0.668203 0.954646 0.082947
C23   C     C_R   0.673978 0.104312 0.025343 0.107087
C24   C     C_R   0.285650 0.168060 0.954726 0.080532
C25   C     C_R   0.181833 0.620408 0.952347 0.043343
C26   C     C_R   0.791071 0.678146 0.027984 -0.066091
C27   C     C_R   0.681841 0.120342 0.952331 0.039369
C28   C     C_R   0.291181 0.177981 0.028059 -0.066440
C29   C     C_R   0.249007 0.593718 0.923576 -0.052230
C30   C     C_R   0.750857 0.611364 0.072921 -0.019297
C31   C     C_R   0.749008 0.093660 0.923554 -0.052786
C32   C     C_R   0.250941 0.111222 0.072981 -0.017176
C33   C     C_R   0.461503 0.739756 0.524754 -0.025671
C34   C     C_R   0.459961 0.772988 0.453351 0.056751
C35   C     C_R   0.012224 0.236319 0.540488 0.024085
C36   C     C_R   0.000182 0.233322 0.467332 -0.005820
C37   C     C_R   0.514833 0.831790 0.429470 -0.016613
C38   C     C_R   0.491671 0.813393 0.574481 -0.017262
C39   C     C_R   0.004233 0.334454 0.427098 -0.039721
C40   C     C_R   0.995872 0.337117 0.576465 -0.053259
C41   C     C_R   0.561206 0.873460 0.481008 -0.030186
C42   C     C_R   0.548610 0.868785 0.554317 0.017140
C43   C     C_R   0.999811 0.439985 0.463836 0.022957
C44   C     C_R   0.991560 0.443067 0.538508 -0.012960
C45   C     C_R   0.446619 0.819071 0.861532 0.634181
C46   C     C_R   0.532277 0.820736 0.145159 0.617827
C47   C     C_R   0.946641 0.319073 0.861525 0.638434
C48   C     C_R   0.032301 0.320736 0.145140 0.615806
C49   C     C_R   0.192509 0.624302 0.533049 0.186031
C50   C     C_R   0.780443 0.693549 0.483734 0.171213
C51   C     C_R   0.699613 0.148497 0.525181 0.223249
C52   C     C_R   0.321790 0.077382 0.449039 0.135118
C53   C     C_R   0.203801 0.646294 0.462270 0.093538
C54   C     C_R   0.771940 0.702137 0.557309 0.086411
C55   C     C_R   0.710605 0.170207 0.453676 0.062739
C56   C     C_R   0.329386 0.082876 0.523146 0.018161
C57   C     C_R   0.248583 0.569952 0.427806 -0.032772
C58   C     C_R   0.737146 0.614023 0.586866 -0.065979
C59   C     C_R   0.755838 0.092672 0.418956 -0.029670
C60   C     C_R   0.271873 0.059769 0.565525 -0.078150
C61   C     C_R   0.297312 0.499034 0.468398 0.031986
C62   C     C_R   0.683483 0.572116 0.545226 -0.018671
C63   C     C_R   0.808181 0.029585 0.459074 0.043991
C64   C     C_R   0.214264 0.025389 0.530266 0.023147
C65   C     C_R   0.297651 0.507872 0.543290 0.111421
C66   C     C_R   0.671583 0.610976 0.475292 0.089931
C67   C     C_R   0.811977 0.048763 0.532457 0.119068
C68   C     C_R   0.202184 0.052348 0.461050 0.110551
C69   C     C_R   0.246528 0.577312 0.575892 0.008729
C70   C     C_R   0.723432 0.669897 0.441567 0.029251
C71   C     C_R   0.755564 0.103784 0.567048 -0.000904
C72   C     C_R   0.255988 0.081149 0.419896 0.037572
C73   C     C_R   0.261138 0.636841 0.851252 0.630923
C74   C     C_R   0.738486 0.646349 0.147046 0.634175
C75   C     C_R   0.761134 0.136816 0.851239 0.633555
C76   C     C_R   0.238516 0.146275 0.147077 0.627351
C77   C     C_R   0.278372 0.032706 0.641981 0.546416
C78   C     C_R   0.730349 0.047455 0.351363 0.617379
C79   C     C_R   0.769445 0.547971 0.648570 0.533556
C80   C     C_R   0.228262 0.540941 0.354967 0.569376
C81   C     C_R   0.465630 0.819021 0.646479 0.565912
C82   C     C_R   0.534598 0.823953 0.354210 0.594356
C83   C     C_R   0.967858 0.323275 0.647571 0.563045
C84   C     C_R   0.032065 0.324350 0.353546 0.575045
C85   C     C_R   0.259334 0.633436 0.645417 0.613830
C86   C     C_R   0.725596 0.685189 0.362756 0.584222
C87   C     C_R   0.761828 0.142187 0.641432 0.576301
C88   C     C_R   0.241259 0.137641 0.353402 0.593291
C89   C     C_3   0.448598 0.902495 0.041034 -0.119395
C90   C     C_3   0.495918 0.931607 0.978835 -0.056323
C91   C     C_3   0.948649 0.402519 0.040988 -0.119263
C92   C     C_3   0.995962 0.431618 0.978790 -0.054515
C93   C     C_3   0.422662 0.798384 0.998457 0.012004
C94   C     C_3   0.552921 0.849488 0.010401 0.029221
C95   C     C_3   0.922708 0.298397 0.998424 0.011639
C96   C     C_3   0.052967 0.349506 0.010367 0.029963
C97   C     C_3   0.468621 0.827489 0.937892 -0.037136
C98   C     C_3   0.507206 0.821591 0.071401 -0.049681
C99   C     C_3   0.968665 0.327494 0.937863 -0.035299
C100  C     C_3   0.007250 0.321612 0.071373 -0.048917
Cr1   Cr    Cr6+3 0.229630 0.835900 0.747350 1.171296
Cr2   Cr    Cr6+3 0.770370 0.835900 0.252650 1.206689
Cr3   Cr    Cr6+3 0.729630 0.335900 0.747350 1.207081
Cr4   Cr    Cr6+3 0.270370 0.335900 0.252650 1.201993
Cr5   Cr    Cr6+3 0.387410 0.989850 0.750850 1.178503
Cr6   Cr    Cr6+3 0.612590 0.989850 0.249150 1.154644
Cr7   Cr    Cr6+3 0.887410 0.489850 0.750850 1.129508
Cr8   Cr    Cr6+3 0.112590 0.489850 0.249150 1.132086
Cr9   Cr    Cr6+3 0.385800 0.677120 0.749340 1.179192
Cr10  Cr    Cr6+3 0.614200 0.677120 0.250660 1.189213
Cr11  Cr    Cr6+3 0.885800 0.177120 0.749340 1.159801
Cr12  Cr    Cr6+3 0.114200 0.177120 0.250660 1.175076
O1    O     O_R   0.214270 0.709000 0.827470 -0.453163
O2    O     O_R   0.785730 0.709000 0.172530 -0.445575
O3    O     O_R   0.714270 0.209000 0.827470 -0.448730
O4    O     O_R   0.285730 0.209000 0.172530 -0.445393
O5    O     O_R   0.445950 0.919440 0.676520 -0.459333
O6    O     O_R   0.554050 0.919440 0.323480 -0.474907
O7    O     O_R   0.945950 0.419440 0.676520 -0.469652
O8    O     O_R   0.054050 0.419440 0.323480 -0.483977
O9    O     O_R   0.456730 0.717630 0.669840 -0.462664
O10   O     O_R   0.543270 0.717630 0.330160 -0.433505
O11   O     O_R   0.956730 0.217630 0.669840 -0.465088
O12   O     O_R   0.043270 0.217630 0.330160 -0.448641
O13   O     O_R   0.320620 0.625640 0.672920 -0.480943
O14   O     O_R   0.679380 0.625640 0.327080 -0.439209
O15   O     O_R   0.820620 0.125640 0.672920 -0.471027
O16   O     O_R   0.179380 0.125640 0.327080 -0.465983
O17   O     O_3   0.334280 0.834290 0.749180 -0.362971
O18   O     O_3   0.665720 0.834290 0.250820 -0.374616
O19   O     O_3   0.834280 0.334290 0.749180 -0.350550
O20   O     O_3   0.165720 0.334290 0.250820 -0.350101
O21   O     O_R   0.236160 0.958490 0.823130 -0.447448
O22   O     O_R   0.763840 0.958490 0.176870 -0.424326
O23   O     O_R   0.736160 0.458490 0.823130 -0.445281
O24   O     O_R   0.263840 0.458490 0.176870 -0.423156
O25   O     O_R   0.332080 0.075470 0.831280 -0.439154
O26   O     O_R   0.667920 0.075470 0.168720 -0.476546
O27   O     O_R   0.832080 0.575470 0.831280 -0.445462
O28   O     O_R   0.167920 0.575470 0.168720 -0.476034
O29   O     O_R   0.446300 0.918110 0.826620 -0.487086
O30   O     O_R   0.553700 0.918110 0.173380 -0.479638
O31   O     O_R   0.946300 0.418110 0.826620 -0.489306
O32   O     O_R   0.053700 0.418110 0.173380 -0.482524
O33   O     O_R   0.457110 0.716200 0.831760 -0.428008
O34   O     O_R   0.542890 0.716200 0.168240 -0.444348
O35   O     O_R   0.957110 0.216200 0.831760 -0.433982
O36   O     O_R   0.042890 0.216200 0.168240 -0.444757
O37   O     O_R   0.320980 0.624310 0.823030 -0.442045
O38   O     O_R   0.679020 0.624310 0.176970 -0.464090
O39   O     O_R   0.820980 0.124310 0.823030 -0.442079
O40   O     O_R   0.179020 0.124310 0.176970 -0.468257
O41   O     O_R   0.213890 0.710430 0.665540 -0.424430
O42   O     O_R   0.786110 0.710430 0.334460 -0.437341
O43   O     O_R   0.713890 0.210430 0.665540 -0.426795
O44   O     O_R   0.286110 0.210430 0.334460 -0.469947
O45   O     O_R   0.235810 0.959820 0.673020 -0.481156
O46   O     O_R   0.764190 0.959820 0.326980 -0.483010
O47   O     O_R   0.735810 0.459820 0.673020 -0.473882
O48   O     O_R   0.264190 0.459820 0.326980 -0.487790
O49   O     O_R   0.331700 0.076900 0.669350 -0.457030
O50   O     O_R   0.668300 0.076900 0.330650 -0.454809
O51   O     O_R   0.831700 0.576900 0.669350 -0.482868
O52   O     O_R   0.168300 0.576900 0.330650 -0.479269
C101  C     C_2   0.347448 0.797104 0.983146 0.552320
O53   O     O_2   0.324655 0.816025 0.923331 -0.566020
O54   O     O_R   0.302702 0.785599 0.037710 -0.626031
H1    H     H_    0.254050 0.785904 0.019441 0.336431
C102  C     C_2   0.628361 0.857085 0.018578 0.593595
O55   O     O_2   0.656510 0.843220 0.076559 -0.559078
O56   O     O_R   0.666843 0.872414 0.959038 -0.613198
H2    H     H_    0.716312 0.878969 0.972708 0.336213
C103  C     C_2   0.847490 0.297060 0.983126 0.552331
O57   O     O_2   0.824679 0.316016 0.923322 -0.566147
O58   O     O_R   0.802759 0.285479 0.037700 -0.625198
H3    H     H_    0.754097 0.285868 0.019451 0.335781
C104  C     C_2   0.128408 0.357089 0.018542 0.595203
O59   O     O_2   0.156559 0.343183 0.076520 -0.556814
O60   O     O_R   0.166889 0.372437 0.959003 -0.614225
H4    H     H_    0.216364 0.378939 0.972668 0.335703
Br1   Br    Br    0.110098 0.678052 0.572403 -0.260495
Br2   Br    Br    0.846645 0.574808 0.459673 -0.423930
Br3   Br    Br    0.611349 0.189521 0.564703 -0.273569
Br4   Br    Br    0.397781 0.059991 0.385388 -0.410815
C105  C     C_2   0.168842 0.744895 0.422275 0.708851
O61   O     O_2   0.200611 0.795444 0.378311 -0.466085
O62   O     O_R   0.099319 0.773009 0.429314 -0.568896
H5    H     H_    0.077541 0.809361 0.384797 0.341290
C106  C     C_2   0.812008 0.774421 0.605123 0.690777
O63   O     O_2   0.784102 0.824362 0.654280 -0.488917
O64   O     O_R   0.882444 0.766260 0.604295 -0.553301
H6    H     H_    0.904155 0.796352 0.649414 0.355501
C107  C     C_2   0.670385 0.261691 0.412390 0.691582
O65   O     O_2   0.699160 0.317342 0.368504 -0.454643
O66   O     O_R   0.599897 0.278412 0.419122 -0.590078
H7    H     H_    0.577264 0.324750 0.378609 0.369163
C108  C     C_2   0.397373 0.108242 0.552090 0.677684
O67   O     O_2   0.404237 0.185755 0.594472 -0.363054
O68   O     O_R   0.454629 0.049109 0.527036 -0.721144
H8    H     H_    0.497263 0.080772 0.547598 0.375530
C109  C     C_2   0.350783 0.424413 0.433601 0.663979
O69   O     O_2   0.380019 0.459855 0.382194 -0.418017
O70   O     O_R   0.370768 0.316632 0.461358 -0.653270
H9    H     H_    0.413397 0.282307 0.438552 0.372854
C110  C     C_2   0.663539 0.457339 0.559705 0.702113
O71   O     O_2   0.609807 0.441273 0.587474 -0.337489
O72   O     O_R   0.711373 0.367050 0.548519 -0.678291
H10   H     H_    0.754451 0.390503 0.525500 0.299828
C111  C     C_2   0.857338 0.940973 0.427275 0.638489
O73   O     O_2   0.879389 0.953474 0.367954 -0.454428
O74   O     O_R   0.881367 0.844809 0.466362 -0.597106
H11   H     H_    0.915879 0.794147 0.439943 0.390928
C112  C     C_2   0.192277 0.915585 0.549407 0.668523
O75   O     O_2   0.133952 0.906106 0.566541 -0.345302
O76   O     O_R   0.241208 0.824516 0.554289 -0.703212
H12   H     H_    0.287923 0.841782 0.537240 0.298303
Br5   Br    Br    0.365142 0.424713 0.602193 -0.279151
Br6   Br    Br    0.596108 0.546747 0.426188 -0.381249
Br7   Br    Br    0.896911 0.007139 0.581447 -0.292958
Br8   Br    Br    0.115989 0.018392 0.423041 -0.385194
C113  C     C_2   0.406911 0.966630 0.097877 0.573501
O77   O     O_2   0.353165 0.930753 0.115018 -0.379114
O78   O     O_R   0.430947 0.055612 0.138817 -0.610113
H13   H     H_    0.477810 0.075454 0.126921 0.367684
C114  C     C_2   0.513839 0.011581 0.923736 0.637026
O79   O     O_2   0.475797 0.094492 0.907075 -0.455956
O80   O     O_R   0.562755 0.964779 0.876981 -0.605016
H14   H     H_    0.553789 0.986446 0.825399 0.398555
C115  C     C_2   0.906920 0.466805 0.097729 0.573536
O81   O     O_2   0.853037 0.431230 0.114663 -0.375801
O82   O     O_R   0.930986 0.555657 0.138761 -0.616135
H15   H     H_    0.977899 0.575369 0.126985 0.366719
C116  C     C_2   0.013856 0.511629 0.923693 0.638952
O83   O     O_2   0.975804 0.594538 0.907056 -0.462112
O84   O     O_R   0.062757 0.464874 0.876911 -0.606904
H16   H     H_    0.053765 0.486619 0.825342 0.389532
Br9   Br    Br    0.586340 0.669195 0.902081 -0.322325
Br10  Br    Br    0.513151 0.559015 0.051434 -0.229683
Br11  Br    Br    0.086371 0.169215 0.902034 -0.335208
Br12  Br    Br    0.013184 0.059012 0.051367 -0.230623
C117  C     C_2   0.375373 0.510827 0.951191 0.656872
O85   O     O_2   0.402712 0.430216 0.984320 -0.354227
O86   O     O_R   0.413067 0.559269 0.899762 -0.629979
H17   H     H_    0.458721 0.515861 0.892575 0.380439
C118  C     C_2   0.686686 0.435223 0.091877 0.634563
O87   O     O_2   0.718777 0.404440 0.145754 -0.410904
O88   O     O_R   0.624657 0.388013 0.077042 -0.563795
H18   H     H_    0.608646 0.342827 0.118663 0.384650
C119  C     C_2   0.875373 0.010750 0.951136 0.655739
O89   O     O_2   0.902707 0.930091 0.984224 -0.355597
O90   O     O_R   0.913076 0.059262 0.899742 -0.632763
H19   H     H_    0.958722 0.015842 0.892525 0.376615
C120  C     C_2   0.186710 0.935165 0.091932 0.635212
O91   O     O_2   0.218772 0.904402 0.145833 -0.424061
O92   O     O_R   0.124678 0.887978 0.077078 -0.562970
H20   H     H_    0.108642 0.842820 0.118699 0.382898
Br13  Br    Br    0.367641 0.577242 0.114076 -0.251502
Br14  Br    Br    0.652005 0.413397 0.928452 -0.331758
Br15  Br    Br    0.867681 0.077034 0.114009 -0.236324
Br16  Br    Br    0.151994 0.913467 0.928475 -0.339998
Br17  Br    Br    0.083201 0.627888 0.062416 -0.402842
Br18  Br    Br    0.817479 0.786117 0.893135 -0.385324
Br19  Br    Br    0.583207 0.127890 0.062407 -0.400323
Br20  Br    Br    0.317663 0.285990 0.893288 -0.376556
C121  C     C_2   0.118567 0.667732 0.908896 0.715379
O93   O     O_2   0.110089 0.644320 0.846405 -0.468152
O94   O     O_R   0.067389 0.740204 0.938654 -0.537786
H21   H     H_    0.032969 0.775147 0.902470 0.389576
C122  C     C_2   0.846631 0.747906 0.054232 0.702446
O95   O     O_2   0.833826 0.835291 0.087106 -0.391328
O96   O     O_R   0.914103 0.719373 0.037617 -0.531081
H22   H     H_    0.918571 0.645324 0.010267 0.329863
C123  C     C_2   0.618583 0.167617 0.908866 0.714755
O97   O     O_2   0.610121 0.144144 0.846381 -0.449249
O98   O     O_R   0.567403 0.240116 0.938597 -0.538093
H23   H     H_    0.532996 0.275046 0.902398 0.394904
C124  C     C_2   0.346689 0.247871 0.054310 0.703660
O99   O     O_2   0.333809 0.335319 0.087102 -0.389481
O100  O     O_R   0.414184 0.219440 0.037735 -0.530389
H24   H     H_    0.418717 0.145360 0.010420 0.329018
C125  C     C_2   0.471322 0.612941 0.536347 0.638033
O101  O     O_2   0.499321 0.572855 0.590040 -0.390927
O102  O     O_R   0.457717 0.538373 0.481406 -0.626367
H25   H     H_    0.474635 0.456063 0.492614 0.397119
C126  C     C_2   0.400466 0.748380 0.406964 0.669754
O103  O     O_2   0.346200 0.734209 0.434254 -0.539761
O104  O     O_R   0.404144 0.747589 0.333102 -0.605687
H26   H     H_    0.359166 0.731299 0.308746 0.378474
C127  C     C_2   0.060864 0.154149 0.577809 0.671281
O105  O     O_2   0.118592 0.183077 0.590512 -0.522282
O106  O     O_R   0.038420 0.055954 0.609661 -0.534238
H27   H     H_    0.070463 0.025401 0.649209 0.361955
C128  C     C_2   0.970992 0.131720 0.435788 0.640388
O107  O     O_2   0.935160 0.142008 0.382007 -0.434903
O108  O     O_R   0.984506 0.024365 0.467290 -0.567641
H28   H     H_    0.984757 0.958904 0.432175 0.379375
C129  C     C_2   0.612598 0.945877 0.457395 0.589528
O109  O     O_2   0.672345 0.911744 0.459995 -0.538646
O110  O     O_R   0.592124 0.054020 0.430730 -0.618153
H29   H     H_    0.541131 0.071773 0.429484 0.369948
C130  C     C_2   0.593052 0.921829 0.608726 0.600902
O111  O     O_2   0.568517 0.975941 0.658344 -0.453001
O112  O     O_R   0.663333 0.910496 0.603467 -0.652466
H30   H     H_    0.686180 0.952689 0.643527 0.372792
C131  C     C_2   0.016703 0.543641 0.426575 0.693467
O113  O     O_2   0.075517 0.567710 0.430311 -0.496553
O114  O     O_R   0.970788 0.601090 0.378986 -0.600796
H31   H     H_    0.991619 0.666234 0.353295 0.336446
C132  C     C_2   0.983805 0.557277 0.574845 0.684405
O115  O     O_2   0.963638 0.641804 0.540678 -0.379932
O116  O     O_R   0.008183 0.573499 0.644490 -0.619731
H32   H     H_    0.997418 0.654057 0.663098 0.358830

loop_
_geom_bond_atom_site_label_1
_geom_bond_atom_site_label_2
_ccdc_geom_bond_type
C54   C106  S    
C55   C59   A    
Cr1   O1    S    
Cr8   O8    S    
O106  H27   S    
C130  O111  D    
C6    Br10  S    
C11   C119  S    
C7    C99   S    
C68   Br8   S    
Cr12  O12   S    
C51   Br3   S    
C5    C6    S    
C95   C99   S    
O96   H22   S    
C74   O2    A    
C34   C126  S    
C47   O31   A    
C48   O32   A    
C129  O110  S    
C83   O7    A    
C108  O68   S    
C9    C13   A    
Cr4   O4    S    
C11   C15   A    
C12   C16   A    
C91   C100  S    
C103  O58   S    
C46   C98   S    
O68   H8    S    
C49   C69   A    
C118  O87   D    
Cr6   O6    S    
C40   C83   S    
C51   C71   A    
Cr6   O30   S    
C63   C67   A    
C112  O76   S    
C25   C29   A    
C48   C100  S    
C27   C31   A    
O64   H6    S    
C2    O26   A    
C52   Br4   S    
C28   C32   A    
C17   C21   A    
C81   O9    A    
C19   C23   A    
O76   H12   S    
C115  O81   D    
Cr2   O2    S    
C26   C122  S    
Cr8   O52   S    
C10   C30   A    
O80   H14   S    
C23   Br19  S    
C68   C72   A    
C2    O22   A    
C58   C79   S    
C122  O96   S    
C38   C81   S    
C75   O3    A    
C82   O6    A    
Cr7   O31   S    
C88   O44   A    
Cr8   O32   S    
C120  O92   S    
Cr6   O18   S    
C1    C20   S    
C2    C19   S    
Cr9   O33   S    
Cr2   O18   S    
Cr10  O38   S    
C39   C43   A    
C57   C61   A    
Cr1   O21   S    
C59   C63   A    
C33   C38   A    
C60   C64   A    
C35   C40   A    
C86   O42   A    
C126  O104  S    
C65   Br5   S    
Cr9   O9    S    
C46   O34   A    
C22   Br18  S    
C49   C53   A    
C51   C55   A    
C95   C103  S    
C22   C26   A    
O66   H7    S    
C129  O109  D    
C61   C65   A    
C66   Br6   S    
C107  O65   D    
C94   C98   S    
C43   C131  S    
C82   O10   A    
C81   O5    A    
C86   O14   A    
C9    C117  S    
Cr2   O46   S    
C7    C8    S    
C66   C70   A    
C76   O4    A    
C119  O89   D    
C113  O77   D    
C45   O33   A    
C64   C68   A    
C39   C84   S    
C89   C113  S    
C120  O91   D    
C30   C74   S    
C105  O62   S    
C92   C96   S    
C47   C99   S    
C117  O85   D    
C106  O64   S    
C13   Br13  S    
C78   O46   A    
C75   O39   A    
C104  O60   S    
C116  O83   D    
C3    O23   A    
C27   C123  S    
C101  O54   S    
C124  O99   D    
C109  O70   S    
C57   C80   S    
C50   Br2   S    
C8    C95   S    
C1    O21   A    
C59   C78   S    
C127  O105  D    
C8    Br12  S    
C114  O80   S    
C47   O35   A    
C62   C66   A    
C64   C112  S    
C10   C14   A    
C91   C92   S    
C128  O107  D    
O100  H24   S    
C111  O73   D    
C121  O94   S    
Cr10  O14   S    
C49   Br1   S    
Cr11  O19   S    
Cr7   O51   S    
C104  O59   D    
Cr9   O17   S    
Cr5   O49   S    
C3    O27   A    
C93   C97   S    
C1    O25   A    
C102  O56   S    
Cr9   O13   S    
C21   C25   A    
C12   C120  S    
Cr4   O24   S    
C18   C22   A    
C44   C132  S    
C36   C39   A    
C24   C28   A    
C5    C97   S    
C32   C76   S    
O94   H21   S    
C26   C30   A    
C125  O102  S    
C13   C17   A    
C89   C98   S    
C67   Br7   S    
C8    C100  S    
C35   C127  S    
C96   C100  S    
C123  O98   S    
C37   C41   A    
C108  O67   D    
C50   C70   A    
Cr8   O20   S    
Cr5   O25   S    
C40   C44   A    
O102  H25   S    
Cr10  O34   S    
Cr3   O19   S    
Cr7   O27   S    
C92   C99   S    
C42   C130  S    
Cr1   O17   S    
C58   C62   A    
C34   C37   A    
C41   C42   A    
C35   C36   A    
O116  H32   S    
C5    C94   S    
C69   C85   S    
C28   C124  S    
C46   O30   A    
C112  O75   D    
C15   C19   A    
C7    C96   S    
C50   C54   A    
C5    Br9   S    
C91   C115  S    
C6    C98   S    
C63   C111  S    
C79   O47   A    
C80   O48   A    
C76   O40   A    
O86   H17   S    
C92   C116  S    
C73   O1    A    
C102  O55   D    
C80   O52   A    
C41   C129  S    
O84   H16   S    
Cr12  O40   S    
C96   C104  S    
Cr2   O42   S    
C90   C97   S    
C4    O24   A    
Cr1   O45   S    
C16   Br16  S    
C122  O95   D    
C45   O29   A    
Cr5   O5    S    
Cr4   O48   S    
Cr7   O7    S    
C90   C94   S    
C130  O112  S    
C77   O49   A    
Cr11  O11   S    
O72   H10   S    
O78   H13   S    
O90   H19   S    
C14   Br14  S    
O108  H28   S    
C53   C57   A    
C110  O71   D    
O114  H31   S    
Cr3   O3    S    
O110  H29   S    
C126  O103  D    
Cr11  O35   S    
C31   C75   S    
O74   H11   S    
C84   O8    A    
C6    C93   S    
C10   C118  S    
Cr12  O20   S    
C71   C87   S    
C4    C17   S    
Cr3   O43   S    
C36   C128  S    
C118  O88   S    
C37   C82   S    
O54   H1    S    
C56   C108  S    
C73   O37   A    
O62   H5    S    
C115  O82   S    
Cr10  O10   S    
C105  O61   D    
C65   C69   A    
Cr10  O18   S    
C67   C71   A    
Cr6   O50   S    
C106  O63   D    
Cr12  O16   S    
O60   H4    S    
C56   C60   A    
C88   O16   A    
C131  O113  D    
Cr4   O20   S    
C127  O106  S    
C83   O11   A    
C89   C90   S    
O56   H2    S    
C101  O53   D    
C109  O69   D    
C14   C18   A    
C90   C114  S    
C85   O13   A    
C43   C44   A    
C87   O15   A    
C103  O57   D    
C52   C72   A    
C38   C42   A    
C94   C102  S    
Cr5   O29   S    
Cr6   O26   S    
C29   C73   S    
C3    C18   S    
C53   C105  S    
Cr3   O23   S    
C61   C109  S    
O58   H3    S    
C107  O66   S    
C23   C27   A    
C121  O93   D    
C62   C110  S    
C16   C20   A    
C128  O108  S    
C11   C31   A    
O112  H30   S    
C12   C32   A    
C89   C93   S    
C72   C88   S    
C33   C125  S    
C60   C77   S    
C119  O90   S    
C20   C24   A    
Cr7   O19   S    
Cr8   O28   S    
Cr5   O17   S    
C131  O114  S    
C125  O101  D    
C91   C95   S    
Cr12  O36   S    
C117  O86   S    
Cr9   O37   S    
Cr2   O22   S    
C4    O28   A    
Cr1   O41   S    
C24   Br20  S    
C33   C34   A    
C85   O41   A    
Cr4   O44   S    
C116  O84   S    
C21   Br17  S    
C55   C107  S    
O98   H23   S    
C7    Br11  S    
C78   O50   A    
C124  O100  S    
O104  H26   S    
Cr11  O15   S    
C87   O43   A    
O92   H20   S    
C70   C86   S    
C15   Br15  S    
C54   C58   A    
C114  O79   D    
C79   O51   A    
Cr11  O39   S    
C25   C121  S    
O88   H18   S    
C9    C29   A    
C84   O12   A    
C113  O78   S    
C45   C97   S    
Cr3   O47   S    
C132  O116  S    
C48   O36   A    
C111  O74   S    
C132  O115  D    
C93   C101  S    
O82   H15   S    
C74   O38   A    
O70   H9    S    
C110  O72   S    
C52   C56   A    
C77   O45   A    
C123  O97   D    
