data_mof_unit_34868.cif
_audit_creation_date              2012-12-11T15:49:05-0500
_audit_creation_method            fapswitch 2.2
_symmetry_space_group_name_H-M    P1
_symmetry_Int_Tables_number       1
_space_group_crystal_system       triclinic
_cell_length_a                    21.656861
_cell_length_b                    7.175997
_cell_length_c                    14.866786
_cell_angle_alpha                 89.71721
_cell_angle_beta                  105.897779
_cell_angle_gamma                 89.970539
_cell_volume                      2222.03965942

loop_
_atom_site_label
_atom_site_type_symbol
_atom_type_description
_atom_site_fract_x
_atom_site_fract_y
_atom_site_fract_z
_atom_type_partial_charge
O1    O     O_R   0.335860 0.638190 0.002110 -0.502389
O2    O     O_R   0.664140 0.361810 0.997890 -0.502389
O3    O     O_R   0.164140 0.138190 0.997890 -0.510599
O4    O     O_R   0.835860 0.861810 0.002110 -0.510599
O5    O     O_R   0.217530 0.305920 0.861960 -0.545511
O6    O     O_R   0.782470 0.694080 0.138040 -0.545511
O7    O     O_R   0.282470 0.805920 0.138040 -0.530642
O8    O     O_R   0.717530 0.194080 0.861960 -0.530643
C1    C     C_R   0.205412 0.477162 0.826063 0.758060
C2    C     C_R   0.794588 0.522837 0.173937 0.758060
C3    C     C_R   0.294395 0.976165 0.173980 0.761002
C4    C     C_R   0.705605 0.023835 0.826020 0.761002
O9    O     O_R   0.338690 0.308320 0.993240 -0.549135
O10   O     O_R   0.661310 0.691680 0.006760 -0.549135
O11   O     O_R   0.161310 0.808320 0.006760 -0.541435
O12   O     O_R   0.838690 0.191680 0.993240 -0.541435
O13   O     O_R   0.286170 0.140430 0.130100 -0.539257
O14   O     O_R   0.713830 0.859570 0.869900 -0.539257
O15   O     O_R   0.213830 0.640430 0.869900 -0.522021
O16   O     O_R   0.786170 0.359570 0.130100 -0.522021
C5    C     C_R   0.364740 0.477711 0.996633 0.739042
C6    C     C_R   0.635260 0.522289 0.003367 0.739041
C7    C     C_R   0.135259 0.977775 0.003397 0.745137
C8    C     C_R   0.864741 0.022225 0.996603 0.745138
O17   O     O_3   0.232630 0.472410 0.044750 -0.371025
O18   O     O_3   0.767370 0.527590 0.955250 -0.371024
O19   O     O_3   0.267370 0.972410 0.955250 -0.369547
O20   O     O_3   0.732630 0.027590 0.044750 -0.369547
V1    V     V_3+5 0.253220 0.196620 0.991700 1.590060
V2    V     V_3+5 0.746780 0.803380 0.008300 1.590059
V3    V     V_3+5 0.246780 0.696620 0.008300 1.628128
V4    V     V_3+5 0.753220 0.303380 0.991700 1.628129
C9    C     C_R   0.026201 0.835071 0.977021 -0.264746
C10   C     C_R   0.973798 0.164929 0.022979 -0.264746
C11   C     C_R   0.474270 0.335890 0.025357 -0.290421
C12   C     C_R   0.525730 0.664110 0.974643 -0.290421
H1    H     H_    0.045916 0.707304 0.957882 0.188324
H2    H     H_    0.954084 0.292696 0.042118 0.188325
H3    H     H_    0.454935 0.208995 0.046573 0.177859
H4    H     H_    0.545065 0.791005 0.953427 0.177859
C13   C     C_R   0.960331 0.842767 0.972549 0.399536
C14   C     C_R   0.039668 0.157233 0.027451 0.399536
C15   C     C_R   0.540138 0.343769 0.029693 0.428118
C16   C     C_R   0.459862 0.656231 0.970306 0.428119
C17   C     C_R   0.933647 0.009685 0.996354 -0.102020
C18   C     C_R   0.066353 0.990315 0.003646 -0.102020
C19   C     C_R   0.566349 0.509863 0.003621 -0.095203
C20   C     C_R   0.433651 0.490137 0.996379 -0.095203
C21   C     C_R   0.675800 0.019032 0.725240 -0.103505
C22   C     C_R   0.324200 0.980968 0.274759 -0.103505
C23   C     C_R   0.824229 0.513251 0.274735 -0.101015
C24   C     C_R   0.175771 0.486749 0.725264 -0.101015
C25   C     C_R   0.687390 0.061764 0.569852 -0.061411
C26   C     C_R   0.312610 0.938236 0.430148 -0.061411
C27   C     C_R   0.811489 0.484722 0.430185 -0.061796
C28   C     C_R   0.188511 0.515278 0.569815 -0.061796
C29   C     C_R   0.714764 0.035092 0.665001 -0.198912
C30   C     C_R   0.285236 0.964908 0.334999 -0.198913
C31   C     C_R   0.785005 0.514039 0.334987 -0.199239
C32   C     C_R   0.214995 0.485961 0.665013 -0.199238
C33   C     C_R   0.608514 0.017709 0.689810 0.314976
C34   C     C_R   0.391486 0.982291 0.310190 0.314976
C35   C     C_R   0.891223 0.495343 0.310225 0.318393
C36   C     C_R   0.108776 0.504657 0.689775 0.318393
C37   C     C_R   0.580184 0.015252 0.591092 -0.008393
C38   C     C_R   0.419816 0.984748 0.408908 -0.008393
C39   C     C_R   0.919634 0.497814 0.408855 -0.009539
C40   C     C_R   0.080366 0.502185 0.591145 -0.009539
C41   C     C_R   0.620318 0.059075 0.532377 -0.015613
C42   C     C_R   0.379682 0.940925 0.467623 -0.015613
C43   C     C_R   0.878414 0.470626 0.467747 -0.014411
C44   C     C_R   0.121585 0.529374 0.532253 -0.014411
C45   C     C_R   0.513557 0.979821 0.548357 0.000619
C46   C     C_R   0.486443 0.020179 0.451643 0.000618
C47   C     C_R   0.987042 0.519238 0.451436 -0.000190
C48   C     C_R   0.012958 0.480762 0.548564 -0.000190
C49   C     C_R   0.526042 0.103788 0.402148 -0.106429
C50   C     C_R   0.473958 0.896212 0.597852 -0.106429
C51   C     C_R   0.971183 0.412256 0.598621 -0.106008
C52   C     C_R   0.028817 0.587744 0.401379 -0.106008
C53   C     C_R   0.592316 0.109911 0.438695 0.382459
C54   C     C_R   0.407684 0.890089 0.561305 0.382459
C55   C     C_R   0.904929 0.420535 0.561873 0.383178
C56   C     C_R   0.095071 0.579465 0.438127 0.383178
H5    H     H_    0.233459 0.960850 0.307447 0.178232
H6    H     H_    0.766541 0.039150 0.692553 0.178232
H7    H     H_    0.266644 0.474033 0.692500 0.173920
H8    H     H_    0.733356 0.525967 0.307500 0.173920
H9    H     H_    0.719242 0.086728 0.526299 0.201974
H10   H     H_    0.280758 0.913272 0.473701 0.201974
H11   H     H_    0.779066 0.472914 0.473848 0.201057
H12   H     H_    0.220934 0.527085 0.526152 0.201057
H13   H     H_    0.506196 0.168359 0.334792 0.207363
H14   H     H_    0.493804 0.831641 0.665208 0.207363
H15   H     H_    0.989181 0.348608 0.666595 0.208794
H16   H     H_    0.010819 0.651392 0.333405 0.208794
O21   O     O_3   0.921354 0.689848 0.943211 -0.616551
H17   H     H_    0.947307 0.586094 0.928770 0.308847
O22   O     O_3   0.078646 0.310152 0.056789 -0.616551
H18   H     H_    0.052693 0.413906 0.071230 0.308846
O23   O     O_3   0.579596 0.191933 0.061108 -0.611222
H19   H     H_    0.553862 0.088125 0.076252 0.311513
O24   O     O_3   0.420404 0.808067 0.938892 -0.611222
H20   H     H_    0.446138 0.911875 0.923748 0.311513
Cl1   Cl    Cl    0.637823 0.196741 0.365658 -0.644981
Cl2   Cl    Cl    0.362176 0.803259 0.634342 -0.644981
Cl3   Cl    Cl    0.857137 0.353210 0.635459 -0.657675
Cl4   Cl    Cl    0.142863 0.646790 0.364541 -0.657675
Cl5   Cl    Cl    0.436631 0.932418 0.229608 -0.673650
Cl6   Cl    Cl    0.563369 0.067582 0.770392 -0.673650
Cl7   Cl    Cl    0.065420 0.572817 0.769941 -0.682100
Cl8   Cl    Cl    0.934580 0.427183 0.230059 -0.682099

loop_
_geom_bond_atom_site_label_1
_geom_bond_atom_site_label_2
_ccdc_geom_bond_type
O17   V3    S    
O1    C5    A    
O23   H19   S    
C27   C31   A    
O19   V1    S    
O13   V1    S    
C45   C46   A    
O3    C7    A    
C10   C14   A    
C48   C51   A    
C52   C56   A    
O15   V3    S    
C4    C21   S    
C21   C29   A    
O7    C3    A    
C8    C17   S    
C36   C40   A    
O9    V1    S    
C26   H10   S    
O16   V4    S    
O4    C8    A    
C11   C20   A    
C38   C46   A    
O1    V3    S    
C37   C45   A    
C29   H6    S    
C12   C19   A    
O2    V4    S    
C14   C18   A    
C35   Cl8   S    
O3    V1    S    
C31   H8    S    
C27   H11   S    
C24   C32   A    
C1    O15   A    
C2    O16   A    
C28   C44   A    
C46   C49   A    
O2    C6    A    
C45   C50   A    
O12   V4    S    
O14   V2    S    
C52   H16   S    
C11   C15   A    
C47   C52   A    
O5    V1    S    
C23   C35   A    
C40   C44   A    
C5    C20   S    
O11   C7    A    
C6    C19   S    
C25   C41   A    
O12   C8    A    
C7    C18   S    
C9    C18   A    
C1    C24   S    
O10   V2    S    
C33   Cl6   S    
C32   H7    S    
O21   H17   S    
C43   C55   A    
C35   C39   A    
C21   C33   A    
C34   C38   A    
C22   C30   A    
C12   H4    S    
O7    V3    S    
C24   C36   A    
C25   C29   A    
O18   V4    S    
C36   Cl7   S    
C9    H1    S    
C28   C32   A    
O8    V4    S    
C51   H15   S    
C11   H3    S    
C47   C48   A    
C15   O23   S    
O5    C1    A    
C50   C54   A    
O22   H18   S    
C26   C42   A    
C49   C53   A    
O8    C4    A    
O9    C5    A    
C10   C17   A    
C44   C56   A    
O6    V2    S    
C25   H9    S    
C22   C34   A    
C13   O21   S    
C12   C16   A    
C39   C47   A    
C30   H5    S    
C26   C30   A    
C53   Cl1   S    
C3    O13   A    
C10   H2    S    
O6    C2    A    
O11   V3    S    
C40   C48   A    
C2    C23   S    
O10   C6    A    
O20   V2    S    
C9    C13   A    
C3    C22   S    
C14   O22   S    
C51   C55   A    
C38   C42   A    
C34   Cl5   S    
C50   H14   S    
C37   C41   A    
C49   H13   S    
C56   Cl4   S    
C55   Cl3   S    
C39   C43   A    
C54   Cl2   S    
C16   O24   S    
C42   C54   A    
C27   C43   A    
C41   C53   A    
C33   C37   A    
C28   H12   S    
C23   C31   A    
C4    O14   A    
O24   H20   S    
C13   C17   A    
C15   C19   A    
O4    V2    S    
C16   C20   A    
