data_mof_unit_54165.cif
_audit_creation_date              2013-03-05T15:56:52-0500
_audit_creation_method            fapswitch 2.2
_symmetry_space_group_name_H-M    P1
_symmetry_Int_Tables_number       1
_space_group_crystal_system       triclinic
_cell_length_a                    21.351155
_cell_length_b                    21.407735
_cell_length_c                    13.691326
_cell_angle_alpha                 89.721651
_cell_angle_beta                  89.839866
_cell_angle_gamma                 89.940048
_cell_volume                      6257.92785612

loop_
_atom_site_label
_atom_site_type_symbol
_atom_site_description
_atom_site_fract_x
_atom_site_fract_y
_atom_site_fract_z
_atom_type_partial_charge
O1    O     O_R   0.064880 0.435140 0.582280 -0.558867
O2    O     O_R   0.935120 0.564860 0.417720 -0.593823
O3    O     O_R   0.935120 0.564860 0.582280 -0.544086
O4    O     O_R   0.064880 0.435140 0.417720 -0.596915
O5    O     O_R   0.935120 0.435140 0.417720 -0.608308
O6    O     O_R   0.064880 0.564860 0.582280 -0.547515
O7    O     O_R   0.064880 0.564860 0.417720 -0.605898
O8    O     O_R   0.935120 0.435140 0.582280 -0.547900
O9    O     O_R   0.564880 0.935140 0.582280 -0.608502
O10   O     O_R   0.435120 0.064860 0.417720 -0.565424
O11   O     O_R   0.435120 0.064860 0.582280 -0.601549
O12   O     O_R   0.564880 0.935140 0.417720 -0.543678
O13   O     O_R   0.435120 0.935140 0.417720 -0.549281
O14   O     O_R   0.564880 0.064860 0.582280 -0.595343
O15   O     O_R   0.564880 0.064860 0.417720 -0.543954
O16   O     O_R   0.435120 0.935140 0.582280 -0.595011
C1    C     C_R   0.085029 0.413514 0.500305 0.839959
C2    C     C_R   0.914282 0.585859 0.500328 0.830582
C3    C     C_R   0.915400 0.413153 0.500477 0.835198
C4    C     C_R   0.085047 0.586279 0.499961 0.835136
C5    C     C_R   0.585163 0.913851 0.499885 0.841265
C6    C     C_R   0.414542 0.085896 0.499798 0.833815
C7    C     C_R   0.414362 0.914067 0.499778 0.826117
C8    C     C_R   0.586117 0.085472 0.499202 0.834065
Cu1   Cu    Cu3+1 0.000000 0.500000 0.597420 0.988490
Cu2   Cu    Cu3+1 0.000000 0.500000 0.402580 0.935346
Cu3   Cu    Cu3+1 0.500000 1.000000 0.597420 0.938498
Cu4   Cu    Cu3+1 0.500000 0.000000 0.402580 0.990288
C9    C     C_R   0.137269 0.676693 0.580480 0.459865
C10   C     C_R   0.849534 0.334772 0.590527 0.466855
C11   C     C_R   0.853922 0.669358 0.587287 0.450681
C12   C     C_R   0.136299 0.321049 0.579877 0.456620
C13   C     C_R   0.660989 0.154939 0.406968 0.473915
C14   C     C_R   0.356383 0.828573 0.414307 0.455058
C15   C     C_R   0.364511 0.179465 0.424504 0.472315
C16   C     C_R   0.640466 0.826180 0.416792 0.463303
C17   C     C_R   0.131974 0.635905 0.500245 -0.186021
C18   C     C_R   0.869663 0.362152 0.501722 -0.195990
C19   C     C_R   0.865712 0.634309 0.501847 -0.192895
C20   C     C_R   0.132066 0.363629 0.500968 -0.184089
C21   C     C_R   0.635287 0.133315 0.496577 -0.198064
C22   C     C_R   0.365687 0.865749 0.498189 -0.189278
C23   C     C_R   0.365754 0.133723 0.498741 -0.178581
C24   C     C_R   0.632522 0.864666 0.499238 -0.185889
C25   C     C_R   0.171938 0.642124 0.419763 -0.286635
C26   C     C_R   0.846721 0.339923 0.412802 -0.288994
C27   C     C_R   0.830266 0.644887 0.417435 -0.287018
C28   C     C_R   0.172795 0.358624 0.421138 -0.288666
C29   C     C_R   0.657250 0.156908 0.585248 -0.288814
C30   C     C_R   0.327291 0.857854 0.580349 -0.294093
C31   C     C_R   0.319417 0.132650 0.571149 -0.292339
C32   C     C_R   0.670288 0.856569 0.581570 -0.289599
C33   C     C_R   0.218532 0.687756 0.418335 0.028682
C34   C     C_R   0.802447 0.292170 0.410641 0.023163
C35   C     C_R   0.783156 0.690162 0.416123 0.028182
C36   C     C_R   0.218924 0.312410 0.418862 0.028733
C37   C     C_R   0.705100 0.201076 0.587326 0.026472
C38   C     C_R   0.279633 0.813162 0.580989 0.027638
C39   C     C_R   0.271180 0.176864 0.570755 0.026906
C40   C     C_R   0.716952 0.810990 0.582969 0.028559
C41   C     C_R   0.225285 0.727701 0.499598 -0.046730
C42   C     C_R   0.778229 0.268497 0.499502 -0.047818
C43   C     C_R   0.773158 0.727167 0.500011 -0.046052
C44   C     C_R   0.222327 0.268575 0.496218 -0.047255
C45   C     C_R   0.730671 0.223161 0.498351 -0.047952
C46   C     C_R   0.272232 0.773806 0.499200 -0.046815
C47   C     C_R   0.269188 0.222298 0.495558 -0.050069
C48   C     C_R   0.726356 0.773411 0.499559 -0.046222
C49   C     C_R   0.185192 0.721533 0.581317 -0.033982
C50   C     C_R   0.801288 0.290410 0.589551 -0.030482
C51   C     C_R   0.809816 0.717972 0.584522 -0.032729
C52   C     C_R   0.179345 0.271299 0.574757 -0.033556
C53   C     C_R   0.708968 0.199860 0.408209 -0.036473
C54   C     C_R   0.311752 0.780418 0.416952 -0.033159
C55   C     C_R   0.314656 0.222187 0.420510 -0.040128
C56   C     C_R   0.688942 0.781990 0.415716 -0.031291
C57   C     C_R   0.258813 0.693819 0.337371 0.482541
C58   C     C_R   0.781849 0.267843 0.321106 0.485436
C59   C     C_R   0.745811 0.699140 0.332553 0.497528
C60   C     C_R   0.261378 0.308883 0.340184 0.494614
C61   C     C_R   0.728366 0.222873 0.677041 0.495096
C62   C     C_R   0.239167 0.807104 0.661879 0.497240
C63   C     C_R   0.224304 0.176035 0.643249 0.498095
C64   C     C_R   0.754611 0.802564 0.666100 0.479794
C65   C     C_R   0.775754 0.267818 0.677279 -0.279306
C66   C     C_R   0.193318 0.760564 0.662270 -0.285855
C67   C     C_R   0.179909 0.224024 0.646246 -0.285792
C68   C     C_R   0.801698 0.757347 0.665212 -0.283091
C69   C     C_R   0.306027 0.738857 0.338526 -0.281069
C70   C     C_R   0.735727 0.221741 0.320581 -0.269721
C71   C     C_R   0.700179 0.745976 0.332318 -0.286652
C72   C     C_R   0.310105 0.265262 0.343322 -0.283486
H1    H     H_    0.167070 0.610561 0.358570 0.216834
H2    H     H_    0.863778 0.359740 0.344792 0.224452
H3    H     H_    0.838747 0.616781 0.353088 0.211128
H4    H     H_    0.169339 0.392055 0.361646 0.208259
H5    H     H_    0.637517 0.139922 0.653360 0.220964
H6    H     H_    0.333885 0.887690 0.643230 0.209363
H7    H     H_    0.321037 0.096948 0.627542 0.210249
H8    H     H_    0.663492 0.886400 0.644479 0.217435
H9    H     H_    0.791791 0.285510 0.746720 0.178857
H10   H     H_    0.163892 0.755589 0.726424 0.191258
H11   H     H_    0.145500 0.223424 0.704504 0.193712
H12   H     H_    0.831561 0.753163 0.728727 0.196105
H13   H     H_    0.338038 0.741020 0.277110 0.195604
H14   H     H_    0.720393 0.204227 0.250594 0.196572
H15   H     H_    0.673385 0.753657 0.266252 0.187026
H16   H     H_    0.344201 0.265273 0.284579 0.195595
C73   C     C_R   0.053676 0.513958 0.792875 0.074862
C74   C     C_R   0.946402 0.485785 0.207180 0.066882
C75   C     C_R   0.946454 0.485366 0.793575 0.075535
C76   C     C_R   0.053782 0.513659 0.206508 0.062075
C77   C     C_R   0.553429 0.984914 0.793084 0.066592
C78   C     C_R   0.446972 0.016283 0.206947 0.051262
C79   C     C_R   0.446751 0.015678 0.793421 0.074213
C80   C     C_R   0.553364 0.984646 0.206731 0.124137
N1    N     N_R   0.000000 0.500000 0.743810 -0.203784
N2    N     N_R   0.000000 0.500000 0.256190 -0.206241
N3    N     N_R   0.500000 0.000000 0.743810 -0.205696
N4    N     N_R   0.500000 0.000000 0.256190 -0.209107
C81   C     C_R   0.945108 0.484199 0.896777 -0.136906
C82   C     C_R   0.055327 0.513899 0.103322 -0.124215
C83   C     C_R   0.055053 0.514739 0.896008 -0.139433
C84   C     C_R   0.945084 0.484737 0.104060 -0.119119
C85   C     C_R   0.445553 0.016996 0.896605 -0.124149
C86   C     C_R   0.554758 0.983814 0.103594 -0.144255
C87   C     C_R   0.554989 0.984613 0.896263 -0.122446
C88   C     C_R   0.445908 0.017964 0.103882 -0.136068
C89   C     C_R   0.000127 0.499343 0.948257 -0.057808
C90   C     C_R   0.000182 0.499312 0.051794 -0.055377
C91   C     C_R   0.500294 0.000832 0.948300 -0.051930
C92   C     C_R   0.500324 0.000871 0.051852 -0.058484
C93   C     C_R   0.890359 0.467864 0.949143 0.365604
C94   C     C_R   0.110562 0.528291 0.050911 0.374451
C95   C     C_R   0.109807 0.530954 0.947699 0.377533
C96   C     C_R   0.889942 0.469866 0.052603 0.382102
C97   C     C_R   0.391062 0.034004 0.948904 0.386545
C98   C     C_R   0.609037 0.966032 0.051428 0.385227
C99   C     C_R   0.609844 0.968653 0.948208 0.379631
C100  C     C_R   0.391953 0.036679 0.052081 0.374993
H17   H     H_    0.095542 0.524429 0.751342 0.175207
H18   H     H_    0.904548 0.475416 0.248805 0.168419
H19   H     H_    0.904664 0.474655 0.752562 0.193178
H20   H     H_    0.095554 0.524306 0.247647 0.165863
H21   H     H_    0.594953 0.973180 0.751681 0.165565
H22   H     H_    0.405391 0.027940 0.248265 0.171871
H23   H     H_    0.405104 0.027177 0.752327 0.164588
H24   H     H_    0.594939 0.973022 0.247909 0.191788
O17   O     O_3   0.096987 0.671451 0.659568 -0.599880
C101  C     C_3   0.043535 0.708450 0.641258 -0.272333
H25   H     H_    0.056075 0.758559 0.631536 0.135818
H26   H     H_    0.011802 0.705010 0.705328 0.220818
H27   H     H_    0.017280 0.691500 0.576492 0.166715
O18   O     O_3   0.875519 0.352664 0.678574 -0.594623
C102  C     C_3   0.927077 0.313257 0.698388 -0.298975
H28   H     H_    0.911372 0.264663 0.713781 0.141592
H29   H     H_    0.951412 0.330702 0.764308 0.188315
H30   H     H_    0.961851 0.313493 0.637592 0.197445
O19   O     O_3   0.887981 0.658471 0.671729 -0.592073
C103  C     C_3   0.852200 0.619996 0.734819 -0.271412
H31   H     H_    0.839236 0.575129 0.699469 0.169814
H32   H     H_    0.809156 0.644066 0.760749 0.141973
H33   H     H_    0.880842 0.608693 0.800028 0.190561
O20   O     O_3   0.095111 0.325447 0.657960 -0.599339
C104  C     C_3   0.125574 0.356058 0.735741 -0.291377
H34   H     H_    0.145700 0.401822 0.712811 0.173892
H35   H     H_    0.163010 0.326402 0.767909 0.155732
H36   H     H_    0.090616 0.365442 0.793979 0.181108
O21   O     O_3   0.644817 0.127192 0.319206 -0.565306
C105  C     C_3   0.599069 0.163759 0.271102 -0.319234
H37   H     H_    0.601463 0.153586 0.191809 0.190193
H38   H     H_    0.605806 0.215051 0.279873 0.134851
H39   H     H_    0.551619 0.150396 0.296420 0.212294
O22   O     O_3   0.393549 0.836841 0.332083 -0.593314
C106  C     C_3   0.360364 0.873561 0.263402 -0.283846
H40   H     H_    0.344669 0.918806 0.294956 0.167361
H41   H     H_    0.319294 0.848175 0.233736 0.142108
H42   H     H_    0.392068 0.884329 0.201250 0.189196
O23   O     O_3   0.412386 0.182959 0.356328 -0.592992
C107  C     C_3   0.458357 0.224412 0.391786 -0.356902
H43   H     H_    0.487543 0.200965 0.448260 0.164495
H44   H     H_    0.438093 0.268421 0.421586 0.169783
H45   H     H_    0.489169 0.238403 0.330257 0.178790
O24   O     O_3   0.602092 0.832926 0.336044 -0.605161
C108  C     C_3   0.549235 0.794199 0.348653 -0.279275
H46   H     H_    0.521194 0.808180 0.413636 0.175598
H47   H     H_    0.562856 0.744120 0.354493 0.140036
H48   H     H_    0.518812 0.799302 0.283561 0.216997
O25   O     O_3   0.254772 0.653123 0.259461 -0.571638
C109  C     C_3   0.225744 0.684472 0.180851 -0.291627
H49   H     H_    0.176760 0.697714 0.199690 0.159087
H50   H     H_    0.223997 0.652412 0.117664 0.232560
H51   H     H_    0.252767 0.726351 0.157184 0.139389
O26   O     O_3   0.803502 0.292118 0.233489 -0.565454
C110  C     C_3   0.849819 0.251735 0.196140 -0.331692
H52   H     H_    0.829825 0.205345 0.177406 0.161573
H53   H     H_    0.889445 0.246193 0.248219 0.158487
H54   H     H_    0.868940 0.272532 0.127939 0.191324
O27   O     O_3   0.756294 0.664800 0.248726 -0.585765
C111  C     C_3   0.707071 0.621470 0.237833 -0.379340
H55   H     H_    0.660015 0.643874 0.239566 0.163687
H56   H     H_    0.710093 0.584299 0.294695 0.171268
H57   H     H_    0.711574 0.599263 0.165285 0.185861
O28   O     O_3   0.258033 0.351038 0.263426 -0.586196
C112  C     C_3   0.234609 0.319722 0.180765 -0.366001
H58   H     H_    0.187166 0.300034 0.195310 0.165294
H59   H     H_    0.267132 0.282326 0.155824 0.166325
H60   H     H_    0.230210 0.353772 0.119905 0.183199
O29   O     O_3   0.701465 0.203651 0.764289 -0.575848
C113  C     C_3   0.744260 0.165172 0.814858 -0.367483
H61   H     H_    0.786184 0.191753 0.838707 0.160774
H62   H     H_    0.758504 0.124264 0.769977 0.156833
H63   H     H_    0.720972 0.147112 0.881744 0.192417
O30   O     O_3   0.246102 0.844654 0.743028 -0.582887
C114  C     C_3   0.199640 0.891513 0.740070 -0.389794
H64   H     H_    0.207567 0.923824 0.677317 0.162834
H65   H     H_    0.202417 0.919123 0.808097 0.182944
H66   H     H_    0.151546 0.871571 0.737078 0.166148
O31   O     O_3   0.223148 0.129895 0.714234 -0.560743
C115  C     C_3   0.179727 0.083976 0.685275 -0.353268
H67   H     H_    0.194716 0.061195 0.616095 0.155936
H68   H     H_    0.131723 0.103711 0.677441 0.163217
H69   H     H_    0.177336 0.047271 0.742464 0.178167
O32   O     O_3   0.747916 0.840874 0.746511 -0.572318
C116  C     C_3   0.716092 0.807340 0.820304 -0.289239
H70   H     H_    0.742238 0.764696 0.843008 0.140400
H71   H     H_    0.667852 0.794915 0.796701 0.157223
H72   H     H_    0.712085 0.837483 0.885463 0.229497
O33   O     O_3   0.835930 0.454218 0.898904 -0.591602
C117  C     C_3   0.825774 0.389150 0.902032 -0.224206
H73   H     H_    0.810043 0.373697 0.975636 0.206971
H74   H     H_    0.868128 0.362395 0.879736 0.150420
H75   H     H_    0.787796 0.377778 0.850044 0.194770
O34   O     O_3   0.164619 0.544187 0.100186 -0.589583
C118  C     C_3   0.200783 0.489743 0.113570 -0.246573
H76   H     H_    0.215101 0.469220 0.042367 0.176376
H77   H     H_    0.175316 0.454503 0.158577 0.147281
H78   H     H_    0.244067 0.502357 0.153483 0.219838
O35   O     O_3   0.163924 0.546763 0.897679 -0.583860
C119  C     C_3   0.165176 0.612229 0.885735 -0.260564
H79   H     H_    0.168439 0.636264 0.957372 0.166210
H80   H     H_    0.123515 0.629396 0.844902 0.185123
H81   H     H_    0.207324 0.624968 0.842502 0.195388
O36   O     O_3   0.836412 0.453249 0.103401 -0.572594
C120  C     C_3   0.798289 0.506548 0.113122 -0.290231
H82   H     H_    0.782528 0.524375 0.040764 0.190795
H83   H     H_    0.822630 0.544119 0.154201 0.164060
H84   H     H_    0.755933 0.493208 0.155365 0.186897
O37   O     O_3   0.337709 0.052182 0.899442 -0.559813
C121  C     C_3   0.297913 0.000006 0.891913 -0.259369
H85   H     H_    0.284639 0.981070 0.964950 0.181306
H86   H     H_    0.319594 0.962744 0.846518 0.153332
H87   H     H_    0.254248 0.015132 0.855455 0.192380
O38   O     O_3   0.662671 0.948604 0.101015 -0.570399
C122  C     C_3   0.661934 0.883158 0.113279 -0.256279
H88   H     H_    0.666014 0.859009 0.041905 0.160640
H89   H     H_    0.618950 0.867127 0.152071 0.180128
H90   H     H_    0.702785 0.869282 0.158361 0.200194
O39   O     O_3   0.663485 0.951278 0.898505 -0.577836
C123  C     C_3   0.700993 0.004728 0.884784 -0.285638
H91   H     H_    0.715764 0.024950 0.955829 0.185092
H92   H     H_    0.676400 0.040572 0.839899 0.141481
H93   H     H_    0.743977 0.990939 0.844594 0.202905
O40   O     O_3   0.338523 0.054712 0.101943 -0.587065
C124  C     C_3   0.340202 0.120083 0.114052 -0.273523
H94   H     H_    0.338916 0.144774 0.042363 0.191625
H95   H     H_    0.382048 0.134860 0.156413 0.174278
H96   H     H_    0.298142 0.134557 0.156015 0.183188

loop_
_geom_bond_atom_site_label_1
_geom_bond_atom_site_label_2
_geom_bond_distance
_ccdc_geom_bond_type
C68   H12   1.083051 S    
C63   C67   1.397757 A    
C122  H89   1.112782 S    
C104  H34   1.113623 S    
C8    C21   1.467686 S    
O5    Cu2   1.972181 S    
O2    C2    1.296510 A    
O21   C105  1.413378 S    
C61   O29   1.384935 S    
O35   C119  1.410464 S    
C14   C22   1.415022 A    
C2    C19   1.466114 S    
C44   C52   1.413095 A    
C13   O21   1.387630 S    
O32   C116  1.409951 S    
C74   N2    1.363629 A    
C115  H68   1.113451 S    
C108  H46   1.113040 S    
C45   C53   1.412922 A    
C106  H41   1.111034 S    
C112  H58   1.114595 S    
O10   C6    1.288580 A    
C57   C69   1.395825 A    
O37   C121  1.408492 S    
C109  H49   1.113243 S    
C7    C22   1.467330 S    
C32   C40   1.393919 A    
O12   Cu4   1.970952 S    
C54   C69   1.403476 A    
C19   C27   1.400606 A    
O20   C104  1.413540 S    
C39   C63   1.407641 A    
C53   C70   1.405880 A    
C35   C59   1.408725 A    
C38   C62   1.408314 A    
C108  H47   1.113076 S    
O6    Cu1   1.972178 S    
C75   C81   1.413287 A    
C105  H37   1.109313 S    
O14   C8    1.298753 A    
C46   C54   1.411917 A    
C77   C87   1.413122 A    
C79   H23   1.081130 S    
C122  H88   1.110902 S    
C116  H72   1.106629 S    
C29   C37   1.393233 A    
O24   C108  1.410762 S    
O13   C7    1.286421 A    
C117  H75   1.108490 S    
C20   C28   1.399256 A    
C58   O26   1.383541 S    
C77   H21   1.081008 S    
C74   H18   1.081177 S    
O22   C106  1.414073 S    
C82   C94   1.412289 A    
C16   C56   1.401570 A    
C109  H51   1.113038 S    
C74   C84   1.412500 A    
C25   C33   1.395023 A    
C77   N3    1.364618 A    
C33   C41   1.414324 A    
C41   C46   1.407459 A    
C38   C46   1.413935 A    
O19   C103  1.413824 S    
C11   C19   1.414656 A    
C111  H55   1.113090 S    
C101  H27   1.112889 S    
C35   C43   1.413998 A    
C93   C96   1.417364 A    
C118  H76   1.113122 S    
C36   C44   1.413584 A    
O13   Cu4   1.972181 S    
C16   O24   1.384799 S    
O11   Cu3   1.970952 S    
O14   Cu3   1.972178 S    
C15   C23   1.408226 A    
C124  H94   1.112937 S    
C59   C71   1.397327 A    
C107  H45   1.107721 S    
C75   H19   1.080978 S    
C110  H54   1.109513 S    
C39   C47   1.413591 A    
C24   C32   1.397785 A    
O16   Cu3   1.974412 S    
C11   C51   1.403236 A    
O26   C110  1.409447 S    
C122  H90   1.109348 S    
C25   H1    1.084169 S    
O27   C111  1.411193 S    
C104  H35   1.110906 S    
C62   O30   1.382882 S    
C120  H82   1.112761 S    
C83   C89   1.410492 A    
C102  H30   1.113850 S    
O1    Cu1   1.971556 S    
O8    Cu1   1.974412 S    
C118  H77   1.113116 S    
C42   C50   1.411368 A    
O25   C109  1.410227 S    
C87   C99   1.412718 A    
C123  H93   1.109223 S    
C88   C92   1.410058 A    
C21   C29   1.399475 A    
O3    C2    1.287036 A    
C10   C50   1.401946 A    
O33   C117  1.410392 S    
C107  H44   1.114979 S    
O29   C113  1.410405 S    
C106  H42   1.109349 S    
C9    C49   1.403840 A    
C112  H59   1.113502 S    
O36   C120  1.407524 S    
C97   C100  1.414248 A    
C5    C24   1.459108 S    
C30   H6    1.084051 S    
O8    C3    1.288953 A    
C59   O27   1.383531 S    
C78   C88   1.411629 A    
C84   C96   1.411177 A    
C73   N1    1.364168 A    
C106  H40   1.113411 S    
C30   C38   1.397421 A    
C103  H33   1.109164 S    
C71   H15   1.083404 S    
O3    Cu1   1.970952 S    
C13   C21   1.418418 A    
C78   H22   1.081009 S    
C12   C52   1.407927 A    
Cu4   N4    2.004273 S    
C114  H66   1.113408 S    
C37   C45   1.413084 A    
O31   C115  1.410950 S    
C80   H24   1.081066 S    
C96   O36   1.382222 S    
O30   C114  1.410599 S    
O40   C124  1.410527 S    
C108  H48   1.109176 S    
C34   C42   1.412593 A    
C85   C97   1.412764 A    
C121  H85   1.113239 S    
C62   C66   1.397475 A    
C9    O17   1.385149 S    
O12   C5    1.287679 A    
C32   H8    1.084055 S    
C119  H81   1.109304 S    
C58   C70   1.394982 A    
O23   C107  1.412535 S    
C99   O39   1.382149 S    
C1    C20   1.465238 S    
C103  H32   1.111379 S    
C60   C72   1.397885 A    
C33   C57   1.406702 A    
C114  H64   1.113085 S    
C44   C47   1.407326 A    
C76   C82   1.413038 A    
O38   C122  1.410367 S    
C14   O22   1.386254 S    
C3    C18   1.465574 S    
C31   H7    1.084352 S    
C63   O31   1.382533 S    
C85   C91   1.410007 A    
C97   O37   1.381493 S    
C6    C23   1.459900 S    
C26   H2    1.083620 S    
C86   C92   1.409676 A    
C22   C30   1.399744 A    
C15   C55   1.403688 A    
C26   C34   1.393575 A    
C123  H92   1.112904 S    
C119  H80   1.113090 S    
C116  H70   1.113029 S    
C94   O34   1.382186 S    
C84   C90   1.409699 A    
O2    Cu2   1.971556 S    
C78   N4    1.363495 A    
C117  H74   1.112698 S    
C102  H29   1.109182 S    
O7    Cu2   1.974409 S    
C70   H14   1.082351 S    
O18   C102  1.412302 S    
C55   C72   1.402691 A    
C14   C54   1.404861 A    
C67   H11   1.082952 S    
O4    C1    1.294254 A    
C13   C53   1.405986 A    
O15   C8    1.285654 A    
C43   C51   1.411631 A    
O7    C4    1.292921 A    
O16   C7    1.297692 A    
C79   N3    1.365174 A    
C120  H83   1.113650 S    
C64   O32   1.383030 S    
C9    C17   1.411453 A    
C118  H78   1.109235 S    
C101  H26   1.109111 S    
C16   C24   1.410470 A    
C31   C39   1.398079 A    
O34   C118  1.408926 S    
C17   C25   1.397702 A    
O39   C123  1.408870 S    
C66   H10   1.083392 S    
C102  H28   1.112304 S    
C52   C67   1.404583 A    
C65   H9    1.081755 S    
C107  H43   1.111928 S    
O9    Cu3   1.971556 S    
C27   C35   1.396200 A    
C89   C90   1.417561 A    
C112  H60   1.108546 S    
O10   Cu4   1.971556 S    
C28   C36   1.395665 A    
C43   C48   1.405896 A    
C86   C98   1.412506 A    
C109  H50   1.107650 S    
C28   H4    1.084270 S    
C42   C45   1.405558 A    
C73   H17   1.081186 S    
C101  H25   1.113174 S    
O1    C1    1.288796 A    
C73   C83   1.412597 A    
Cu2   N2    2.004273 S    
C121  H87   1.106158 S    
C81   C89   1.410500 A    
C123  H91   1.113149 S    
Cu1   N1    2.004273 S    
O4    Cu2   1.970952 S    
C94   C95   1.414129 A    
O5    C3    1.294296 A    
Cu3   N3    2.004273 S    
C48   C56   1.411515 A    
C113  H63   1.108937 S    
O6    C4    1.287868 A    
O11   C6    1.291723 A    
C113  H62   1.113832 S    
C104  H36   1.109575 S    
C36   C60   1.408152 A    
C75   N1    1.365193 A    
C41   C49   1.412614 A    
C69   H13   1.082968 S    
C76   H20   1.081272 S    
C87   C91   1.410255 A    
C114  H65   1.107287 S    
Cu1   Cu2   2.667617 S    
C57   O25   1.383471 S    
C124  H95   1.113558 S    
O17   C101  1.410841 S    
C103  H31   1.113205 S    
C76   N2    1.364255 A    
C4    C17   1.461122 S    
C40   C64   1.406164 A    
C15   O23   1.384154 S    
O9    C5    1.292171 A    
O15   Cu4   1.974409 S    
C60   O28   1.383833 S    
C64   C68   1.394955 A    
C105  H38   1.114680 S    
C23   C31   1.398742 A    
C111  H57   1.107168 S    
C79   C85   1.413304 A    
C12   O20   1.385891 S    
C119  H79   1.112183 S    
C116  H71   1.113246 S    
C34   C58   1.406063 A    
C95   O35   1.383019 S    
C115  H67   1.113489 S    
C50   C65   1.401803 A    
C37   C61   1.408079 A    
C12   C20   1.413176 A    
C88   C100  1.411205 A    
C117  H73   1.110342 S    
C124  H96   1.109421 S    
C93   O33   1.384231 S    
C18   C26   1.399273 A    
C98   C99   1.414109 A    
C56   C71   1.400843 A    
C29   H5    1.083607 S    
C110  H52   1.112768 S    
C80   N4    1.364499 A    
C10   O18   1.384320 S    
C47   C55   1.411627 A    
O28   C112  1.411255 S    
C40   C48   1.413840 A    
C111  H56   1.112476 S    
C113  H61   1.111835 S    
C100  O40   1.383381 S    
C120  H84   1.109012 S    
C83   C95   1.412777 A    
Cu3   Cu4   2.667617 S    
C27   H3    1.083980 S    
C51   C68   1.403130 A    
C11   O19   1.386181 S    
C80   C86   1.412511 A    
C10   C18   1.413260 A    
C81   C93   1.412971 A    
C98   O38   1.382929 S    
C72   H16   1.083306 S    
C121  H86   1.113257 S    
C82   C90   1.410342 A    
C115  H69   1.107707 S    
C61   C65   1.397005 A    
C49   C66   1.402524 A    
C91   C92   1.417772 A    
C110  H53   1.113832 S    
C105  H39   1.107296 S    
