data_mof_unit_30708.cif
_audit_creation_date              2013-03-05T15:51:50-0500
_audit_creation_method            fapswitch 2.2
_symmetry_space_group_name_H-M    P1
_symmetry_Int_Tables_number       1
_space_group_crystal_system       triclinic
_cell_length_a                    11.004304
_cell_length_b                    11.024327
_cell_length_c                    18.803184
_cell_angle_alpha                 90.402858
_cell_angle_beta                  90.110272
_cell_angle_gamma                 60.439888
_cell_volume                      1984.1445721

loop_
_atom_site_label
_atom_site_type_symbol
_atom_site_description
_atom_site_fract_x
_atom_site_fract_y
_atom_site_fract_z
_atom_type_partial_charge
O1    O     O_R   0.507380 0.255700 0.581440 -0.518881
O2    O     O_R   0.280320 0.527350 0.578930 -0.508373
C1    C     C_R   0.237308 0.645912 0.609800 0.527436
O3    O     O_R   0.260510 0.739590 0.584590 -0.524125
O4    O     O_R   0.532300 0.695080 0.573820 -0.498382
C2    C     C_R   0.656541 0.625461 0.598992 0.523905
O5    O     O_R   0.744840 0.503500 0.576370 -0.504395
O6    O     O_R   0.699120 0.276560 0.571960 -0.494451
C3    C     C_R   0.628861 0.227062 0.601949 0.539799
O7    O     O_R   0.498940 0.256500 0.419860 -0.520371
O8    O     O_R   0.272500 0.528080 0.429150 -0.514169
C4    C     C_R   0.219595 0.650629 0.402436 0.540126
O9    O     O_R   0.252060 0.740380 0.423010 -0.520218
O10   O     O_R   0.524480 0.695810 0.424040 -0.506321
C5    C     C_R   0.640513 0.620238 0.391182 0.546414
O11   O     O_R   0.736390 0.504290 0.414790 -0.520117
O12   O     O_R   0.691300 0.277290 0.422170 -0.508394
C6    C     C_R   0.617166 0.226476 0.396371 0.548014
Cr1   Cr    Cr6+3 0.392960 0.397920 0.502240 1.020704
Cr2   Cr    Cr6+3 0.398340 0.708480 0.501250 1.040728
Cr3   Cr    Cr6+3 0.708670 0.393570 0.496460 1.028967
O13   O     O_3   0.499990 0.499990 0.499980 -0.261841
C7    C     C_3   0.587841 0.826215 0.780316 0.038155
H1    H     H_    0.631836 0.896180 0.789617 0.115705
C8    C     C_3   0.579804 0.812323 0.697903 -0.143202
H2    H     H_    0.623725 0.873684 0.672812 0.116169
H3    H     H_    0.869350 0.719271 0.781076 0.062693
H4    H     H_    0.846386 0.699490 0.664131 0.059608
C9    C     C_3   0.839876 0.637109 0.772045 -0.221245
C10   C     C_3   0.647394 0.574684 0.798662 0.076932
C11   C     C_3   0.698517 0.680581 0.811817 0.000860
H5    H     H_    0.539517 0.616903 0.818762 0.172698
C12   C     C_3   0.675231 0.654311 0.674392 -0.029891
C13   C     C_3   0.828067 0.620350 0.691233 -0.099063
C14   C     C_3   0.639779 0.555249 0.718424 -0.209315
H6    H     H_    0.533008 0.574884 0.704743 0.074923
H7    H     H_    0.711574 0.445062 0.703656 0.213825
H8    H     H_    0.927338 0.541013 0.794614 0.227538
C15   C     C_R   0.682306 0.152133 0.822222 0.032891
C16   C     C_R   0.783234 0.164769 0.783572 0.114360
C17   C     C_R   0.773808 0.179391 0.709512 0.032169
C18   C     C_R   0.574113 0.146255 0.710642 -0.198040
C19   C     C_R   0.572295 0.152874 0.783726 -0.195525
C20   C     C_3   0.933646 0.063798 0.781270 -0.236155
C21   C     C_3   0.925446 0.080473 0.701447 -0.271169
C22   C     C_R   0.669908 0.167840 0.672391 -0.015938
H9    H     H_    0.490538 0.138593 0.684414 0.207024
H10   H     H_    0.488863 0.146036 0.809783 0.211612
H11   H     H_    0.948890 0.961903 0.799174 0.121641
H12   H     H_    0.998684 0.102083 0.807763 0.224204
H13   H     H_    0.983352 0.131500 0.680796 0.220040
H14   H     H_    0.943873 0.985533 0.671523 0.122540
C23   C     C_R   0.176805 0.670224 0.834064 0.019459
C24   C     C_R   0.163554 0.568733 0.795179 -0.000313
C25   C     C_R   0.174111 0.563457 0.721027 -0.017223
C26   C     C_R   0.183873 0.774757 0.722796 -0.186831
C27   C     C_R   0.193613 0.769741 0.796405 -0.147045
C28   C     C_3   0.257665 0.415803 0.800756 -0.254414
C29   C     C_3   0.272149 0.411453 0.720735 -0.246873
C30   C     C_R   0.185708 0.666036 0.683313 -0.004762
H15   H     H_    0.178015 0.863761 0.696648 0.152925
H16   H     H_    0.195604 0.855302 0.823669 0.210139
H17   H     H_    0.201742 0.361725 0.820359 0.197715
H18   H     H_    0.354850 0.391156 0.830034 0.157678
H19   H     H_    0.375781 0.391938 0.702547 0.168405
H20   H     H_    0.230381 0.350098 0.693574 0.193570
C31   C     C_R   0.647436 0.674692 0.166875 0.006332
C32   C     C_R   0.709409 0.543837 0.197898 0.063431
C33   C     C_R   0.707124 0.528108 0.270137 -0.006350
C34   C     C_R   0.565393 0.776670 0.284842 -0.179236
C35   C     C_R   0.565290 0.791769 0.210598 -0.174766
C36   C     C_3   0.853136 0.422143 0.190195 0.097787
C37   C     C_3   0.850194 0.402117 0.269826 -0.260822
C38   C     C_R   0.646302 0.644371 0.315556 0.011040
H21   H     H_    0.506970 0.868175 0.318039 0.133642
H22   H     H_    0.512124 0.895719 0.188574 0.149504
H23   H     H_    0.933115 0.448477 0.174052 0.128397
H24   H     H_    0.848487 0.306548 0.284695 0.154334
H25   H     H_    0.927724 0.419895 0.299373 0.109077
C39   C     C_R   0.667199 0.123874 0.182049 0.043529
C40   C     C_R   0.552367 0.134240 0.217747 -0.002499
C41   C     C_R   0.543095 0.150238 0.290137 0.022404
C42   C     C_R   0.777934 0.112586 0.295873 -0.175622
C43   C     C_R   0.785161 0.100174 0.222089 -0.132470
C44   C     C_3   0.401252 0.233286 0.205990 -0.270242
C45   C     C_3   0.389809 0.253437 0.285783 -0.259176
C46   C     C_R   0.650524 0.153787 0.329174 0.025073
H26   H     H_    0.866482 0.103460 0.325531 0.123276
H27   H     H_    0.881204 0.076795 0.196263 0.187053
H28   H     H_    0.344912 0.180079 0.185208 0.154201
H29   H     H_    0.382264 0.328231 0.176551 0.164490
H30   H     H_    0.365897 0.359942 0.302125 0.168232
H31   H     H_    0.324481 0.214522 0.311110 0.134391
C47   C     C_R   0.063981 0.721641 0.194667 0.019082
C48   C     C_R   0.078444 0.822893 0.232289 0.003115
C49   C     C_R   0.110773 0.807717 0.303000 0.022884
C50   C     C_R   0.103379 0.592471 0.304540 -0.170812
C51   C     C_R   0.070289 0.608830 0.231998 -0.165257
C52   C     C_3   0.171785 0.882699 0.216807 -0.261210
C53   C     C_3   0.204845 0.869451 0.294763 -0.268730
C54   C     C_R   0.135310 0.686863 0.338747 0.022257
H32   H     H_    0.118269 0.499491 0.331305 0.122419
H33   H     H_    0.063112 0.527576 0.204160 0.121573
H34   H     H_    0.115266 0.992560 0.199448 0.185381
H35   H     H_    0.263562 0.812591 0.183350 0.174100
H36   H     H_    0.316151 0.793627 0.305345 0.174420
H37   H     H_    0.163415 0.971664 0.322568 0.135314
O14   O     O_R   0.089400 0.825690 0.930570 -0.502606
O15   O     O_R   0.818460 0.054440 0.929850 -0.468400
C55   C     C_R   0.702429 0.099094 0.895165 0.574796
O16   O     O_R   0.606060 0.077150 0.915510 -0.520297
O17   O     O_R   0.646550 0.806680 0.917570 -0.458900
C56   C     C_R   0.724280 0.689873 0.888058 0.604899
O18   O     O_R   0.837170 0.593410 0.915250 -0.462051
O19   O     O_R   0.065200 0.635530 0.931570 -0.504251
C57   C     C_R   0.117580 0.706580 0.905635 0.550573
O20   O     O_R   0.068260 0.828890 0.091840 -0.498411
O21   O     O_R   0.798870 0.057410 0.079340 -0.464046
C58   C     C_R   0.679304 0.097059 0.106612 0.589546
O22   O     O_R   0.584930 0.080350 0.076780 -0.521243
O23   O     O_R   0.626960 0.809650 0.067060 -0.504639
C59   C     C_R   0.695787 0.691653 0.097629 0.561833
O24   O     O_R   0.816040 0.596610 0.076510 -0.498321
O25   O     O_R   0.045610 0.638500 0.081060 -0.506514
C60   C     C_R   0.033868 0.743162 0.119275 0.533969
Cr4   Cr    Cr6+3 0.937650 0.938540 0.007610 1.120851
Cr5   Cr    Cr6+3 0.625330 0.937370 0.994520 1.089623
Cr6   Cr    Cr6+3 0.937940 0.625230 0.001190 1.080289
O26   O     O_3   0.833640 0.833710 0.001100 -0.331266
C61   C     C_2   0.944168 0.481524 0.664210 0.256623
H38   H     H_    0.005660 0.479315 0.618633 0.108070
O27   O     O_2   0.968484 0.371706 0.691364 -0.486000
N1    N     N_R   0.448261 0.893844 0.815534 0.059302
O28   O     O_R   0.417796 0.835470 0.867187 -0.356739
O29   O     O_R   0.358136 0.022729 0.800804 -0.352613
N2    N     N_R   0.856826 0.311139 0.145944 0.072439
O30   O     O_R   0.748099 0.334346 0.108305 -0.303277
O31   O     O_R   0.978028 0.208147 0.127578 -0.376897
C62   C     C_2   0.431839 0.878126 0.672789 0.334300
H39   H     H_    0.378256 0.821559 0.681203 0.135001
O32   O     O_2   0.376217 0.989045 0.641262 -0.503360
N3    N     N_R   0.732439 0.442915 0.836094 0.067146
O33   O     O_R   0.865765 0.367654 0.824193 -0.311490
O34   O     O_R   0.678208 0.411073 0.889292 -0.322013

loop_
_geom_bond_atom_site_label_1
_geom_bond_atom_site_label_2
_geom_bond_distance
_ccdc_geom_bond_type
C20   H11   1.105678 S    
C42   C46   1.391119 A    
O11   Cr3   2.082479 S    
C25   C29   1.479249 S    
H3    C9    1.114435 S    
C48   C49   1.365636 A    
C39   C43   1.408717 A    
Cr6   O26   1.999256 S    
C40   C41   1.368832 A    
C44   H29   1.112468 S    
O22   Cr5   2.086052 S    
C27   H16   1.080077 S    
O4    Cr2   1.958856 S    
C23   C24   1.398856 A    
O8    Cr1   1.961863 S    
C10   C14   1.530314 S    
O4    C2    1.284354 A    
Cr3   O13   1.998855 S    
C14   H7    1.107274 S    
O23   Cr5   1.960945 S    
C29   H20   1.109309 S    
C44   C45   1.511526 S    
C10   C11   1.544032 S    
C39   C40   1.385685 A    
C48   C52   1.498850 S    
C36   N2    1.458877 S    
C21   H13   1.109493 S    
C5    O11   1.272652 A    
C26   C27   1.387412 A    
O12   C6    1.288499 A    
C18   C22   1.392131 A    
O21   C58   1.271688 A    
O17   Cr5   1.965683 S    
C55   O16   1.259157 A    
C15   C55   1.467808 S    
C14   H6    1.114537 S    
O6    C3    1.278984 A    
C9    H8    1.107897 S    
C34   C38   1.407857 A    
C17   C22   1.396414 A    
C33   C37   1.500083 S    
C34   C35   1.407008 A    
C19   H10   1.076656 S    
C50   H32   1.082614 S    
C23   C57   1.461007 S    
O25   Cr6   1.960039 S    
C1    C30   1.468595 S    
C52   H34   1.105339 S    
C39   C58   1.439836 S    
H4    C13   1.114316 S    
C3    C22   1.450359 S    
C25   C30   1.397152 A    
O17   C56   1.266015 A    
C50   C51   1.400860 A    
C28   H18   1.110742 S    
C52   H35   1.112900 S    
C62   H39   1.061205 S    
O1    Cr1   2.083063 S    
C7    N1    1.490202 S    
C31   C32   1.387809 A    
O10   Cr2   1.966621 S    
Cr1   O13   1.990905 S    
O1    C3    1.272300 A    
N2    O31   1.299763 A    
C15   C16   1.392222 A    
C23   C27   1.396747 A    
C32   C33   1.372396 A    
C15   C19   1.405883 A    
Cr4   O26   1.990774 S    
C28   C29   1.511308 S    
O5    Cr3   2.081553 S    
C37   H24   1.101017 S    
C9    C13   1.542389 S    
O12   Cr3   1.961294 S    
O19   Cr6   1.963100 S    
C26   C30   1.397067 A    
C7    C11   1.578964 S    
C61   O27   1.219232 D    
Cr5   O26   1.998031 S    
C36   H23   1.097892 S    
C45   H31   1.111811 S    
O18   Cr6   2.081572 S    
C42   C43   1.391716 A    
O7    Cr1   2.090261 S    
C32   C36   1.492284 S    
C12   C13   1.564424 S    
C37   H25   1.112026 S    
C33   C38   1.400193 A    
C26   H15   1.073735 S    
C58   O22   1.269708 A    
O23   C59   1.277870 A    
C16   C17   1.400745 A    
Cr2   O13   1.999326 S    
O16   Cr5   2.082131 S    
N1    O28   1.301058 A    
N3    O34   1.301496 A    
C43   H27   1.072701 S    
C1    O3    1.274345 A    
C31   C59   1.455206 S    
C20   C21   1.510534 S    
C56   O18   1.279575 A    
C24   C28   1.485014 S    
C47   C60   1.449505 S    
C20   H12   1.110059 S    
C28   H17   1.111739 S    
C24   C25   1.397766 A    
C53   H37   1.112054 S    
C17   C21   1.483197 S    
O9    Cr2   2.078165 S    
C8    C62   1.495622 S    
O2    Cr1   1.970960 S    
O10   C5    1.285459 A    
C36   C37   1.517779 S    
O6    Cr3   1.962268 S    
C44   H28   1.111664 S    
C2    C12   1.486805 S    
C2    O5    1.279595 A    
C53   H36   1.108950 S    
C6    C46   1.438995 S    
C10   N3    1.466954 S    
C52   C53   1.500275 S    
C21   H14   1.111727 S    
O14   C57   1.276862 A    
C61   H38   1.085643 S    
C8    H2    1.114341 S    
C4    C54   1.445967 S    
C9    C11   1.572439 S    
C51   H33   1.070363 S    
C41   C45   1.501224 S    
O15   C55   1.295811 A    
C29   H19   1.105504 S    
C10   H5    1.105806 S    
C62   O32   1.221323 D    
O19   C57   1.278860 A    
C35   H22   1.082256 S    
O7    C6    1.253984 A    
C49   C53   1.502017 S    
C12   C14   1.569931 S    
O2    C1    1.284267 A    
C31   C35   1.412688 A    
C18   H9    1.081894 S    
C7    C8    1.562713 S    
C47   C48   1.391222 A    
C50   C54   1.403764 A    
C7    H1    1.107302 S    
O3    Cr2   2.088559 S    
O15   Cr4   1.963690 S    
C16   C20   1.470468 S    
C5    C38   1.455787 S    
C4    O9    1.264571 A    
C13   C61   1.514950 S    
C18   C19   1.375294 A    
O24   Cr6   2.082296 S    
C34   H21   1.083229 S    
N1    O29   1.301260 A    
C47   C51   1.403980 A    
N3    O33   1.299463 A    
N2    O30   1.301962 A    
O20   Cr4   2.083098 S    
C45   H30   1.110263 S    
O21   Cr4   1.969049 S    
O14   Cr4   2.090197 S    
C59   O24   1.278589 A    
C49   C54   1.398844 A    
C42   H26   1.082842 S    
O20   C60   1.289600 A    
C11   C56   1.473426 S    
C40   C44   1.488912 S    
C41   C46   1.407030 A    
O8    C4    1.284087 A    
C8    C12   1.587049 S    
O25   C60   1.306117 A    
