data_mof_unit_27676.cif
_audit_creation_date              2012-10-26T18:54:55-0400
_audit_creation_method            fapswitch 2.2
_symmetry_space_group_name_H-M    P1
_symmetry_Int_Tables_number       1
_space_group_crystal_system       triclinic
_cell_length_a                    10.785229
_cell_length_b                    9.605417
_cell_length_c                    10.874056
_cell_angle_alpha                 89.960943
_cell_angle_beta                  92.25077
_cell_angle_gamma                 90.068662
_cell_volume                      1125.64533652

loop_
_atom_site_label
_atom_site_type_symbol
_atom_type_description
_atom_site_fract_x
_atom_site_fract_y
_atom_site_fract_z
_atom_type_partial_charge
C1    C     C_R   0.262721 0.499879 0.503001 0.521279
C2    C     C_R   0.498394 0.620253 0.937595 -0.031207
C3    C     C_R   0.500057 0.498282 0.130160 0.003553
C4    C     C_R   0.501734 0.498175 0.869819 0.002896
C5    C     C_R   0.504518 0.371430 0.064804 -0.140012
C6    C     C_R   0.505183 0.371373 0.935725 -0.136300
C7    C     C_3   0.492652 0.775602 0.928030 0.135425
C8    C     C_3   0.489568 0.775655 0.070136 0.140637
C9    C     C_R   0.061280 0.409153 0.433243 -0.167630
C10   C     C_R   0.933221 0.409272 0.433205 -0.166003
C11   C     C_R   0.871720 0.499192 0.511124 -0.032246
C12   C     C_R   0.737539 0.499936 0.503424 0.516975
C13   C     C_R   0.129232 0.499246 0.510949 -0.026022
C14   C     C_R   0.939291 0.586419 0.594560 0.297005
C15   C     C_R   0.068541 0.586967 0.594166 0.297495
C16   C     C_R   0.429151 0.072095 0.414102 0.317320
C17   C     C_R   0.570461 0.072245 0.586175 0.315924
C18   C     C_R   0.426724 0.923301 0.417148 0.402389
C19   C     C_R   0.572654 0.923483 0.583356 0.395144
C20   C     C_R   0.499531 0.499909 0.262853 0.552222
C21   C     C_R   0.500776 0.499841 0.737130 0.530839
C22   C     C_R   0.496952 0.620314 0.061824 -0.027810
Cu1   Cu    Cu3+1 0.500000 0.640660 0.500000 1.123425
Cu2   Cu    Cu3+1 0.500000 0.359340 0.500000 0.977364
H1    H     H_    0.507319 0.272458 0.112618 0.190489
H2    H     H_    0.215961 0.632595 0.695936 0.329666
H3    H     H_    0.337596 0.228484 0.345964 0.374567
H4    H     H_    0.662576 0.228453 0.654158 0.378417
H5    H     H_    0.292451 0.909139 0.291399 0.345385
H6    H     H_    0.704549 0.909531 0.711634 0.361397
H7    H     H_    0.508177 0.272373 0.888334 0.192979
H8    H     H_    0.577138 0.822560 0.890173 0.198370
H9    H     H_    0.401404 0.813307 0.107489 0.195654
H10   H     H_    0.107472 0.341047 0.370151 0.150858
H11   H     H_    0.881790 0.341294 0.370070 0.158864
H12   H     H_    0.311059 0.773013 0.903498 0.336426
H13   H     H_    0.670493 0.792990 0.094742 0.327925
H14   H     H_    0.801501 0.627070 0.699098 0.333871
N1    N     N_R   0.500000 0.852070 0.500000 -0.215353
N2    N     N_R   0.500000 0.147940 0.500000 -0.280531
O1    O     O_R   0.319640 0.618740 0.499990 -0.450082
O2    O     O_3   0.595335 0.836093 0.128472 -0.665770
O3    O     O_3   0.883410 0.667391 0.681529 -0.617779
O4    O     O_3   0.131360 0.669824 0.679972 -0.617482
O5    O     O_3   0.361216 0.135266 0.319990 -0.721635
O6    O     O_3   0.637995 0.135583 0.680487 -0.718001
O7    O     O_3   0.349863 0.846789 0.338344 -0.650108
O8    O     O_3   0.648176 0.847166 0.663389 -0.649822
O9    O     O_R   0.680360 0.618740 0.500010 -0.451279
O10   O     O_R   0.319620 0.381170 0.499990 -0.533660
O11   O     O_R   0.680380 0.381170 0.500010 -0.537295
O12   O     O_R   0.499990 0.618810 0.319660 -0.431705
O13   O     O_R   0.500010 0.618810 0.680340 -0.447799
O14   O     O_R   0.499960 0.381240 0.319650 -0.517240
O15   O     O_R   0.500040 0.381240 0.680350 -0.514597
O16   O     O_3   0.382209 0.823947 0.869348 -0.657388

loop_
_geom_bond_atom_site_label_1
_geom_bond_atom_site_label_2
_ccdc_geom_bond_type
C16   O5    S    
C2    C22   A    
C8    C22   S    
C18   N1    A    
C12   O9    A    
C10   H11   S    
H12   O16   S    
C1    O10   A    
C2    C4    A    
C2    C7    S    
Cu1   O1    S    
C11   C12   S    
C18   O7    S    
H3    O5    S    
Cu2   O11   S    
C6    H7    S    
H2    O4    S    
C7    C8    S    
C20   O12   A    
C3    C20   S    
Cu2   O15   S    
C21   O13   A    
C4    C21   S    
H4    O6    S    
Cu1   O12   S    
C9    H10   S    
C19   N1    A    
C7    O16   S    
H5    O7    S    
C5    H1    S    
C16   C18   A    
C17   C19   A    
C16   N2    A    
C15   O4    S    
Cu1   O13   S    
C8    H9    S    
C13   C15   A    
Cu2   O10   S    
C5    C6    A    
C11   C14   A    
Cu1   N1    S    
Cu1   O9    S    
C4    C6    A    
C1    C13   S    
C10   C11   A    
Cu1   Cu2   S    
Cu2   O14   S    
H14   O3    S    
C12   O11   A    
C17   O6    S    
C20   O14   A    
C9    C10   A    
H6    O8    S    
H13   O2    S    
C21   O15   A    
C9    C13   A    
C14   C15   A    
C3    C22   A    
C7    H8    S    
Cu2   N2    S    
C19   O8    S    
C1    O1    A    
C8    O2    S    
C14   O3    S    
C3    C5    A    
C17   N2    A    
