data_mof_unit_7163.cif
_audit_creation_date              2012-12-10T17:15:16-0500
_audit_creation_method            fapswitch 2.2
_symmetry_space_group_name_H-M    P1
_symmetry_Int_Tables_number       1
_space_group_crystal_system       triclinic
_cell_length_a                    10.177512
_cell_length_b                    10.641948
_cell_length_c                    12.780332
_cell_angle_alpha                 91.582116
_cell_angle_beta                  91.728648
_cell_angle_gamma                 94.262145
_cell_volume                      1379.14405591

loop_
_atom_site_label
_atom_site_type_symbol
_atom_type_description
_atom_site_fract_x
_atom_site_fract_y
_atom_site_fract_z
_atom_type_partial_charge
C1    C     C_R   0.445744 0.266540 0.493847 0.752696
C2    C     C_R   0.657469 0.587564 0.045664 0.493254
C3    C     C_R   0.349925 0.424179 0.846740 -0.311779
C4    C     C_R   0.651247 0.569842 0.152581 -0.306837
C5    C     C_R   0.555046 0.554982 0.873445 -0.262315
C6    C     C_R   0.444486 0.441097 0.126562 -0.270968
C7    C     C_R   0.553541 0.534849 0.979542 0.003908
C8    C     C_R   0.447370 0.458790 0.020045 0.021188
C9    C     C_2   0.414930 0.131200 0.495977 0.307970
C10   C     C_2   0.578517 0.869231 0.530270 0.289886
C11   C     C_2   0.486700 0.068300 0.563256 -0.203250
C12   C     C_R   0.553474 0.733936 0.510047 0.772125
C13   C     C_2   0.476109 0.932811 0.559241 -0.182096
C14   C     C_3   0.129413 0.378024 0.997784 0.059798
C15   C     C_3   0.028514 0.289027 0.049241 -0.823579
C16   C     C_3   0.864344 0.596557 0.983205 0.055334
C17   C     C_3   0.966372 0.680132 0.927708 -0.804629
C18   C     C_3   0.746882 0.921261 0.421383 0.090481
C19   C     C_3   0.870312 0.009256 0.411269 -0.731933
C20   C     C_3   0.322035 0.114428 0.328304 0.114114
C21   C     C_3   0.242895 0.022862 0.253286 -0.816859
C22   C     C_3   0.816466 0.330130 0.682283 0.242477
C23   C     C_2   0.071679 0.490359 0.508636 0.058743
C24   C     C_3   0.888001 0.235842 0.745753 -0.906175
C25   C     C_3   0.170764 0.645687 0.304605 0.258728
C26   C     C_3   0.073310 0.703901 0.231441 -0.955918
C27   C     C_2   0.929049 0.515576 0.496723 0.061821
C28   C     C_R   0.474019 0.502468 0.698264 0.900387
C29   C     C_R   0.525738 0.496579 0.301687 0.888115
C30   C     C_R   0.543714 0.499005 0.191806 -0.123834
C31   C     C_R   0.455833 0.497865 0.808036 -0.121279
C32   C     C_R   0.344482 0.404511 0.953699 0.491067
H1    H     H_    0.362836 0.386148 0.160009 0.183597
H2    H     H_    0.142482 0.467083 0.046289 0.134115
H3    H     H_    0.013468 0.199034 0.002838 0.269398
H4    H     H_    0.063551 0.269118 0.129849 0.252311
H5    H     H_    0.932844 0.332317 0.053441 0.195525
H6    H     H_    0.833318 0.514094 0.930043 0.129124
H7    H     H_    0.910825 0.562629 0.055919 0.146536
H8    H     H_    0.052954 0.626808 0.909636 0.191360
H9    H     H_    0.922899 0.712458 0.853297 0.261989
H10   H     H_    0.999573 0.763624 0.978364 0.265720
H11   H     H_    0.670662 0.950183 0.364129 0.129288
H12   H     H_    0.635566 0.611713 0.840260 0.197361
H13   H     H_    0.771797 0.823642 0.401286 0.150773
H14   H     H_    0.950349 0.980623 0.464491 0.274429
H15   H     H_    0.903587 0.005066 0.329405 0.187486
H16   H     H_    0.849026 0.107686 0.431717 0.275800
H17   H     H_    0.425059 0.125217 0.300544 0.118948
H18   H     H_    0.277105 0.206330 0.324839 0.161222
H19   H     H_    0.138556 0.013818 0.276442 0.252240
H20   H     H_    0.247038 0.058476 0.172482 0.227765
H21   H     H_    0.284187 0.929255 0.254538 0.255276
H22   H     H_    0.712136 0.293454 0.671541 0.178610
H23   H     H_    0.726350 0.616439 0.205087 0.156490
H24   H     H_    0.823566 0.421445 0.727847 0.128646
H25   H     H_    0.993853 0.268520 0.756790 0.255585
H26   H     H_    0.843696 0.226458 0.823779 0.214878
H27   H     H_    0.879621 0.142237 0.704411 0.290654
H28   H     H_    0.178651 0.546932 0.275008 0.134713
H29   H     H_    0.268035 0.699990 0.301882 0.169747
H30   H     H_    0.055629 0.800376 0.259705 0.278038
H31   H     H_    0.112531 0.707993 0.151395 0.222059
H32   H     H_    0.977969 0.645883 0.228930 0.250329
H33   H     H_    0.275974 0.376626 0.793722 0.160702
H34   H     H_    0.377707 0.886744 0.565192 0.194432
H35   H     H_    0.565183 0.115737 0.612512 0.162739
H36   H     H_    0.900161 0.593523 0.450458 0.145638
H37   H     H_    0.101061 0.416581 0.559338 0.148073
H38   H     H_    0.090363 0.398367 0.918247 0.145221
N1    N     N_2   0.162330 0.550370 0.457540 0.035129
N2    N     N_2   0.837670 0.449630 0.542460 0.032914
O1    O     O_R   0.567930 0.307680 0.508550 -0.613899
O2    O     O_3   0.757095 0.667547 0.007736 -0.607896
O3    O     O_3   0.703679 0.929888 0.525140 -0.594586
O4    O     O_3   0.317618 0.067721 0.430954 -0.596054
O5    O     O_3   0.875277 0.342486 0.584658 -0.565205
O6    O     O_3   0.124505 0.651957 0.407049 -0.554314
O7    O     O_R   0.432070 0.692320 0.491450 -0.609033
O8    O     O_R   0.351090 0.340020 0.481290 -0.619444
O9    O     O_R   0.648910 0.659980 0.518710 -0.606875
O10   O     O_R   0.590490 0.486480 0.665020 -0.653642
O11   O     O_R   0.409510 0.513520 0.334980 -0.654950
O12   O     O_R   0.373660 0.518820 0.637760 -0.614286
O13   O     O_R   0.626340 0.481180 0.362240 -0.613883
O14   O     O_3   0.249000 0.319700 0.991536 -0.614916
Zn1   Zn    Zn3+2 0.644780 0.478400 0.518200 0.956677
Zn2   Zn    Zn3+2 0.355220 0.521600 0.481800 0.956808

loop_
_geom_bond_atom_site_label_1
_geom_bond_atom_site_label_2
_ccdc_geom_bond_type
C18   O3    S    
C28   O12   A    
C23   H37   S    
C2    C7    A    
C19   H14   S    
C7    C8    A    
C22   H22   S    
C20   H17   S    
C16   O2    S    
C29   O11   A    
C19   H15   S    
O10   Zn1   S    
C12   O7    A    
C20   O4    S    
C18   C19   S    
C26   H32   S    
C17   H10   S    
O1    Zn1   S    
C20   H18   S    
C27   H36   S    
N2    O5    S    
C15   H5    S    
C24   H25   S    
C25   H28   S    
C23   C27   S    
C29   O13   A    
C2    O2    S    
O11   Zn2   S    
C14   H38   S    
C3    H33   S    
C15   H3    S    
O7    Zn2   S    
C11   H35   S    
C13   H34   S    
O13   Zn1   S    
C28   O10   A    
C25   O6    S    
C8    C32   A    
C23   N1    D    
C1    C9    S    
C14   O14   S    
C5    C7    A    
C19   H16   S    
C16   C17   S    
C6    C8    A    
C25   C26   S    
C17   H8    S    
C2    C4    A    
C26   H31   S    
C29   C30   S    
C10   O3    S    
C32   O14   S    
C25   H29   S    
C3    C31   A    
C9    C11   D    
O9    Zn1   S    
C10   C12   S    
C9    O4    S    
C5    H12   S    
C4    H23   S    
C22   C24   S    
C18   H13   S    
C15   H4    S    
C21   H19   S    
N2    Zn1   S    
C6    C30   A    
C28   C31   S    
O12   Zn2   S    
C22   O5    S    
C10   C13   D    
C14   H2    S    
C22   H24   S    
C6    H1    S    
C1    O1    A    
C26   H30   S    
O8    Zn2   S    
C18   H11   S    
C21   H21   S    
C11   C13   S    
C24   H27   S    
C12   O9    A    
N1    O6    S    
C3    C32   A    
C17   H9    S    
C16   H7    S    
N1    Zn2   S    
C20   C21   S    
C24   H26   S    
C1    O8    A    
C14   C15   S    
C21   H20   S    
C4    C30   A    
C27   N2    D    
C16   H6    S    
C5    C31   A    
