data_mof_unit_21579.cif
_audit_creation_date              2012-12-10T19:27:33-0500
_audit_creation_method            fapswitch 2.2
_symmetry_space_group_name_H-M    P1
_symmetry_Int_Tables_number       1
_space_group_crystal_system       triclinic
_cell_length_a                    23.40568
_cell_length_b                    10.468504
_cell_length_c                    9.783812
_cell_angle_alpha                 89.498874
_cell_angle_beta                  89.601084
_cell_angle_gamma                 90.230815
_cell_volume                      2397.08379412

loop_
_atom_site_label
_atom_site_type_symbol
_atom_type_description
_atom_site_fract_x
_atom_site_fract_y
_atom_site_fract_z
_atom_type_partial_charge
C1    C     C_R   0.499987 0.257626 0.500622 0.916896
C2    C     C_R   0.703414 0.560715 0.406120 -0.195601
C3    C     C_R   0.240180 0.419496 0.597656 -0.059191
C4    C     C_R   0.762628 0.561271 0.408950 -0.059245
C5    C     C_R   0.208855 0.494635 0.507012 0.261352
C6    C     C_R   0.791127 0.488723 0.507374 0.261679
C7    C     C_3   0.502027 0.038833 0.630578 -0.102015
C8    C     C_3   0.497902 0.961166 0.369411 -0.104757
C9    C     C_3   0.547949 0.957176 0.559267 -0.175675
C10   C     C_3   0.451979 0.042826 0.440723 -0.178965
C11   C     C_3   0.499883 0.877510 0.498123 0.006341
C12   C     C_R   0.499957 0.742373 0.499375 0.916676
C13   C     C_3   0.500045 0.122489 0.501869 0.009121
C14   C     C_3   0.453945 0.956441 0.569269 -0.155899
C15   C     C_3   0.545983 0.043558 0.430723 -0.152609
C16   C     C_R   0.389686 0.502795 0.500331 0.905117
C17   C     C_R   0.610303 0.495948 0.499785 0.902467
C18   C     C_3   0.503030 0.384540 0.049897 -0.164227
C19   C     C_3   0.496979 0.615490 0.950117 -0.163764
C20   C     C_3   0.546165 0.448262 0.950636 -0.098174
C21   C     C_3   0.453820 0.551745 0.049385 -0.098094
C22   C     C_3   0.457356 0.437039 0.954141 0.066050
C23   C     C_R   0.236589 0.575236 0.412859 -0.116359
C24   C     C_3   0.542651 0.562960 0.045880 0.065457
C25   C     C_R   0.879770 0.599632 0.546696 0.542286
C26   C     C_R   0.120041 0.381477 0.480535 0.537065
C27   C     C_R   0.880566 0.379476 0.484074 0.533296
C28   C     C_R   0.119656 0.598541 0.553951 0.531992
C29   C     C_R   0.939982 0.376333 0.490810 -0.038997
C30   C     C_R   0.060118 0.599052 0.558505 -0.025116
C31   C     C_R   0.969900 0.487940 0.526555 -0.013600
C32   C     C_R   0.030075 0.486473 0.526938 -0.007393
C33   C     C_R   0.939759 0.601111 0.559779 -0.085988
C34   C     C_R   0.760515 0.413210 0.601019 -0.120284
C35   C     C_R   0.060158 0.373206 0.494003 -0.097793
C36   C     C_R   0.969561 0.263036 0.464902 -0.150007
C37   C     C_R   0.030503 0.709367 0.595858 -0.203250
C38   C     C_R   0.029034 0.258544 0.470862 -0.055138
C39   C     C_R   0.970916 0.711168 0.600625 -0.037006
C40   C     C_2   0.408288 0.361647 0.899668 0.920439
C41   C     C_2   0.591962 0.637498 0.100532 0.920696
C42   C     C_2   0.055526 0.130351 0.461986 1.050160
C43   C     C_2   0.943999 0.827622 0.656489 1.023181
C44   C     C_2   0.323194 0.679462 0.316808 0.919730
C45   C     C_R   0.296170 0.583900 0.410368 -0.060457
C46   C     C_2   0.671273 0.315889 0.689504 0.917936
C47   C     C_R   0.701027 0.407949 0.596684 -0.056721
C48   C     C_R   0.327632 0.505624 0.501588 -0.124312
C49   C     C_R   0.672262 0.485972 0.500126 -0.124817
C50   C     C_R   0.299245 0.424429 0.594375 -0.190156
H1    H     H_    0.586955 0.917342 0.607195 0.161173
H2    H     H_    0.618483 0.790237 0.207374 0.330664
H3    H     H_    0.057039 0.959069 0.369161 0.358034
H4    H     H_    0.891109 0.903893 0.797195 0.361454
H5    H     H_    0.211242 0.633927 0.344756 0.187698
H6    H     H_    0.783662 0.355852 0.674755 0.188822
H7    H     H_    0.319133 0.776575 0.138097 0.349680
H8    H     H_    0.670565 0.223483 0.871384 0.346056
H9    H     H_    0.322909 0.363206 0.663097 0.183378
H10   H     H_    0.681852 0.621053 0.332601 0.188223
H11   H     H_    0.218601 0.357289 0.670624 0.168862
H12   H     H_    0.412974 0.082682 0.392807 0.161678
H13   H     H_    0.786432 0.619154 0.335884 0.168082
H14   H     H_    0.503917 0.074417 0.737021 0.191022
H15   H     H_    0.496040 0.925559 0.262970 0.190011
H16   H     H_    0.416525 0.915988 0.625272 0.164988
H17   H     H_    0.583403 0.084021 0.374729 0.163826
H18   H     H_    0.946132 0.175817 0.444215 0.237694
H19   H     H_    0.053857 0.794536 0.624831 0.219801
H20   H     H_    0.585011 0.405475 0.904626 0.178586
H21   H     H_    0.414961 0.594562 0.095452 0.177735
H22   H     H_    0.505151 0.287452 0.096132 0.154307
H23   H     H_    0.494874 0.712580 0.903882 0.154156
H24   H     H_    0.382321 0.206467 0.795976 0.329943
N1    N     N_R   0.852021 0.489680 0.511748 -0.355092
N2    N     N_R   0.148011 0.491620 0.513542 -0.354893
N3    N     N_3   0.499960 0.500030 0.863290 -0.112658
N4    N     N_3   0.500040 0.499970 0.136710 -0.112635
O1    O     O_R   0.500000 0.313960 0.616610 -0.565405
O2    O     O_2   0.150276 0.283117 0.429686 -0.512412
O3    O     O_2   0.851284 0.273594 0.448364 -0.530124
O4    O     O_2   0.149239 0.704123 0.589221 -0.526280
O5    O     O_2   0.359365 0.396349 0.922215 -0.625974
O6    O     O_R   0.418738 0.250418 0.826017 -0.814727
O7    O     O_2   0.640777 0.602792 0.076656 -0.626642
O8    O     O_R   0.581897 0.747663 0.176260 -0.812621
O9    O     O_2   0.091098 0.097055 0.545929 -0.558661
O10   O     O_R   0.037055 0.044649 0.362603 -0.770892
O11   O     O_2   0.957083 0.932622 0.610015 -0.624451
O12   O     O_R   0.500000 0.686040 0.383390 -0.566284
O13   O     O_R   0.905966 0.817718 0.766970 -0.737065
O14   O     O_2   0.367082 0.734770 0.349470 -0.648452
O15   O     O_R   0.297049 0.709748 0.192649 -0.778484
O16   O     O_2   0.628004 0.260688 0.652447 -0.649614
O17   O     O_R   0.694236 0.288367 0.817971 -0.783105
O18   O     O_R   0.500030 0.313950 0.383350 -0.644246
O19   O     O_R   0.499970 0.686050 0.616650 -0.643061
O20   O     O_R   0.416140 0.499970 0.616650 -0.612130
O21   O     O_R   0.583860 0.500030 0.383350 -0.611563
O22   O     O_R   0.416170 0.499960 0.383400 -0.604341
O23   O     O_R   0.583830 0.500040 0.616600 -0.605621
O24   O     O_2   0.849074 0.706746 0.565917 -0.516434
Zn1   Zn    Zn3+2 0.499980 0.500010 0.655740 0.997981
Zn2   Zn    Zn3+2 0.500020 0.499990 0.344260 0.997682

loop_
_geom_bond_atom_site_label_1
_geom_bond_atom_site_label_2
_ccdc_geom_bond_type
C34   H6    S    
C23   C45   A    
C37   H19   S    
C27   C29   A    
C40   O6    S    
C9    H1    S    
C20   H20   S    
C16   C48   S    
C6    N1    S    
C47   C49   A    
C41   O8    S    
C29   C36   A    
C33   C39   A    
C20   N3    S    
C21   H21   S    
C50   H9    S    
C12   O12   A    
C19   C21   S    
C38   C42   S    
C1    O18   A    
C11   C14   S    
C2    H10   S    
C25   O24   S    
O20   Zn1   S    
O22   Zn2   S    
C19   N3    S    
C17   O23   A    
C44   O15   S    
C7    C14   S    
C46   O17   S    
C20   C24   S    
C28   C30   A    
C5    C23   A    
C21   N4    S    
C26   N2    A    
C31   C33   A    
C44   O14   D    
C48   C50   A    
O21   Zn2   S    
C22   C40   S    
C8    H15   S    
O23   Zn1   S    
H7    O15   S    
C21   C22   S    
C24   C41   S    
C40   O5    D    
O1    Zn1   S    
C10   H12   S    
H2    O8    S    
C27   N1    A    
C3    C50   A    
C3    H11   S    
C18   H22   S    
N4    Zn2   S    
C32   C35   A    
C19   H23   S    
C35   C38   A    
C4    C6    A    
C10   C14   S    
C17   C49   S    
C16   O22   A    
C39   C43   S    
C28   O4    S    
C43   O13   S    
C6    C34   A    
C30   C37   A    
C25   N1    A    
C2    C4    A    
H8    O17   S    
C2    C49   A    
C17   O21   A    
C31   C32   A    
C4    H13   S    
C27   O3    S    
C18   N4    S    
C15   H17   S    
C14   H16   S    
C43   O11   D    
C9    C11   S    
O12   Zn2   S    
C12   O19   A    
O19   Zn1   S    
C24   N4    S    
C8    C15   S    
C13   C15   S    
C1    O1    A    
N3    Zn1   S    
C42   O10   S    
C28   N2    A    
C44   C45   S    
C45   C48   A    
C46   O16   D    
C7    C9    S    
C46   C47   S    
C18   C22   S    
C8    C10   S    
C22   N3    S    
H24   O6    S    
C3    C5    A    
C10   C13   S    
C11   C12   S    
C36   H18   S    
C23   H5    S    
C42   O9    D    
C41   O7    D    
C5    N2    S    
O18   Zn2   S    
C19   C24   S    
C9    C15   S    
H4    O13   S    
C29   C31   A    
C30   C32   A    
C16   O20   A    
C8    C11   S    
C36   C38   A    
H3    O10   S    
C18   C20   S    
C26   O2    S    
C7    H14   S    
C26   C35   A    
C7    C13   S    
C1    C13   S    
C37   C39   A    
C34   C47   A    
C25   C33   A    
