data_mof_unit_45286.cif
_audit_creation_date              2012-10-26T17:11:29-0400
_audit_creation_method            fapswitch 2.2
_symmetry_space_group_name_H-M    P1
_symmetry_Int_Tables_number       1
_space_group_crystal_system       triclinic
_cell_length_a                    28.032611
_cell_length_b                    18.730829
_cell_length_c                    16.874424
_cell_angle_alpha                 90.000553
_cell_angle_beta                  62.482634
_cell_angle_gamma                 90.001189
_cell_volume                      7857.96123677

loop_
_atom_site_label
_atom_site_type_symbol
_atom_type_description
_atom_site_fract_x
_atom_site_fract_y
_atom_site_fract_z
_atom_type_partial_charge
C1    C     C_R   0.295009 0.728253 0.329713 0.793504
C2    C     C_R   0.705035 0.271826 0.670259 0.777518
C3    C     C_R   0.705003 0.728230 0.670280 0.792925
C4    C     C_R   0.295040 0.271691 0.329693 0.809226
C5    C     C_R   0.795038 0.228307 0.329694 0.809208
C6    C     C_R   0.205002 0.771768 0.670281 0.792885
C7    C     C_R   0.205034 0.228176 0.670260 0.777519
C8    C     C_R   0.795008 0.771749 0.329713 0.793507
C9    C     C_R   0.399201 0.000177 0.499972 0.073234
C10   C     C_R   0.586846 0.999696 0.546840 0.073243
C11   C     C_R   0.899183 0.499833 0.500061 0.073215
C12   C     C_R   0.086813 0.500305 0.546974 0.073252
C13   C     C_R   0.583952 0.870577 0.546973 -0.146870
C14   C     C_R   0.382188 0.122537 0.553458 -0.150268
C15   C     C_R   0.416335 0.875870 0.454682 -0.143999
C16   C     C_R   0.576374 0.126757 0.577193 -0.147095
C17   C     C_R   0.076370 0.373227 0.577220 -0.147095
C18   C     C_R   0.916303 0.624162 0.454868 -0.143987
C19   C     C_R   0.882183 0.377455 0.553480 -0.150312
C20   C     C_R   0.083884 0.629427 0.547263 -0.146832
C21   C     C_R   0.221132 0.767381 0.952767 0.101045
C22   C     C_R   0.779512 0.233777 0.046680 0.096628
C23   C     C_R   0.778980 0.767143 0.047150 0.100997
C24   C     C_R   0.221703 0.231619 0.952260 0.096798
C25   C     C_R   0.721703 0.268385 0.952262 0.096796
C26   C     C_R   0.278983 0.732857 0.047146 0.101004
C27   C     C_R   0.279511 0.266220 0.046682 0.096629
C28   C     C_R   0.721133 0.732621 0.952765 0.101039
C29   C     C_R   0.277629 0.770726 0.910377 -0.163066
C30   C     C_R   0.723019 0.230470 0.089027 -0.164575
C31   C     C_R   0.722481 0.770543 0.089526 -0.160540
C32   C     C_R   0.278209 0.228330 0.909853 -0.152637
C33   C     C_R   0.778211 0.271696 0.909860 -0.152621
C34   C     C_R   0.222486 0.729521 0.089537 -0.160569
C35   C     C_R   0.223021 0.269503 0.089035 -0.164577
C36   C     C_R   0.777632 0.729211 0.910389 -0.163052
C37   C     C_R   0.306246 0.753570 0.957048 -0.165442
C38   C     C_R   0.694430 0.247658 0.042347 -0.165702
C39   C     C_R   0.693866 0.753390 0.042852 -0.163635
C40   C     C_R   0.306809 0.245530 0.956561 -0.155810
C41   C     C_R   0.806811 0.254494 0.956566 -0.155797
C42   C     C_R   0.193870 0.746674 0.042866 -0.163662
C43   C     C_R   0.194432 0.252319 0.042352 -0.165708
C44   C     C_R   0.806248 0.746367 0.957064 -0.165425
C45   C     C_R   0.144774 0.829755 0.943601 -0.193983
C46   C     C_R   0.855653 0.170962 0.056042 -0.190085
C47   C     C_R   0.855310 0.829595 0.056326 -0.194245
C48   C     C_R   0.145178 0.169580 0.943255 -0.195006
C49   C     C_R   0.645176 0.330419 0.943258 -0.194995
C50   C     C_R   0.355307 0.670395 0.056332 -0.194256
C51   C     C_R   0.355651 0.329039 0.056046 -0.190097
C52   C     C_R   0.644770 0.670256 0.943607 -0.193968
C53   C     C_R   0.117937 0.851930 0.895064 -0.061411
C54   C     C_R   0.882235 0.148329 0.104807 -0.061893
C55   C     C_R   0.882102 0.851863 0.104903 -0.062085
C56   C     C_R   0.118109 0.147816 0.894932 -0.063155
C57   C     C_R   0.618108 0.352184 0.894933 -0.063157
C58   C     C_R   0.382101 0.648132 0.104907 -0.062085
C59   C     C_R   0.382234 0.351672 0.104809 -0.061888
C60   C     C_R   0.617935 0.648075 0.895068 -0.061411
C61   C     C_R   0.136516 0.829636 0.806946 -0.221304
C62   C     C_R   0.863533 0.170401 0.193040 -0.220558
C63   C     C_R   0.863503 0.829608 0.193042 -0.218990
C64   C     C_R   0.136580 0.170305 0.806918 -0.214560
C65   C     C_R   0.636581 0.329696 0.806918 -0.214557
C66   C     C_R   0.363503 0.670391 0.193044 -0.218963
C67   C     C_R   0.363534 0.329597 0.193040 -0.220559
C68   C     C_R   0.636516 0.670365 0.806948 -0.221320
C69   C     C_R   0.182499 0.787540 0.765802 -0.063085
C70   C     C_R   0.817672 0.212735 0.234080 -0.065851
C71   C     C_R   0.817538 0.787474 0.234173 -0.064587
C72   C     C_R   0.182681 0.212173 0.765671 -0.062402
C73   C     C_R   0.682683 0.287832 0.765671 -0.062406
C74   C     C_R   0.317541 0.712530 0.234171 -0.064584
C75   C     C_R   0.317674 0.287260 0.234079 -0.065855
C76   C     C_R   0.682502 0.712457 0.765801 -0.063092
C77   C     C_R   0.209226 0.765389 0.814478 -0.192896
C78   C     C_R   0.791208 0.235353 0.185173 -0.194050
C79   C     C_R   0.790854 0.765238 0.185463 -0.192721
C80   C     C_R   0.209667 0.233868 0.814108 -0.194458
C81   C     C_R   0.709671 0.266142 0.814106 -0.194449
C82   C     C_R   0.290862 0.734771 0.185457 -0.192738
C83   C     C_R   0.291211 0.264638 0.185172 -0.194052
C84   C     C_R   0.709234 0.734603 0.814474 -0.192887
C85   C     C_R   0.196884 0.631655 0.526411 0.791607
C86   C     C_R   0.799351 0.368890 0.486232 0.797083
C87   C     C_R   0.802970 0.631419 0.474516 0.787598
C88   C     C_R   0.196258 0.368211 0.528583 0.789609
C89   C     C_R   0.696259 0.131788 0.528578 0.789604
C90   C     C_R   0.302971 0.868580 0.474505 0.787581
C91   C     C_R   0.299349 0.131110 0.486235 0.797112
C92   C     C_R   0.696891 0.868347 0.526382 0.791658
C93   C     C_R   0.190791 0.786708 0.903465 0.068363
C94   C     C_R   0.809756 0.214234 0.096074 0.068758
C95   C     C_R   0.809311 0.786511 0.096454 0.068226
C96   C     C_R   0.191312 0.212411 0.903011 0.067630
C97   C     C_R   0.691312 0.287594 0.903012 0.067617
C98   C     C_R   0.309313 0.713488 0.096453 0.068255
C99   C     C_R   0.309756 0.285762 0.096076 0.068771
C100  C     C_R   0.690792 0.713295 0.903464 0.068338
C101  C     C_R   0.926474 0.903178 0.066640 0.797222
C102  C     C_R   0.073579 0.096747 0.933315 0.798238
C103  C     C_R   0.073537 0.903196 0.933350 0.796751
C104  C     C_R   0.926506 0.096864 0.066614 0.798445
C105  C     C_R   0.426505 0.403137 0.066615 0.798448
C106  C     C_R   0.573535 0.596807 0.933352 0.796762
C107  C     C_R   0.573579 0.403253 0.933315 0.798238
C108  C     C_R   0.426473 0.596820 0.066642 0.797218
C109  C     C_R   0.042622 0.629065 0.523341 -0.142937
C110  C     C_R   0.929750 0.375811 0.561557 -0.132671
C111  C     C_R   0.958554 0.626283 0.476938 -0.137641
C112  C     C_R   0.026857 0.373784 0.574526 -0.130953
C113  C     C_R   0.526865 0.126203 0.574493 -0.130967
C114  C     C_R   0.458614 0.873754 0.476677 -0.137600
C115  C     C_R   0.429760 0.124180 0.561521 -0.132632
C116  C     C_R   0.542706 0.870959 0.523018 -0.143003
C117  C     C_R   0.024839 0.692750 0.501489 0.528723
C118  C     C_R   0.945725 0.313830 0.590354 0.520330
C119  C     C_R   0.984637 0.690890 0.474649 0.530020
C120  C     C_R   0.994286 0.312463 0.595292 0.531299
C121  C     C_R   0.494289 0.187517 0.595291 0.531327
C122  C     C_R   0.484730 0.809160 0.474284 0.530087
C123  C     C_R   0.445731 0.186152 0.590341 0.520335
C124  C     C_R   0.524948 0.807292 0.501082 0.528713
C125  C     C_R   0.974255 0.563301 0.503860 -0.053754
C126  C     C_R   0.009430 0.436816 0.550540 -0.056056
C127  C     C_R   0.018753 0.564045 0.521357 -0.049908
C128  C     C_R   0.961789 0.437262 0.541119 -0.050987
C129  C     C_R   0.461809 0.062739 0.541037 -0.050997
C130  C     C_R   0.518814 0.935976 0.521121 -0.049877
C131  C     C_R   0.509453 0.063183 0.550450 -0.056059
C132  C     C_R   0.474307 0.936724 0.503647 -0.053778
C133  C     C_R   0.445426 0.000121 0.513827 0.076436
C134  C     C_R   0.538317 0.999743 0.539724 0.076926
C135  C     C_R   0.945396 0.499891 0.513954 0.076440
C136  C     C_R   0.038278 0.500265 0.539880 0.076923
C137  C     C_R   0.382914 0.936606 0.473380 0.023316
C138  C     C_R   0.609364 0.064996 0.555993 0.021887
C139  C     C_R   0.612104 0.934035 0.545506 0.021000
C140  C     C_R   0.368802 0.063339 0.514744 0.019085
C141  C     C_R   0.868796 0.436662 0.514781 0.019099
C142  C     C_R   0.112065 0.565966 0.545676 0.020973
C143  C     C_R   0.109350 0.434997 0.556059 0.021879
C144  C     C_R   0.882897 0.563410 0.473481 0.023323
C145  C     C_R   0.333052 0.935635 0.469189 -0.117355
C146  C     C_R   0.663252 0.065326 0.545271 -0.116220
C147  C     C_R   0.664279 0.934407 0.541379 -0.113051
C148  C     C_R   0.325796 0.064370 0.491431 -0.111951
C149  C     C_R   0.825799 0.435631 0.491440 -0.111930
C150  C     C_R   0.164263 0.565593 0.541459 -0.113072
C151  C     C_R   0.163246 0.434670 0.545305 -0.116220
C152  C     C_R   0.833051 0.564370 0.469224 -0.117337
C153  C     C_R   0.307589 0.000306 0.472512 -0.260199
C154  C     C_R   0.688742 0.999912 0.540392 -0.258289
C155  C     C_R   0.807599 0.499696 0.472510 -0.260225
C156  C     C_R   0.188739 0.500086 0.540422 -0.258245
Cu1   Cu    Cu3+1 0.209920 0.785290 0.495070 1.017928
Cu2   Cu    Cu3+1 0.790080 0.214710 0.504930 1.011015
Cu3   Cu    Cu3+1 0.790080 0.785290 0.504930 1.013559
Cu4   Cu    Cu3+1 0.209920 0.214710 0.495070 0.998680
Cu5   Cu    Cu3+1 0.709920 0.285290 0.495070 0.998692
Cu6   Cu    Cu3+1 0.290080 0.714710 0.504930 1.013508
Cu7   Cu    Cu3+1 0.290080 0.285290 0.504930 1.011007
Cu8   Cu    Cu3+1 0.709920 0.714710 0.495070 1.017902
Cu9   Cu    Cu3+1 0.495240 0.500000 0.924150 0.992859
Cu10  Cu    Cu3+1 0.504760 0.500000 0.075850 0.976939
Cu11  Cu    Cu3+1 0.995240 1.000000 0.924150 0.992923
Cu12  Cu    Cu3+1 0.004760 1.000000 0.075850 0.976890
H1    H     H_    0.272018 0.000487 0.462717 0.191799
H2    H     H_    0.729421 0.000026 0.532161 0.192448
H3    H     H_    0.772041 0.499512 0.462675 0.191782
H4    H     H_    0.229429 0.499973 0.532146 0.192441
H5    H     H_    0.591421 0.819917 0.568749 0.222711
H6    H     H_    0.355314 0.167164 0.581178 0.216555
H7    H     H_    0.410990 0.829765 0.421433 0.217114
H8    H     H_    0.587334 0.174983 0.599686 0.216974
H9    H     H_    0.087342 0.324986 0.599676 0.216978
H10   H     H_    0.910981 0.670269 0.421605 0.217124
H11   H     H_    0.855315 0.332822 0.581173 0.216579
H12   H     H_    0.091365 0.680071 0.569075 0.222609
H13   H     H_    0.150408 0.742818 0.076914 0.140507
H14   H     H_    0.850279 0.258273 0.922531 0.148637
H15   H     H_    0.849712 0.742471 0.923033 0.136965
H16   H     H_    0.150972 0.256188 0.076388 0.136366
H17   H     H_    0.650969 0.243771 0.076376 0.136367
H18   H     H_    0.349708 0.757420 0.923002 0.136947
H19   H     H_    0.350275 0.241767 0.922519 0.148643
H20   H     H_    0.650403 0.757294 0.076884 0.140538
H21   H     H_    0.299701 0.787801 0.841458 0.138395
H22   H     H_    0.700920 0.213349 0.157923 0.137388
H23   H     H_    0.700406 0.787668 0.158434 0.142547
H24   H     H_    0.300297 0.211312 0.840903 0.152728
H25   H     H_    0.800299 0.288733 0.840916 0.152726
H26   H     H_    0.200411 0.712445 0.158454 0.142517
H27   H     H_    0.200921 0.286606 0.157937 0.137384
H28   H     H_    0.799705 0.712088 0.841480 0.138406
H29   H     H_    0.131296 0.848355 0.011392 0.155621
H30   H     H_    0.869213 0.152525 0.988166 0.160217
H31   H     H_    0.868805 0.848156 0.988515 0.154849
H32   H     H_    0.131759 0.150856 0.010979 0.153202
H33   H     H_    0.631755 0.349137 0.010987 0.153207
H34   H     H_    0.368797 0.651823 0.988527 0.154823
H35   H     H_    0.369208 0.347483 0.988173 0.160206
H36   H     H_    0.631287 0.651668 0.011404 0.155650
H37   H     H_    0.116365 0.847497 0.769050 0.181694
H38   H     H_    0.883481 0.152173 0.231103 0.180022
H39   H     H_    0.883621 0.847535 0.230965 0.183621
H40   H     H_    0.116234 0.152794 0.769186 0.186948
H41   H     H_    0.616236 0.347205 0.769186 0.186947
H42   H     H_    0.383619 0.652464 0.230968 0.183637
H43   H     H_    0.383483 0.347827 0.231103 0.180023
H44   H     H_    0.616364 0.652504 0.769052 0.181675
H45   H     H_    0.244916 0.732440 0.782851 0.155289
H46   H     H_    0.755612 0.268480 0.216722 0.152884
H47   H     H_    0.755174 0.732267 0.217082 0.157429
H48   H     H_    0.245458 0.266626 0.782384 0.165864
H49   H     H_    0.745464 0.233389 0.782382 0.165880
H50   H     H_    0.255190 0.767753 0.217073 0.157384
H51   H     H_    0.255617 0.231505 0.216720 0.152877
H52   H     H_    0.744931 0.767541 0.782843 0.155322
O1    O     O_R   0.255040 0.869590 0.478480 -0.577285
O2    O     O_R   0.744960 0.130410 0.521520 -0.576619
O3    O     O_R   0.744960 0.869590 0.521520 -0.579547
O4    O     O_R   0.255040 0.130410 0.478480 -0.581676
O5    O     O_R   0.755040 0.369590 0.478480 -0.581664
O6    O     O_R   0.244960 0.630410 0.521520 -0.579558
O7    O     O_R   0.244960 0.369590 0.521520 -0.576628
O8    O     O_R   0.755040 0.630410 0.478480 -0.577281
O9    O     O_R   0.182050 0.796550 0.624440 -0.583563
O10   O     O_R   0.817950 0.203450 0.375560 -0.579627
O11   O     O_R   0.817950 0.796550 0.375560 -0.581079
O12   O     O_R   0.182050 0.203450 0.624440 -0.583419
O13   O     O_R   0.682050 0.296550 0.624440 -0.583409
O14   O     O_R   0.317950 0.703450 0.375560 -0.581055
O15   O     O_R   0.317950 0.296550 0.375560 -0.579628
O16   O     O_R   0.682050 0.703450 0.624440 -0.583588
O17   O     O_R   0.250530 0.763330 0.367210 -0.580792
O18   O     O_R   0.749470 0.236670 0.632790 -0.587437
O19   O     O_R   0.749470 0.763330 0.632790 -0.584735
O20   O     O_R   0.250530 0.236670 0.367210 -0.585436
O21   O     O_R   0.750530 0.263330 0.367210 -0.585434
O22   O     O_R   0.249470 0.736670 0.632790 -0.584764
O23   O     O_R   0.249470 0.263330 0.632790 -0.587446
O24   O     O_R   0.750530 0.736670 0.367210 -0.580763
O25   O     O_R   0.177260 0.690030 0.513710 -0.587502
O26   O     O_R   0.822740 0.309970 0.486290 -0.587369
O27   O     O_R   0.822740 0.690030 0.486290 -0.585118
O28   O     O_R   0.177260 0.309970 0.513710 -0.587855
O29   O     O_R   0.677260 0.190030 0.513710 -0.587835
O30   O     O_R   0.322740 0.809970 0.486290 -0.585091
O31   O     O_R   0.322740 0.190030 0.486290 -0.587359
O32   O     O_R   0.677260 0.809970 0.513710 -0.587602
O33   O     O_R   0.051640 0.926880 0.885090 -0.584500
O34   O     O_R   0.948360 0.073120 0.114910 -0.586742
O35   O     O_R   0.948360 0.926880 0.114910 -0.583277
O36   O     O_R   0.051640 0.073120 0.885090 -0.579228
O37   O     O_R   0.551640 0.426880 0.885090 -0.579229
O38   O     O_R   0.448360 0.573120 0.114910 -0.583261
O39   O     O_R   0.448360 0.426880 0.114910 -0.586744
O40   O     O_R   0.551640 0.573120 0.885090 -0.584518
O41   O     O_R   0.940620 0.926560 0.986760 -0.588312
O42   O     O_R   0.059380 0.073440 0.013240 -0.590787
O43   O     O_R   0.059380 0.926560 0.013240 -0.587811
O44   O     O_R   0.940620 0.073440 0.986760 -0.583064
O45   O     O_R   0.440620 0.426560 0.986760 -0.583073
O46   O     O_R   0.559380 0.573440 0.013240 -0.587789
O47   O     O_R   0.559380 0.426560 0.013240 -0.590780
O48   O     O_R   0.440620 0.573440 0.986760 -0.588333
F1    F     F_    0.548288 0.743789 0.501349 -0.630883
F2    F     F_    0.415181 0.246232 0.611161 -0.637476
F3    F     F_    0.469651 0.747320 0.450143 -0.631371
F4    F     F_    0.509348 0.248890 0.620427 -0.632002
F5    F     F_    0.009344 0.251083 0.620415 -0.631982
F6    F     F_    0.969548 0.752750 0.450552 -0.631327
F7    F     F_    0.915166 0.253748 0.611190 -0.637442
F8    F     F_    0.048149 0.756261 0.501854 -0.630848

loop_
_geom_bond_atom_site_label_1
_geom_bond_atom_site_label_2
_ccdc_geom_bond_type
C85   O25   A    
C34   C42   A    
C64   C72   A    
C16   C113  A    
C78   H46   S    
C80   H48   S    
C40   H19   S    
C13   H5    S    
C90   O30   A    
C27   C99   S    
C13   C139  A    
C24   C96   S    
C46   H30   S    
C88   O7    A    
C29   C37   A    
C8    O24   A    
C17   H9    S    
C30   C38   A    
C118  F7    S    
C109  C127  A    
C111  C125  A    
C102  O42   A    
C67   H43   S    
Cu5   O21   S    
C125  C135  A    
C143  C151  A    
C126  C136  A    
C19   C141  A    
C92   C147  S    
C82   C98   A    
C110  C118  A    
C130  C134  A    
Cu4   O28   S    
Cu7   O7    S    
C73   C81   A    
C7    O12   A    
C50   H34   S    
C42   H13   S    
C115  C123  A    
C77   H45   S    
C84   C100  A    
Cu4   Cu7   S    
C127  C136  A    
C128  C135  A    
C112  C120  A    
C27   C35   A    
C21   C29   A    
Cu3   O11   S    
C24   C32   A    
C5    C70   S    
C2    O13   A    
C146  C154  A    
Cu12  O34   S    
Cu10  O46   S    
C121  F4    S    
C122  F3    S    
Cu2   O18   S    
C129  C133  A    
C123  F2    S    
Cu4   O4    S    
C63   C71   A    
C29   H21   S    
C41   H14   S    
C36   C44   A    
C148  C153  A    
C156  H4    S    
C19   H11   S    
C137  C145  A    
C8    C71   S    
C48   C96   A    
C16   C138  A    
C87   O27   A    
C117  C119  A    
C149  C155  A    
C21   C93   S    
C78   C94   A    
C18   C144  A    
Cu9   O37   S    
C118  C120  A    
C121  C123  A    
C25   C33   A    
C49   C97   A    
C21   C42   A    
Cu5   O13   S    
C87   O8    A    
C125  C127  A    
C24   C43   A    
C10   C138  A    
C91   O4    A    
Cu12  O42   S    
Cu1   Cu6   S    
C62   H38   S    
C110  C128  A    
C15   C137  A    
C9    C133  A    
C6    C69   S    
Cu11  O33   S    
C69   C77   A    
C45   C93   A    
C71   C79   A    
Cu1   O9    S    
C62   C70   A    
C1    C74   S    
C101  O35   A    
C9    C140  A    
C45   H29   S    
C66   C74   A    
C49   C57   A    
C111  C119  A    
C108  O48   A    
C52   C60   A    
C59   C67   A    
C53   C61   A    
C23   C95   S    
C55   C63   A    
C56   C64   A    
Cu7   O23   S    
C66   H42   S    
C35   C43   A    
C45   C53   A    
Cu1   O1    S    
C22   C94   S    
C47   H31   S    
Cu6   O6    S    
C92   O32   A    
C49   H33   S    
C50   C98   A    
C90   O1    A    
C7    C72   S    
C1    O17   A    
C52   C100  A    
C36   H28   S    
C25   C38   A    
C88   O28   A    
C83   H51   S    
C46   C94   A    
C27   C40   A    
C81   H49   S    
C116  C130  A    
C11   C141  A    
C44   H15   S    
C60   C68   A    
C2    C73   S    
C39   H20   S    
C25   C97   S    
C14   C140  A    
C87   C152  S    
C88   C151  S    
C67   C75   A    
C122  C124  A    
C68   H44   S    
C60   C106  S    
C126  C128  A    
C22   C30   A    
C68   C76   A    
C104  O44   A    
C12   C143  A    
C107  O37   A    
C56   C102  S    
C144  C152  A    
C119  F6    S    
Cu5   O29   S    
C34   H26   S    
C138  C146  A    
C102  O36   A    
C30   H22   S    
Cu7   O15   S    
C113  C121  A    
C18   H10   S    
C12   C136  A    
C3    O19   A    
C86   O5    A    
Cu3   Cu8   S    
C6    O22   A    
C83   C99   A    
Cu1   O25   S    
C61   H37   S    
Cu8   O16   S    
C131  C134  A    
C76   C84   A    
C109  C117  A    
C91   O31   A    
C59   C105  S    
C89   O29   A    
C48   H32   S    
Cu10  O38   S    
C54   C104  S    
C90   C145  S    
C8    O11   A    
C22   C41   A    
C14   C115  A    
C31   H23   S    
C32   H24   S    
Cu11  O41   S    
C85   C150  S    
C4    C75   S    
Cu2   Cu5   S    
C9    C137  A    
Cu9   O48   S    
Cu10  O47   S    
Cu6   O22   S    
C113  C131  A    
C112  C126  A    
C35   H27   S    
C16   H8    S    
C33   H25   S    
C63   H39   S    
C140  C148  A    
C74   C82   A    
C51   H35   S    
C106  O46   A    
C141  C149  A    
C50   C58   A    
Cu11  Cu12  S    
C54   C62   A    
C28   C39   A    
C23   C44   A    
C52   H36   S    
C130  C132  A    
C79   C95   A    
C11   C135  A    
C3    O16   A    
C37   H18   S    
C152  C155  A    
C1    O14   A    
C46   C54   A    
C4    O20   A    
C151  C156  A    
C18   C111  A    
Cu1   O17   S    
C103  O33   A    
C10   C139  A    
Cu8   O24   S    
Cu11  O36   S    
C116  C124  A    
Cu8   O32   S    
C92   O3    A    
C57   C65   A    
C26   C37   A    
C17   C143  A    
C33   C41   A    
C142  C150  A    
Cu7   O31   S    
C14   H6    S    
C154  H2    S    
C75   C83   A    
C53   C103  S    
C77   C93   A    
C12   C142  A    
C58   C108  S    
C13   C116  A    
C105  O39   A    
Cu6   O14   S    
C28   C36   A    
C72   C80   A    
C153  H1    S    
Cu3   O19   S    
C105  O45   A    
C23   C31   A    
Cu9   Cu10  S    
C101  O41   A    
C70   C78   A    
C108  O38   A    
Cu2   O10   S    
C104  O34   A    
C120  F5    S    
C20   H12   S    
C64   H40   S    
C139  C147  A    
C43   H16   S    
C65   C73   A    
C147  C154  A    
C26   C34   A    
C132  C133  A    
C80   C96   A    
C84   H52   S    
C11   C144  A    
C65   H41   S    
C145  C153  A    
C28   C100  S    
C79   H47   S    
Cu2   O2    S    
Cu9   O45   S    
C106  O40   A    
C117  F8    S    
C91   C148  S    
C58   C66   A    
Cu5   O5    S    
C51   C99   A    
C89   C146  S    
C124  F1    S    
C20   C142  A    
C86   C149  S    
C89   O2    A    
C2    O18   A    
Cu12  O35   S    
C82   H50   S    
Cu4   O12   S    
C15   C114  A    
Cu8   O8    S    
C3    C76   S    
Cu3   O27   S    
C26   C98   S    
C57   C107  S    
C107  O47   A    
C4    O15   A    
C51   C59   A    
C17   C112  A    
C47   C55   A    
C115  C129  A    
C19   C110  A    
C61   C69   A    
C48   C56   A    
C103  O43   A    
Cu4   O20   S    
C5    O10   A    
C114  C132  A    
C10   C134  A    
C38   H17   S    
C55   C101  S    
Cu9   O40   S    
C15   H7    S    
Cu10  O39   S    
Cu6   O30   S    
C81   C97   A    
Cu3   O3    S    
C31   C39   A    
Cu11  O44   S    
C32   C40   A    
Cu12  O43   S    
C20   C109  A    
C114  C122  A    
C155  H3    S    
C86   O26   A    
C6    O9    A    
C7    O23   A    
C47   C95   A    
C150  C156  A    
C85   O6    A    
Cu2   O26   S    
C5    O21   A    
C129  C131  A    
