data_mof_unit_59561.cif
_audit_creation_date              2012-12-11T14:03:23-0500
_audit_creation_method            fapswitch 2.2
_symmetry_space_group_name_H-M    P1
_symmetry_Int_Tables_number       1
_space_group_crystal_system       triclinic
_cell_length_a                    6.953342
_cell_length_b                    11.378531
_cell_length_c                    18.6783
_cell_angle_alpha                 89.999976
_cell_angle_beta                  92.858038
_cell_angle_gamma                 90.000016
_cell_volume                      1475.96682985

loop_
_atom_site_label
_atom_site_type_symbol
_atom_type_description
_atom_site_fract_x
_atom_site_fract_y
_atom_site_fract_z
_atom_type_partial_charge
O1    O     O_R   0.330540 0.606360 0.598870 -0.537294
O2    O     O_R   0.669460 0.106360 0.401130 -0.537294
O3    O     O_R   0.026770 0.620470 0.750430 -0.540905
O4    O     O_R   0.973230 0.120470 0.249570 -0.540906
O5    O     O_R   0.856460 0.393640 0.750930 -0.538929
O6    O     O_R   0.143540 0.893640 0.249070 -0.538930
C1    C     C_R   0.198652 0.648443 0.774550 0.700330
C2    C     C_R   0.801348 0.148443 0.225449 0.700331
O7    O     O_R   0.000920 0.620350 0.599420 -0.548535
O8    O     O_R   0.999080 0.120350 0.400580 -0.548535
O9    O     O_R   0.830430 0.393520 0.598850 -0.537710
O10   O     O_R   0.169570 0.893520 0.401150 -0.537710
C3    C     C_R   0.166667 0.647833 0.574555 0.766119
C4    C     C_R   0.833333 0.147833 0.425445 0.766119
O11   O     O_R   0.356570 0.606480 0.750960 -0.538108
O12   O     O_R   0.643430 0.106480 0.249040 -0.538108
O13   O     O_3   0.176990 0.425580 0.674890 -0.374258
O14   O     O_3   0.823010 0.925580 0.325110 -0.374258
V1    V     V_3+5 0.902170 0.513810 0.674910 1.410933
V2    V     V_3+5 0.097830 0.013810 0.325090 1.410932
O15   O     O_R   0.500800 0.379530 0.599380 -0.548851
O16   O     O_R   0.499200 0.879530 0.400620 -0.548851
C5    C     C_R   0.666558 0.352041 0.574530 0.764632
C6    C     C_R   0.333441 0.852041 0.425470 0.764632
O17   O     O_R   0.526650 0.379650 0.750390 -0.543043
O18   O     O_R   0.473350 0.879650 0.249610 -0.543042
C7    C     C_R   0.698474 0.351065 0.774125 0.702781
C8    C     C_R   0.301526 0.851064 0.225876 0.702780
V3    V     V_3+5 0.402160 0.486190 0.674900 1.408598
V4    V     V_3+5 0.597840 0.986190 0.325100 1.408599
O19   O     O_3   0.677210 0.574420 0.674910 -0.372712
O20   O     O_3   0.322790 0.074420 0.325090 -0.372712
C9    C     C_R   0.708258 0.069941 0.879593 -0.173681
C10   C     C_R   0.291799 0.569940 0.120406 -0.173674
H1    H     H_    0.685253 0.113708 0.767737 0.112393
H2    H     H_    0.314819 0.613707 0.232262 0.112395
H3    H     H_    0.724049 0.938885 0.996940 0.136900
H4    H     H_    0.276018 0.438884 0.003058 0.136899
H5    H     H_    0.698895 0.976387 0.869021 0.139198
H6    H     H_    0.301191 0.476386 0.130977 0.139196
C11   C     C_R   0.713636 0.268507 0.834110 -0.037253
C12   C     C_R   0.286366 0.768505 0.165890 -0.037254
C13   C     C_R   0.797095 0.351788 0.180649 -0.177382
C14   C     C_R   0.202919 0.851788 0.819351 -0.177380
C15   C     C_R   0.785838 0.434755 0.125525 0.208120
C16   C     C_R   0.214186 0.934755 0.874474 0.208119
C17   C     C_R   0.764929 0.397328 0.054228 -0.181752
C18   C     C_R   0.235082 0.897328 0.945772 -0.181748
C19   C     C_R   0.755238 0.276275 0.036339 0.034803
C20   C     C_R   0.244762 0.776275 0.963661 0.034803
C21   C     C_R   0.763729 0.192689 0.093297 0.062453
C22   C     C_R   0.236276 0.692689 0.906702 0.062452
C23   C     C_R   0.737899 0.235398 0.963851 0.076754
C24   C     C_R   0.262102 0.735398 0.036149 0.076750
C25   C     C_R   0.726031 0.112460 0.950239 0.123629
C26   C     C_R   0.274004 0.612459 0.049760 0.123632
C27   C     C_R   0.732846 0.032635 0.007004 -0.207397
C28   C     C_R   0.267199 0.532634 0.992996 -0.207396
C29   C     C_R   0.752105 0.071825 0.077343 -0.195588
C30   C     C_R   0.247919 0.571825 0.922656 -0.195589
C31   C     C_R   0.732478 0.312057 0.904112 -0.225556
C32   C     C_R   0.267492 0.812057 0.095889 -0.225552
C33   C     C_R   0.701134 0.147692 0.821882 -0.191032
C34   C     C_R   0.298913 0.647691 0.178117 -0.191037
C35   C     C_R   0.785329 0.231673 0.165306 -0.120457
C36   C     C_R   0.214673 0.731672 0.834694 -0.120456
H7    H     H_    0.741036 0.406152 0.909713 0.104703
H8    H     H_    0.258889 0.906152 0.090288 0.104703
H9    H     H_    0.814545 0.380629 0.235918 0.103545
H10   H     H_    0.185475 0.880630 0.764082 0.103544
H11   H     H_    0.756717 0.465508 0.014219 0.129313
H12   H     H_    0.243308 0.965508 0.985781 0.129312
H13   H     H_    0.757825 0.006043 0.119270 0.127265
H14   H     H_    0.242205 0.506042 0.880730 0.127267
C37   C     C_2   0.831875 0.233711 0.484724 -0.351299
C38   C     C_2   0.168125 0.733711 0.515276 -0.351300
H15   H     H_    0.969162 0.270576 0.503843 0.150224
H16   H     H_    0.030838 0.770576 0.496157 0.150224
C39   C     C_2   0.668038 0.266149 0.515259 -0.350448
C40   C     C_2   0.331962 0.766149 0.484741 -0.350449
H17   H     H_    0.530752 0.229284 0.496140 0.150267
H18   H     H_    0.469247 0.729284 0.503860 0.150267
C41   C     C_3   0.796840 0.563998 0.141998 -0.773433
H19   H     H_    0.818274 0.580960 0.200410 0.205162
H20   H     H_    0.916419 0.604466 0.114079 0.224508
H21   H     H_    0.663809 0.608515 0.121913 0.222993
C42   C     C_3   0.203221 0.063998 0.858001 -0.773440
H22   H     H_    0.181844 0.080962 0.799587 0.205163
H23   H     H_    0.083623 0.104473 0.885905 0.224510
H24   H     H_    0.336245 0.108505 0.878103 0.222995

loop_
_geom_bond_atom_site_label_1
_geom_bond_atom_site_label_2
_ccdc_geom_bond_type
C9    C25   A    
C42   H22   S    
C10   C26   A    
O13   V3    S    
C14   C36   A    
C11   C31   A    
O4    C2    A    
V1    O19   S    
C17   C19   A    
O9    V1    S    
C9    H5    S    
C10   H6    S    
C38   H16   S    
O3    C1    A    
C27   C29   A    
C28   C30   A    
C21   C35   A    
C15   C17   A    
O9    C5    A    
C31   H7    S    
O7    C3    A    
C22   C30   A    
O5    C7    A    
C23   C31   A    
C6    C40   S    
O6    C8    A    
C14   C16   A    
C19   C21   A    
C20   C22   A    
O3    V1    S    
O14   V4    S    
C12   C32   A    
C9    C33   A    
C18   C20   A    
C2    C35   S    
C2    O12   A    
H4    C28   S    
C8    C12   S    
C15   C41   S    
C18   H12   S    
C10   C34   A    
O7    V1    S    
O11   V3    S    
C16   C18   A    
C23   C25   A    
O17   V3    S    
C24   C26   A    
C40   H18   S    
O8    C4    A    
O8    V2    S    
C39   H17   S    
C1    O11   A    
C24   C32   A    
O15   V3    S    
C37   H15   S    
C7    C11   S    
C41   H19   S    
C3    C38   S    
C13   C35   A    
O10   V2    S    
O1    V3    S    
C20   C24   A    
C14   H10   S    
C13   C15   A    
C17   H11   S    
C41   H20   S    
O18   V4    S    
C25   C27   A    
O16   C6    A    
C21   C29   A    
C11   C33   A    
C12   C34   A    
C22   C36   A    
C16   C42   S    
V2    O20   S    
C29   H13   S    
O16   V4    S    
C38   C40   D    
O5    V1    S    
O17   C7    A    
O6    V2    S    
O10   C6    A    
O18   C8    A    
C32   H8    S    
O2    V4    S    
C4    C37   S    
O15   C5    A    
V3    O19   S    
C1    C36   S    
V4    O20   S    
C37   C39   D    
C19   C23   A    
C30   H14   S    
O13   V1    S    
C26   C28   A    
O14   V2    S    
O2    C4    A    
O4    V2    S    
C41   H21   S    
O1    C3    A    
C13   H9    S    
C42   H24   S    
C42   H23   S    
H1    C33   S    
C5    C39   S    
H2    C34   S    
O12   V4    S    
H3    C27   S    
