data_mof_unit_40842.cif
_audit_creation_date              2012-10-26T20:25:35-0400
_audit_creation_method            fapswitch 2.2
_symmetry_space_group_name_H-M    P1
_symmetry_Int_Tables_number       1
_space_group_crystal_system       triclinic
_cell_length_a                    23.534111
_cell_length_b                    10.622646
_cell_length_c                    9.400818
_cell_angle_alpha                 89.898949
_cell_angle_beta                  90.162031
_cell_angle_gamma                 89.893786
_cell_volume                      2350.1359656

loop_
_atom_site_label
_atom_site_type_symbol
_atom_type_description
_atom_site_fract_x
_atom_site_fract_y
_atom_site_fract_z
_atom_type_partial_charge
C1    C     C_R   0.500087 0.259331 0.500191 0.543753
C2    C     C_R   0.703956 0.467672 0.377464 0.113784
C3    C     C_R   0.236356 0.462517 0.386025 -0.030466
C4    C     C_R   0.763416 0.470737 0.384080 -0.048628
C5    C     C_R   0.208822 0.499253 0.510980 0.210503
C6    C     C_R   0.791277 0.499750 0.511372 0.217789
C7    C     C_3   0.500300 0.040417 0.635298 -0.115537
C8    C     C_3   0.499480 0.959499 0.364651 -0.113280
C9    C     C_3   0.546719 0.957427 0.566673 -0.122610
C10   C     C_3   0.453062 0.042513 0.433261 -0.122122
C11   C     C_3   0.499777 0.877568 0.499151 0.044289
C12   C     C_R   0.499851 0.740649 0.499792 0.553539
C13   C     C_3   0.500031 0.122379 0.500780 0.043430
C14   C     C_3   0.453340 0.958257 0.567627 -0.123230
C15   C     C_3   0.546437 0.041606 0.432306 -0.124677
C16   C     C_R   0.390916 0.497915 0.499746 0.552280
C17   C     C_R   0.609093 0.498642 0.499994 0.557587
C18   C     C_3   0.540323 0.570215 0.050849 0.000234
C19   C     C_3   0.459691 0.429738 0.949178 -0.007394
C20   C     C_3   0.492664 0.612587 0.949282 -0.017404
C21   C     C_3   0.507352 0.387394 0.050758 -0.006661
C22   C     C_3   0.547706 0.457617 0.949996 -0.003706
C23   C     C_R   0.240586 0.533899 0.630163 -0.072790
C24   C     C_3   0.452302 0.542357 0.050021 -0.011093
C25   C     C_R   0.880446 0.611666 0.528377 0.402008
C26   C     C_R   0.119508 0.386946 0.509927 0.398208
C27   C     C_R   0.880616 0.387305 0.509056 0.400469
C28   C     C_R   0.119459 0.611400 0.527850 0.401840
C29   C     C_R   0.940190 0.384777 0.510928 0.029398
C30   C     C_R   0.059858 0.613699 0.530473 0.029102
C31   C     C_R   0.970029 0.499260 0.521242 -0.028757
C32   C     C_R   0.029991 0.499181 0.521305 -0.028603
C33   C     C_R   0.940050 0.613854 0.530648 0.028953
C34   C     C_R   0.759808 0.527140 0.633203 -0.071482
C35   C     C_R   0.059938 0.384616 0.511359 0.029718
C36   C     C_R   0.970485 0.270993 0.502127 -0.123671
C37   C     C_R   0.029544 0.727400 0.540614 -0.123505
C38   C     C_R   0.029753 0.270907 0.502433 -0.123589
C39   C     C_R   0.970253 0.727471 0.540781 -0.123464
C40   C     C_3   0.295324 0.417500 0.117888 -0.317028
C41   C     C_3   0.660930 0.303573 0.237448 -0.279202
C42   C     C_R   0.299610 0.532184 0.624886 -0.180060
C43   C     C_R   0.700692 0.525619 0.628156 -0.181915
C44   C     C_R   0.328090 0.495782 0.500097 0.012915
C45   C     C_R   0.671913 0.496663 0.500927 0.025907
C46   C     C_R   0.296093 0.459542 0.378505 0.121234
Cu1   Cu    Cu3+1 0.500010 0.499990 0.643150 0.915106
Cu2   Cu    Cu3+1 0.499990 0.500010 0.356850 0.938476
H1    H     H_    0.948535 0.181718 0.494443 0.168172
H2    H     H_    0.948210 0.816810 0.548199 0.168066
H3    H     H_    0.219426 0.561739 0.727333 0.136868
H4    H     H_    0.781260 0.549327 0.732063 0.135747
H5    H     H_    0.323040 0.560390 0.718893 0.128752
H6    H     H_    0.677489 0.548171 0.724167 0.127773
H7    H     H_    0.210490 0.434348 0.296347 0.130822
H8    H     H_    0.788209 0.448848 0.290354 0.124197
H9    H     H_    0.585006 0.919451 0.621188 0.116453
H10   H     H_    0.414794 0.080593 0.378731 0.111234
H11   H     H_    0.500649 0.076117 0.746236 0.115230
H12   H     H_    0.051498 0.816695 0.547899 0.168104
H13   H     H_    0.499143 0.923820 0.253705 0.115118
H14   H     H_    0.415291 0.920909 0.622910 0.116270
H15   H     H_    0.584565 0.077929 0.376731 0.099902
H16   H     H_    0.350028 0.337337 0.270013 0.259762
H17   H     H_    0.326557 0.401419 0.031513 0.132136
H18   H     H_    0.275124 0.510840 0.100014 0.156356
H19   H     H_    0.262955 0.341676 0.113071 0.151764
H20   H     H_    0.698973 0.464056 0.157832 0.237939
H21   H     H_    0.636913 0.287744 0.137252 0.126217
H22   H     H_    0.633241 0.277061 0.328051 0.160474
H23   H     H_    0.486368 0.707545 0.902307 0.106908
H24   H     H_    0.699355 0.242575 0.237594 0.147881
H25   H     H_    0.513710 0.292483 0.097809 0.101429
H26   H     H_    0.574218 0.629177 0.098812 0.115186
H27   H     H_    0.425894 0.370523 0.901207 0.100854
H28   H     H_    0.587836 0.421703 0.903221 0.102856
H29   H     H_    0.412234 0.578487 0.096869 0.129653
H30   H     H_    0.051787 0.181560 0.494959 0.168467
N1    N     N_R   0.852132 0.499599 0.517062 -0.398262
N2    N     N_R   0.147926 0.499217 0.517133 -0.399343
N3    N     N_3   0.500040 0.499970 0.858290 -0.228140
N4    N     N_3   0.499960 0.500030 0.141710 -0.226687
N5    N     N_2   0.324394 0.414948 0.253781 -0.505562
N6    N     N_2   0.677136 0.434595 0.246870 -0.500551
O1    O     O_R   0.500030 0.316850 0.620870 -0.503989
O2    O     O_2   0.148875 0.277956 0.501860 -0.495114
O3    O     O_2   0.851308 0.278536 0.499704 -0.494527
O4    O     O_2   0.148750 0.720345 0.534212 -0.491602
O5    O     O_R   0.499970 0.683150 0.379130 -0.505462
O6    O     O_R   0.500000 0.316860 0.379090 -0.515572
O7    O     O_R   0.500000 0.683140 0.620910 -0.507234
O8    O     O_R   0.417890 0.499960 0.620920 -0.510186
O9    O     O_R   0.582110 0.500040 0.379080 -0.462246
O10   O     O_R   0.417870 0.499970 0.379140 -0.478805
O11   O     O_R   0.582130 0.500030 0.620860 -0.515643
O12   O     O_2   0.850986 0.720550 0.535842 -0.491311

loop_
_geom_bond_atom_site_label_1
_geom_bond_atom_site_label_2
_ccdc_geom_bond_type
C1    O6    A    
C27   C29   A    
Cu1   O8    S    
C12   O7    A    
C2    N6    S    
C22   H28   S    
C29   C36   A    
C33   C39   A    
C23   C42   A    
Cu2   O10   S    
Cu1   O1    S    
C10   H10   S    
C17   C45   S    
C27   N1    A    
C42   H5    S    
C11   C14   S    
C14   H14   S    
C21   H25   S    
C24   N4    S    
C20   N3    S    
C34   H4    S    
C3    H7    S    
C7    C14   S    
C31   C32   A    
C40   H19   S    
C28   O4    S    
C31   C33   A    
C20   H23   S    
C17   O11   A    
C16   C44   S    
C18   C20   S    
C8    H13   S    
C18   H26   S    
Cu2   O6    S    
C21   C22   S    
C4    H8    S    
C40   N5    S    
C42   C44   A    
C7    H11   S    
C44   C46   A    
C2    C45   A    
C1    O1    A    
Cu2   O9    S    
H20   N6    S    
C22   N3    S    
C20   C24   S    
C12   O5    A    
C35   C38   A    
C4    C6    A    
C10   C14   S    
C38   H30   S    
C41   N6    S    
C26   N2    A    
C6    C34   A    
C30   C37   A    
C2    C4    A    
C32   C35   A    
H16   N5    S    
C43   C45   A    
C26   C35   A    
C43   H6    S    
C23   H3    S    
Cu1   Cu2   S    
C5    C23   A    
C26   O2    S    
C5    N2    S    
C27   O3    S    
C9    C11   S    
C41   H24   S    
C8    C10   S    
C16   O8    A    
C8    C15   S    
Cu2   O5    S    
C13   C15   S    
C17   O9    A    
C36   C38   A    
C41   H21   S    
C7    C9    S    
C15   H15   S    
C19   C21   S    
C18   C22   S    
Cu1   O7    S    
C34   C43   A    
C3    C5    A    
C10   C13   S    
C25   N1    A    
C11   C12   S    
C3    C46   A    
C16   O10   A    
C40   H17   S    
C19   H27   S    
C19   C24   S    
C9    C15   S    
C29   C31   A    
C30   C32   A    
C6    N1    S    
C8    C11   S    
C28   C30   A    
C18   N4    S    
Cu2   N4    S    
C9    H9    S    
Cu1   N3    S    
C28   N2    A    
C37   H12   S    
C46   N5    S    
C24   H29   S    
C7    C13   S    
C39   H2    S    
C1    C13   S    
C21   N4    S    
C25   O12   S    
C37   C39   A    
Cu1   O11   S    
C40   H18   S    
C19   N3    S    
C36   H1    S    
C25   C33   A    
C41   H22   S    
