data_mof_unit_67278.cif
_audit_creation_date              2012-12-11T18:18:08-0500
_audit_creation_method            fapswitch 2.2
_symmetry_space_group_name_H-M    P1
_symmetry_Int_Tables_number       1
_space_group_crystal_system       triclinic
_cell_length_a                    8.263976
_cell_length_b                    14.379929
_cell_length_c                    15.08282
_cell_angle_alpha                 95.616551
_cell_angle_beta                  98.339846
_cell_angle_gamma                 91.443093
_cell_volume                      1763.49286984

loop_
_atom_site_label
_atom_site_type_symbol
_atom_type_description
_atom_site_fract_x
_atom_site_fract_y
_atom_site_fract_z
_atom_type_partial_charge
Ba1   Ba    Ba6+2 0.833410 0.543320 0.453520 1.735175
Ba2   Ba    Ba6+2 0.356410 0.456750 0.546480 1.737988
Br1   Br    Br    0.457817 0.813253 0.310188 -0.648332
Br2   Br    Br    0.086697 0.889558 0.090095 -0.428981
Br3   Br    Br    0.484550 0.898001 0.753328 -0.540299
Br4   Br    Br    0.274163 0.240980 0.204284 -0.415485
Br5   Br    Br    0.606414 0.159307 0.127426 -0.362914
Br6   Br    Br    0.505199 0.861273 0.021101 -0.499858
Br7   Br    Br    0.824660 0.045942 0.861898 -0.488349
Br8   Br    Br    0.922366 0.335353 0.077739 -0.533947
Br9   Br    Br    0.063173 0.989859 0.656593 -0.595307
Br10  Br    Br    0.351533 0.079092 0.360072 -0.500474
C1    C     C_3   0.508402 0.874827 0.149950 0.192692
C2    C     C_R   0.115278 0.469414 0.205259 0.068033
C3    C     C_R   0.928215 0.477735 0.765905 -0.250478
C4    C     C_3   0.001155 0.757456 0.210877 0.317061
C5    C     C_R   0.836593 0.446075 0.828327 -0.040778
C6    C     C_R   0.895201 0.459516 0.919825 -0.095320
C7    C     C_R   0.055937 0.494320 0.951734 0.077710
C8    C     C_R   0.143638 0.534642 0.888116 -0.002210
C9    C     C_R   0.125574 0.497951 0.045941 0.035475
C10   C     C_R   0.276749 0.549687 0.075107 -0.040965
C11   C     C_R   0.357038 0.590441 0.011499 -0.047799
C12   C     C_3   0.473850 0.781544 0.185820 0.434057
C13   C     C_R   0.291933 0.583489 0.920784 -0.017682
C14   C     C_R   0.056505 0.448954 0.111756 0.210002
C15   C     C_R   0.258358 0.524799 0.231114 -0.295197
C16   C     C_3   0.936030 0.799779 0.124239 0.302976
C17   C     C_R   0.077411 0.526764 0.793909 0.022820
C18   C     C_R   0.694925 0.938595 0.567137 0.022306
C19   C     C_R   0.491575 0.805400 0.527443 0.064767
C20   C     C_R   0.329805 0.773321 0.496140 -0.191845
C21   C     C_R   0.212811 0.834420 0.464216 0.062356
C22   C     C_R   0.255487 0.928888 0.467897 0.007137
C23   C     C_3   0.487126 0.287632 0.263390 0.570944
C24   C     C_R   0.419907 0.962030 0.494739 0.050328
C25   C     C_R   0.536490 0.901853 0.531943 -0.011018
C26   C     C_R   0.630117 0.090188 0.512045 -0.067178
C27   C     C_R   0.742073 0.032707 0.561098 -0.025347
C28   C     C_3   0.056166 0.744370 0.751660 0.234860
C29   C     C_R   0.680358 0.185823 0.508334 0.055862
C30   C     C_R   0.832450 0.220826 0.553751 -0.323912
C31   C     C_R   0.947115 0.162943 0.594141 -0.040493
C32   C     C_R   0.902620 0.068478 0.598792 0.195938
C33   C     C_R   0.473251 0.048783 0.471753 0.297233
C34   C     C_3   0.594360 0.284361 0.189163 0.186511
C35   C     C_3   0.114773 0.803598 0.840272 -0.262750
C36   C     C_3   0.979045 0.260770 0.365432 0.332045
C37   C     C_3   0.940833 0.155634 0.348170 -0.285609
C38   C     C_3   0.578507 0.709697 0.725014 0.208137
C39   C     C_3   0.571571 0.786371 0.800766 0.127829
C40   C     C_3   0.120285 0.216221 0.800251 0.296104
C41   C     C_3   0.183173 0.196739 0.896440 0.068147
C42   C     C_3   0.706433 0.226316 0.820684 0.245547
C43   C     C_3   0.650768 0.133813 0.850369 0.166674
C44   C     C_R   0.345722 0.558939 0.167438 -0.021853
H1    H     H_    0.194774 0.863055 0.829441 0.222098
H2    H     H_    0.457439 0.702133 0.682835 0.090731
H3    H     H_    0.626042 0.907939 0.184766 0.110906
H4    H     H_    0.695196 0.802694 0.839835 0.149629
H5    H     H_    0.488875 0.762031 0.846022 0.089108
H6    H     H_    0.356230 0.750330 0.148788 0.027665
H7    H     H_    0.413818 0.924907 0.164792 0.177365
H8    H     H_    0.481397 0.360723 0.294258 -0.116085
H9    H     H_    0.554878 0.335502 0.140840 0.072064
H10   H     H_    0.719331 0.302856 0.219619 0.110916
H11   H     H_    0.084849 0.290354 0.799757 -0.028186
H12   H     H_    0.182568 0.760742 0.889332 0.128895
H13   H     H_    0.011077 0.169557 0.776406 0.016073
H14   H     H_    0.079186 0.191634 0.934867 0.136388
H15   H     H_    0.247888 0.129954 0.896838 0.159966
H16   H     H_    0.814823 0.255440 0.868555 0.024308
H17   H     H_    0.736771 0.213921 0.751113 -0.030122
H18   H     H_    0.547074 0.102145 0.800652 0.150724
H19   H     H_    0.905396 0.706820 0.223056 0.084759
H20   H     H_    0.608267 0.146526 0.916861 0.170008
H21   H     H_    0.308534 0.535998 0.301839 0.080047
H22   H     H_    0.472360 0.629060 0.030849 0.134343
H23   H     H_    0.007817 0.832326 0.868861 0.172198
H24   H     H_    0.877653 0.469564 0.695161 0.066007
H25   H     H_    0.809072 0.447590 0.964946 0.147143
H26   H     H_    0.359620 0.618298 0.876838 0.086612
H27   H     H_    0.297734 0.699267 0.490033 0.055518
H28   H     H_    0.161960 0.974463 0.441635 0.110339
H29   H     H_    0.113705 0.719371 0.202386 -0.010656
H30   H     H_    0.867193 0.293616 0.551940 0.049592
H31   H     H_    0.780711 0.893967 0.600957 0.138726
H32   H     H_    0.826373 0.838051 0.134785 0.133307
H33   H     H_    0.995651 0.790822 0.703604 0.147690
H34   H     H_    0.879588 0.295521 0.395769 -0.055061
H35   H     H_    0.962387 0.692418 0.764038 -0.002916
H36   H     H_    0.095039 0.272998 0.412451 0.084864
H37   H     H_    0.811362 0.141197 0.317888 0.155676
H38   H     H_    0.964445 0.122373 0.411746 0.037210
H39   H     H_    0.018339 0.122958 0.300582 0.227482
H40   H     H_    0.608625 0.643772 0.755195 0.039263
I1    I     I_    0.865119 0.696015 0.014111 -0.525682
I2    I     I_    0.340735 0.307966 0.965038 -0.343128
O1    O     O_2   0.841250 0.444240 0.280450 -0.476045
O2    O     O_2   0.281289 0.170646 0.577497 -0.447188
O3    O     O_3   0.240583 0.196562 0.745086 -0.521490
O4    O     O_3   0.112870 0.447390 0.393710 -0.510509
O5    O     O_3   0.560600 0.613720 0.540760 -0.484931
O6    O     O_2   0.387470 0.270310 0.467210 -0.438099
O7    O     O_3   0.549515 0.225673 0.324819 -0.602104
O8    O     O_2   0.504100 0.459910 0.823581 -0.444749
O9    O     O_3   0.576900 0.286874 0.822713 -0.539289
O10   O     O_3   0.597960 0.615760 0.327700 -0.434573
O11   O     O_2   0.682905 0.546328 0.173155 -0.460927
O12   O     O_3   0.703738 0.731064 0.676702 -0.649470
O13   O     O_3   0.994238 0.294799 0.283226 -0.549883
O14   O     O_3   0.603145 0.720846 0.177207 -0.598576
O15   O     O_2   0.802240 0.729720 0.532850 -0.447693
O16   O     O_3   0.017190 0.664840 0.371090 -0.508067
O17   O     O_2   0.868610 0.823918 0.413092 -0.443012
O18   O     O_3   0.035429 0.829838 0.281612 -0.567339
O19   O     O_2   0.348460 0.555790 0.719610 -0.482314
O20   O     O_3   0.076820 0.552690 0.606290 -0.475125
O21   O     O_3   0.591740 0.384320 0.672310 -0.470338
O22   O     O_3   0.189991 0.705655 0.714904 -0.630614
O23   O     O_3   0.629090 0.386360 0.459240 -0.492271
O24   O     O_3   0.172500 0.335240 0.628910 -0.479348
P1    P     P_3+3 0.018620 0.416870 0.295980 1.056457
P2    P     P_3+3 0.635650 0.716500 0.560900 1.021521
P3    P     P_3+3 0.031028 0.787042 0.386510 1.036734
P4    P     P_3+3 0.171070 0.583210 0.704020 0.980191
P5    P     P_3+3 0.157503 0.214669 0.634968 1.044443
P6    P     P_3+3 0.554767 0.610240 0.209965 1.005590
P7    P     P_3+3 0.563658 0.268055 0.439487 1.012715
P8    P     P_3+3 0.631051 0.394524 0.788903 1.028187

loop_
_geom_bond_atom_site_label_1
_geom_bond_atom_site_label_2
_ccdc_geom_bond_type
C16   I1    S    
C4    C16   S    
C28   C35   S    
C9    C14   A    
Br6   C1    S    
C4    H19   S    
C29   C30   A    
C7    C8    A    
C39   H5    S    
C35   H23   S    
Ba1   O1    S    
Ba2   O20   S    
C37   H38   S    
Ba1   O15   S    
C42   O9    S    
C24   C25   A    
C7    C9    A    
C19   P2    S    
C34   H10   S    
C26   C27   A    
O22   P4    S    
C8    C13   A    
Ba2   O4    S    
O2    P5    D    
C38   O12   S    
C6    H25   S    
Br4   C23   S    
C3    C5    A    
Ba1   Ba2   S    
O24   P5    S    
C26   C33   A    
C40   H13   S    
O12   P2    S    
C43   H18   S    
C19   C20   A    
C12   O14   S    
C16   H32   S    
C23   H8    S    
C30   H30   S    
C2    C15   A    
O19   P4    D    
Ba1   O5    S    
O21   P8    S    
Br8   C14   S    
C11   C13   A    
C28   H35   S    
C36   H34   S    
C9    C10   A    
Br1   C12   S    
C22   H28   S    
O9    P8    S    
C41   H14   S    
C4    O18   S    
Br2   C16   S    
Ba2   O19   S    
C3    C17   A    
C8    C17   A    
Ba2   O24   S    
C40   O3    S    
O13   P1    S    
C38   H2    S    
Br5   C34   S    
Br9   C32   S    
C26   C29   A    
Ba1   O16   S    
C31   P5    S    
O16   P3    S    
C15   C44   A    
C6    C7    A    
O7    P7    S    
C38   C39   S    
C2    C14   A    
C19   C25   A    
C18   C25   A    
C31   C32   A    
Ba1   P1    S    
C23   O7    S    
C35   H1    S    
C42   H17   S    
O11   P6    D    
C3    H24   S    
C1    H7    S    
Ba2   O6    S    
C21   P3    S    
C5    C6    A    
C24   C33   A    
C37   H39   S    
C40   H11   S    
C34   H9    S    
Br7   C43   S    
C43   H20   S    
Ba2   P4    S    
O5    P2    S    
C36   C37   S    
C28   O22   S    
O6    P7    D    
C4    H29   S    
C28   H33   S    
C30   C31   A    
O4    P1    S    
C41   H15   S    
C35   H12   S    
C40   C41   S    
O1    P1    D    
Ba2   O23   S    
O8    P8    D    
C20   H27   S    
C42   C43   S    
C12   H6    S    
C2    P1    S    
C5    P8    S    
O23   P7    S    
Br10  C33   S    
C15   H21   S    
C10   C44   A    
Ba2   O21   S    
C27   C32   A    
C1    H3    S    
C41   I2    S    
O20   P4    S    
O17   P3    D    
O18   P3    S    
C20   C21   A    
Ba1   P2    S    
C29   P7    S    
C38   H40   S    
C13   H26   S    
O15   P2    D    
Ba2   O5    S    
O3    P5    S    
C21   C22   A    
C18   C27   A    
C22   C24   A    
Ba1   O20   S    
C44   P6    S    
C11   H22   S    
Ba1   O23   S    
O14   P6    S    
Ba1   O10   S    
C36   O13   S    
C42   H16   S    
C1    C12   S    
C36   H36   S    
C10   C11   A    
Br3   C39   S    
C39   H4    S    
O10   P6    S    
C37   H37   S    
C18   H31   S    
C17   P4    S    
C23   C34   S    
Ba1   O4    S    
