data_mof_unit_40220.cif
_audit_creation_date              2013-03-05T15:48:30-0500
_audit_creation_method            fapswitch 2.2
_symmetry_space_group_name_H-M    P1
_symmetry_Int_Tables_number       1
_space_group_crystal_system       triclinic
_cell_length_a                    19.979028
_cell_length_b                    7.245749
_cell_length_c                    14.067691
_cell_angle_alpha                 89.994578
_cell_angle_beta                  103.845212
_cell_angle_gamma                 90.008787
_cell_volume                      1977.31299804

loop_
_atom_site_label
_atom_site_type_symbol
_atom_site_description
_atom_site_fract_x
_atom_site_fract_y
_atom_site_fract_z
_atom_type_partial_charge
O1    O     O_R   0.449830 0.506740 0.599960 -0.594020
O2    O     O_R   0.550170 0.006740 0.400040 -0.593930
O3    O     O_R   0.588980 0.179860 0.596720 -0.599177
O4    O     O_R   0.411020 0.679860 0.403280 -0.598924
C1    C     C_R   0.616597 0.344486 0.616062 0.972495
C2    C     C_R   0.383390 0.844473 0.383991 0.972765
O5    O     O_R   0.452740 0.177340 0.612040 -0.589750
O6    O     O_R   0.547260 0.677340 0.387960 -0.589687
O7    O     O_R   0.412960 0.002070 0.415460 -0.601747
O8    O     O_R   0.587040 0.502070 0.584540 -0.601693
C3    C     C_R   0.434914 0.345283 0.633626 0.926915
C4    C     C_R   0.565069 0.845310 0.366341 0.926949
O9    O     O_3   0.487110 0.337570 0.435490 -0.289527
O10   O     O_3   0.512890 0.837570 0.564510 -0.289785
V1    V     V_3+5 0.502390 0.064650 0.511970 1.191616
V2    V     V_3+5 0.497610 0.564650 0.488030 1.191744
C5    C     C_R   0.607194 0.852906 0.125017 -0.023767
C6    C     C_R   0.392815 0.353602 0.874917 -0.023778
H1    H     H_    0.514288 0.838824 0.174236 0.137188
H2    H     H_    0.485713 0.339366 0.825700 0.137235
H3    H     H_    0.578453 0.854051 0.049225 0.181908
H4    H     H_    0.421569 0.355118 0.950699 0.181984
C7    C     C_R   0.604689 0.852114 0.293428 -0.115738
C8    C     C_R   0.395294 0.352054 0.706519 -0.115589
C9    C     C_R   0.937495 0.831771 0.311555 -0.201609
C10   C     C_R   0.062515 0.331250 0.688520 -0.200934
C11   C     C_R   0.905337 0.804143 0.387584 -0.247265
C12   C     C_R   0.094667 0.303325 0.612518 -0.247358
C13   C     C_R   0.832887 0.802410 0.371123 0.547485
C14   C     C_R   0.167115 0.301774 0.628960 0.547665
C15   C     C_R   0.791137 0.840822 0.275445 -0.002349
C16   C     C_R   0.208863 0.340718 0.724569 -0.002244
C17   C     C_R   0.825466 0.863280 0.197939 -0.038222
C18   C     C_R   0.174543 0.363548 0.802060 -0.038340
C19   C     C_R   0.716741 0.850719 0.251611 0.036270
C20   C     C_R   0.283255 0.350772 0.748358 0.036348
C21   C     C_R   0.679722 0.860016 0.151566 0.011486
C22   C     C_R   0.320285 0.360625 0.848370 0.011811
C23   C     C_R   0.714492 0.881588 0.078163 0.610641
C24   C     C_R   0.285536 0.382717 0.921742 0.609629
C25   C     C_R   0.786297 0.887932 0.102398 -0.165884
C26   C     C_R   0.213723 0.388829 0.897553 -0.166163
C27   C     C_R   0.676799 0.858045 0.322011 -0.135813
C28   C     C_R   0.323183 0.357778 0.677937 -0.135918
C29   C     C_R   0.570105 0.845383 0.195696 -0.194163
C30   C     C_R   0.429893 0.345759 0.804245 -0.194377
C31   C     C_R   0.898639 0.857580 0.216292 -0.100497
C32   C     C_R   0.101374 0.357598 0.783734 -0.100677
H5    H     H_    0.699129 0.875481 0.398962 0.173037
H6    H     H_    0.300842 0.374885 0.600967 0.172872
H7    H     H_    0.993285 0.827085 0.326757 0.170532
H8    H     H_    0.006728 0.326343 0.673347 0.170165
H9    H     H_    0.937485 0.777167 0.459919 0.142856
H10   H     H_    0.062519 0.275934 0.540233 0.142653
H11   H     H_    0.812034 0.908155 0.045078 0.199533
H12   H     H_    0.187997 0.409445 0.954860 0.199490
C33   C     C_3   0.238355 0.707808 0.154800 0.533498
C34   C     C_3   0.761825 0.206834 0.844915 0.533795
C35   C     C_3   0.313520 0.737650 0.221290 -0.455394
C36   C     C_3   0.686651 0.236091 0.778394 -0.455974
H13   H     H_    0.347920 0.811863 0.183177 0.218201
H14   H     H_    0.652016 0.308934 0.816676 0.218211
H15   H     H_    0.340866 0.604173 0.239489 0.208842
H16   H     H_    0.659723 0.102117 0.759643 0.208296
H17   H     H_    0.266983 0.632685 0.387396 0.229206
H18   H     H_    0.733250 0.134564 0.611785 0.229068
C37   C     C_3   0.181637 0.801787 0.295617 0.901554
C38   C     C_3   0.818410 0.303485 0.704238 0.901595
C39   C     C_3   0.225344 0.045811 0.195159 0.178063
C40   C     C_3   0.774441 0.545436 0.805474 0.175683
C41   C     C_3   0.188270 0.852846 0.188585 -0.452571
C42   C     C_3   0.811725 0.352881 0.811457 -0.451178
H19   H     H_    0.189156 0.150151 0.210729 0.192938
H20   H     H_    0.810549 0.650113 0.790128 0.194293
C43   C     C_3   0.312562 0.851414 0.314668 -0.095609
C44   C     C_3   0.687424 0.351431 0.685412 -0.094426
C45   C     C_3   0.256170 0.778466 0.364886 -0.539897
C46   C     C_3   0.743896 0.280123 0.634894 -0.539712
C47   C     C_3   0.291166 0.050112 0.281444 -0.431640
C48   C     C_3   0.708545 0.550013 0.719318 -0.433279
H21   H     H_    0.334412 0.125789 0.262160 0.238623
H22   H     H_    0.665214 0.624724 0.738935 0.237294
H23   H     H_    0.280747 0.128858 0.344232 0.187326
H24   H     H_    0.718784 0.629784 0.656725 0.188647
H25   H     H_    0.259703 0.853849 0.434842 0.157452
H26   H     H_    0.740255 0.356612 0.565220 0.157482
O11   O     O_R   0.912980 0.203550 0.915410 -0.522997
O12   O     O_R   0.087020 0.703550 0.084590 -0.522778
O13   O     O_R   0.047270 0.535570 0.887960 -0.575280
O14   O     O_R   0.952730 0.035570 0.112040 -0.575183
C49   C     C_R   0.063986 0.368075 0.862988 0.956049
C50   C     C_R   0.936035 0.868054 0.137039 0.955824
O15   O     O_R   0.911030 0.532970 0.903270 -0.577716
O16   O     O_R   0.088970 0.032970 0.096730 -0.578024
O17   O     O_R   0.949820 0.708150 0.099970 -0.566926
O18   O     O_R   0.050180 0.208150 0.900030 -0.566844
C51   C     C_R   0.884266 0.363903 0.881138 1.082155
C52   C     C_R   0.115733 0.863900 0.118878 1.081976
O19   O     O_3   0.012900 0.375230 0.064480 -0.261716
O20   O     O_3   0.987100 0.875230 0.935520 -0.261430
V3    V     V_3+5 0.997610 0.648190 0.988040 1.360459
V4    V     V_3+5 0.002390 0.148190 0.011960 1.360304
N1    N     N_R   0.238089 0.732455 0.049482 0.215657
O21   O     O_R   0.294753 0.758469 0.020912 -0.356882
O22   O     O_R   0.180612 0.734708 0.982386 -0.400224
N2    N     N_R   0.761996 0.230620 0.950268 0.215831
O23   O     O_R   0.705282 0.255833 0.978817 -0.356950
O24   O     O_R   0.819444 0.233264 0.017413 -0.399661
O25   O     O_3   0.144777 0.635761 0.293420 -0.696723
H27   H     H_    0.139187 0.613085 0.360737 0.328358
O26   O     O_3   0.855511 0.138006 0.705880 -0.696542
H28   H     H_    0.861126 0.116417 0.638479 0.328452
N3    N     N_R   0.242270 0.093648 0.102007 0.264921
O27   O     O_R   0.193371 0.105460 0.022729 -0.374990
O28   O     O_R   0.305736 0.092306 0.093674 -0.372248
N4    N     N_R   0.757610 0.592137 0.898806 0.263785
O29   O     O_R   0.806613 0.603762 0.977980 -0.375533
O30   O     O_R   0.694194 0.589562 0.907360 -0.371673
O31   O     O_3   0.143415 0.939584 0.330612 -0.808634
H29   H     H_    0.174017 0.043798 0.357763 0.307285
O32   O     O_3   0.856447 0.442409 0.669693 -0.808097
H30   H     H_    0.825691 0.546478 0.642787 0.308055
O33   O     O_3   0.676446 0.903356 0.983062 -0.704831
H31   H     H_    0.707966 0.914394 0.939177 0.358106
O34   O     O_3   0.323625 0.405238 0.016748 -0.704855
H32   H     H_    0.292132 0.416367 0.060627 0.358855
O35   O     O_3   0.803535 0.749742 0.446260 -0.799237
H33   H     H_    0.839964 0.733194 0.507318 0.323462
O36   O     O_3   0.196472 0.248770 0.553892 -0.799532
H34   H     H_    0.160043 0.231883 0.492865 0.322830
N5    N     N_R   0.217216 0.517260 0.170448 0.216521
O37   O     O_R   0.166094 0.438114 0.109797 -0.384270
O38   O     O_R   0.246009 0.429577 0.250300 -0.482316
N6    N     N_R   0.783276 0.016740 0.828994 0.216146
O39   O     O_R   0.833950 0.937140 0.890293 -0.385950
O40   O     O_R   0.755419 0.930320 0.748284 -0.481722

loop_
_geom_bond_atom_site_label_1
_geom_bond_atom_site_label_2
_geom_bond_distance
_ccdc_geom_bond_type
C14   C16   1.430888 A    
C7    C29   1.383980 A    
O18   V4    2.073409 S    
C11   C13   1.410171 A    
C31   C50   1.485133 S    
O26   H28   0.993504 S    
C37   C45   1.581488 S    
C48   H24   1.112368 S    
O2    C4    1.322585 A    
C2    O7    1.312892 A    
O12   V3    2.008815 S    
C7    C27   1.400654 A    
O33   H31   0.984951 S    
C23   C25   1.393659 A    
C34   N6    1.475526 S    
O5    C3    1.323555 A    
C4    C7    1.438643 S    
C39   N3    1.470953 S    
C16   C20   1.445080 A    
C19   C21   1.426233 A    
C5    C29   1.375973 A    
O36   H34   0.991308 S    
C33   C35   1.582565 S    
N2    O23   1.302469 A    
O16   C52   1.343164 A    
C34   C36   1.582333 S    
C3    C8    1.438398 S    
C23   O33   1.380505 S    
N4    O29   1.297774 A    
C36   H14   1.107222 S    
C39   C41   1.574500 S    
O14   V4    2.073765 S    
C26   H12   1.065263 S    
C49   O18   1.326265 A    
C37   O25   1.406874 S    
C25   H11   1.065131 S    
C18   C26   1.395591 A    
C47   H23   1.112308 S    
C32   C49   1.485044 S    
O1    C3    1.322524 A    
C40   H20   1.103010 S    
C15   C17   1.429519 A    
C39   H19   1.103761 S    
O13   C49   1.328228 A    
C19   C27   1.413751 A    
C9    C31   1.391276 A    
C10   C32   1.391258 A    
O3    C1    1.315049 A    
C46   H26   1.113068 S    
C24   C26   1.393775 A    
C45   H25   1.112953 S    
O6    V2    2.073724 S    
C33   N1    1.491022 S    
C6    C30   1.375833 A    
C42   C51   1.545257 S    
C38   C46   1.581586 S    
H18   C46   1.109135 S    
C41   C52   1.545361 S    
C35   H13   1.106879 S    
H17   C45   1.109039 S    
C40   C48   1.561942 S    
C2    C43   1.515098 S    
C48   H22   1.110476 S    
O15   V3    2.030696 S    
C47   H21   1.110315 S    
C12   H10   1.083223 S    
C27   H5    1.075040 S    
N6    O40   1.299461 A    
O5    V1    2.073947 S    
C40   N4    1.470676 S    
C36   C44   1.555354 S    
C50   O17   1.326325 A    
C5    H3    1.083325 S    
H1    C29   1.084369 S    
C38   C42   1.586663 S    
C34   N2    1.491261 S    
C38   O26   1.407018 S    
C16   C18   1.429571 A    
O4    V2    2.030826 S    
C37   O31   1.415146 S    
C9    H7    1.084081 S    
C10   H8    1.084087 S    
O11   V4    2.008875 S    
O15   C51   1.343027 A    
O14   C50   1.328204 A    
O6    C4    1.323608 A    
O20   V4    2.237041 S    
N1    O22   1.300415 A    
O1    V2    2.070221 S    
C5    C21   1.408132 A    
C33   C41   1.599892 S    
O2    V1    2.070341 S    
C43   C45   1.558356 S    
O32   H30   0.989054 S    
O4    C2    1.315083 A    
O19   V3    2.236944 S    
C13   O35   1.379607 S    
O34   H32   0.984548 S    
C17   C31   1.423006 A    
C15   C19   1.445125 A    
C20   C28   1.413700 A    
C18   C32   1.423010 A    
O35   H33   0.991316 S    
C35   C43   1.554884 S    
O3    V1    2.030701 S    
N3    O27   1.297738 A    
C28   H6    1.075038 S    
O13   V3    2.073988 S    
C6    H4    1.083308 S    
C10   C12   1.387621 A    
C33   N5    1.475570 S    
C44   C48   1.542572 S    
C44   C46   1.558518 S    
N5    O38   1.298891 A    
C38   O32   1.415403 S    
O31   H29   0.988959 S    
C11   H9    1.083242 S    
N6    O39   1.297502 A    
C9    C11   1.387658 A    
C14   O36   1.379604 S    
C35   H15   1.110208 S    
C36   H16   1.110554 S    
C8    C30   1.383876 A    
C1    C44   1.515250 S    
C20   C22   1.426097 A    
C6    C22   1.408153 A    
C17   C25   1.395486 A    
C1    O8    1.312967 A    
C13   C15   1.430918 A    
O8    V2    2.020007 S    
O25   H27   0.993408 S    
C22   C24   1.384214 A    
C34   C42   1.599821 S    
N2    O24   1.300415 A    
C8    C28   1.400645 A    
C24   O34   1.380297 S    
C12   C14   1.410134 A    
O20   V3    1.794956 S    
N4    O30   1.301176 A    
C37   C41   1.586468 S    
O7    V1    2.019938 S    
H2    C30   1.084369 S    
C39   C47   1.561965 S    
O17   V3    2.073533 S    
O19   V4    1.795025 S    
O16   V4    2.030823 S    
C21   C23   1.384389 A    
O9    V2    1.795394 S    
N1    O21   1.302468 A    
O10   V1    1.795325 S    
C40   C42   1.574435 S    
N3    O28   1.301054 A    
C43   C47   1.542209 S    
O12   C52   1.333835 A    
N5    O37   1.297260 A    
O11   C51   1.333877 A    
