data_mof_unit_32097.cif
_audit_creation_date              2012-12-10T17:44:55-0500
_audit_creation_method            fapswitch 2.2
_symmetry_space_group_name_H-M    P1
_symmetry_Int_Tables_number       1
_space_group_crystal_system       triclinic
_cell_length_a                    15.045078
_cell_length_b                    13.709079
_cell_length_c                    19.430075
_cell_angle_alpha                 89.988701
_cell_angle_beta                  90.305356
_cell_angle_gamma                 89.630423
_cell_volume                      4007.39346381

loop_
_atom_site_label
_atom_site_type_symbol
_atom_type_description
_atom_site_fract_x
_atom_site_fract_y
_atom_site_fract_z
_atom_type_partial_charge
C1    C     C_R   0.328590 0.500269 0.500120 0.802657
C2    C     C_R   0.671191 0.499688 0.499095 0.800059
C3    C     C_R   0.814076 0.421374 0.527326 -0.216833
C4    C     C_R   0.185177 0.578602 0.471258 -0.205386
C5    C     C_R   0.906733 0.422415 0.530521 0.019255
C6    C     C_R   0.092356 0.579231 0.470354 0.026054
C7    C     C_R   0.952952 0.501186 0.500588 -0.017980
C8    C     C_R   0.046168 0.501547 0.501891 -0.019756
C9    C     C_R   0.905594 0.578245 0.467832 0.024701
C10   C     C_R   0.093431 0.423384 0.533512 0.026725
C11   C     C_R   0.953234 0.346125 0.563659 0.369275
C12   C     C_R   0.045469 0.655519 0.437474 0.372055
C13   C     C_R   0.046662 0.346073 0.565208 -0.109468
C14   C     C_R   0.951997 0.654242 0.434868 -0.121139
C15   C     C_R   0.423025 0.794416 0.486624 -0.004192
C16   C     C_R   0.577324 0.205791 0.512736 -0.028336
C17   C     C_R   0.577121 0.793259 0.513458 -0.016789
C18   C     C_R   0.423245 0.206690 0.485923 0.011306
C19   C     C_R   0.579192 0.896120 0.513091 -0.003734
C20   C     C_R   0.421555 0.103949 0.485767 -0.010346
C21   C     C_R   0.421307 0.897284 0.486704 -0.007711
C22   C     C_R   0.579395 0.102905 0.512506 -0.019868
C23   C     C_R   0.500336 0.948362 0.499694 0.081523
C24   C     C_R   0.500464 0.051759 0.499253 0.094655
C25   C     C_R   0.657869 0.947739 0.526386 -0.214586
C26   C     C_R   0.342851 0.052444 0.472720 -0.198497
C27   C     C_R   0.342770 0.950033 0.473298 -0.215173
C28   C     C_R   0.657998 0.050222 0.526152 -0.222685
C29   C     C_R   0.501360 0.499815 0.367241 0.850545
C30   C     C_R   0.500323 0.499886 0.632870 0.837594
C31   C     C_R   0.524958 0.584621 0.253912 0.379245
C32   C     C_R   0.513777 0.410659 0.746069 0.372939
C33   C     C_R   0.488328 0.586860 0.746921 0.380615
C34   C     C_R   0.488326 0.411146 0.254170 0.393000
C35   C     C_R   0.528464 0.581863 0.181935 -0.257214
C36   C     C_R   0.516291 0.411369 0.818029 -0.258728
C37   C     C_R   0.486251 0.584371 0.818906 -0.257600
C38   C     C_R   0.488275 0.411631 0.182300 -0.237586
C39   C     C_R   0.508170 0.496570 0.145784 -0.068528
C40   C     C_R   0.501666 0.497494 0.854809 -0.064656
C41   C     C_R   0.504577 0.498712 0.290992 -0.237163
C42   C     C_R   0.500741 0.499200 0.709340 -0.234187
C43   C     C_R   0.503513 0.497036 0.930546 0.460318
C44   C     C_R   0.507423 0.496521 0.070039 0.462099
C45   C     C_R   0.812595 0.576266 0.467753 -0.214661
C46   C     C_R   0.186504 0.423425 0.530994 -0.219842
C47   C     C_R   0.767538 0.498992 0.497912 -0.086519
C48   C     C_R   0.231848 0.500868 0.500860 -0.078226
Cu1   Cu    Cu3+1 0.500000 0.597420 0.500000 0.962089
Cu2   Cu    Cu3+1 0.500000 0.402580 0.500000 0.953674
H1    H     H_    0.547909 0.646939 0.154379 0.170168
H2    H     H_    0.530418 0.343763 0.844944 0.174178
H3    H     H_    0.472991 0.651447 0.846585 0.173507
H4    H     H_    0.472081 0.345037 0.155192 0.170742
H5    H     H_    0.774106 0.633841 0.443515 0.167107
H6    H     H_    0.224750 0.363639 0.552659 0.153789
H7    H     H_    0.777280 0.361488 0.549400 0.175674
H8    H     H_    0.221766 0.637397 0.447460 0.170892
H9    H     H_    0.362615 0.755336 0.475252 0.131563
H10   H     H_    0.637626 0.245005 0.524163 0.141279
H11   H     H_    0.637490 0.753389 0.525014 0.138859
H12   H     H_    0.362770 0.246521 0.474631 0.143688
H13   H     H_    0.719210 0.908858 0.537394 0.131435
H14   H     H_    0.281475 0.091445 0.462103 0.146773
H15   H     H_    0.281585 0.911954 0.462732 0.138974
H16   H     H_    0.719472 0.088196 0.536848 0.149718
N1    N     N_R   0.503895 0.411488 0.034410 -0.248826
N2    N     N_R   0.506976 0.582027 0.966192 -0.249194
N3    N     N_R   0.502184 0.411735 0.965975 -0.248830
N4    N     N_R   0.508966 0.581769 0.034591 -0.248488
N5    N     N_R   0.500000 0.743810 0.500000 -0.180115
N6    N     N_R   0.500000 0.256190 0.500000 -0.184118
O1    O     O_R   0.370260 0.582280 0.500020 -0.598527
O2    O     O_R   0.629740 0.417720 0.499980 -0.602217
O3    O     O_R   0.629740 0.582280 0.499980 -0.599120
O4    O     O_R   0.370260 0.417720 0.500020 -0.599077
O5    O     O_R   0.499990 0.582300 0.400140 -0.545899
O6    O     O_R   0.500010 0.417700 0.599860 -0.547093
O7    O     O_R   0.500010 0.582300 0.599860 -0.540725
O8    O     O_R   0.499990 0.417700 0.400140 -0.555444
O9    O     O_3   0.551352 0.668438 0.287867 -0.586869
C49   C     C_3   0.484606 0.740762 0.280658 0.082810
H17   H     H_    0.422834 0.717031 0.307111 0.146381
H18   H     H_    0.469168 0.756163 0.225565 0.128924
C50   C     C_3   0.517259 0.835160 0.313632 -0.309412
H19   H     H_    0.535017 0.821210 0.368198 0.239975
H20   H     H_    0.578029 0.860306 0.286812 0.215965
C51   C     C_3   0.446329 0.915086 0.309976 -0.929146
H21   H     H_    0.434118 0.936675 0.255632 0.256329
H22   H     H_    0.469108 0.979844 0.339262 0.272591
H23   H     H_    0.383151 0.889372 0.332794 0.259447
O10   O     O_3   0.533422 0.324412 0.712370 -0.593366
C52   C     C_3   0.457759 0.263766 0.712791 0.084999
H24   H     H_    0.406939 0.293178 0.676279 0.159889
H25   H     H_    0.427497 0.257948 0.764906 0.117276
C53   C     C_3   0.485628 0.161376 0.690241 -0.322695
H26   H     H_    0.525828 0.166202 0.642871 0.240774
H27   H     H_    0.527680 0.127529 0.731062 0.209773
C54   C     C_3   0.405382 0.096853 0.676253 -0.926150
H28   H     H_    0.366665 0.086904 0.724196 0.248912
H29   H     H_    0.427917 0.024329 0.657675 0.262494
H30   H     H_    0.362260 0.130078 0.635911 0.270283
O11   O     O_3   0.471604 0.674555 0.713885 -0.585436
C55   C     C_3   0.548354 0.733304 0.718213 0.080862
H31   H     H_    0.601063 0.702871 0.684199 0.144065
H32   H     H_    0.574840 0.738039 0.771825 0.127337
C56   C     C_3   0.524982 0.836628 0.694639 -0.315078
H33   H     H_    0.497282 0.834318 0.641634 0.235177
H34   H     H_    0.473307 0.867849 0.729032 0.218762
C57   C     C_3   0.606576 0.902231 0.696152 -0.936297
H35   H     H_    0.630021 0.912458 0.749949 0.255136
H36   H     H_    0.589461 0.974596 0.674062 0.269501
H37   H     H_    0.661115 0.869623 0.665305 0.254104
O12   O     O_3   0.467177 0.325378 0.287770 -0.593163
C58   C     C_3   0.544136 0.265788 0.295075 0.099320
H38   H     H_    0.551337 0.246698 0.350415 0.184441
H39   H     H_    0.607582 0.301630 0.279630 0.115267
C59   C     C_3   0.532464 0.171402 0.254220 -0.354422
H40   H     H_    0.469324 0.135982 0.269469 0.234344
H41   H     H_    0.528818 0.188396 0.198385 0.216143
C60   C     C_3   0.609689 0.100785 0.267126 -0.940490
H42   H     H_    0.673511 0.134610 0.251856 0.258575
H43   H     H_    0.599924 0.033666 0.236121 0.262868
H44   H     H_    0.613113 0.080260 0.322420 0.259650
O13   O     O_3   0.907348 0.267529 0.590506 -0.620747
C61   C     C_3   0.880963 0.288874 0.658620 0.035479
H45   H     H_    0.856377 0.365440 0.664397 0.132425
H46   H     H_    0.938177 0.277361 0.694284 0.162982
C62   C     C_3   0.805753 0.219886 0.678366 -0.329241
H47   H     H_    0.750619 0.226820 0.640298 0.218127
H48   H     H_    0.830607 0.143363 0.677280 0.221401
C63   C     C_3   0.769682 0.242736 0.749859 -0.873743
H49   H     H_    0.823255 0.235378 0.789106 0.246783
H50   H     H_    0.715708 0.190915 0.762464 0.259683
H51   H     H_    0.742026 0.318049 0.751379 0.267697
O14   O     O_3   0.091311 0.727129 0.402336 -0.617464
C64   C     C_3   0.093581 0.813495 0.442107 0.042741
H52   H     H_    0.153586 0.811946 0.475673 0.126647
H53   H     H_    0.034485 0.823083 0.475983 0.138926
C65   C     C_3   0.098188 0.900789 0.393299 -0.292750
H54   H     H_    0.162837 0.899622 0.365871 0.209288
H55   H     H_    0.043978 0.895585 0.354388 0.242416
C66   C     C_3   0.088078 0.997048 0.431810 -0.963866
H56   H     H_    0.021499 0.001619 0.456100 0.260586
H57   H     H_    0.094966 0.058824 0.395311 0.263352
H58   H     H_    0.140032 0.003340 0.472176 0.248623
C67   C     C_R   0.093304 0.265232 0.601629 0.143999
C68   C     C_R   0.142620 0.283907 0.661769 -0.201854
C69   C     C_R   0.182881 0.207093 0.697864 -0.148670
C70   C     C_R   0.173328 0.111213 0.674657 -0.108610
C71   C     C_R   0.124466 0.092083 0.614905 -0.161397
C72   C     C_R   0.084611 0.168753 0.578396 -0.087491
H59   H     H_    0.149214 0.357752 0.680844 0.131813
H60   H     H_    0.220962 0.221800 0.744087 0.129767
H61   H     H_    0.203682 0.051657 0.703001 0.131458
H62   H     H_    0.116923 0.017721 0.597268 0.127798
H63   H     H_    0.046171 0.153128 0.532509 0.147934
C73   C     C_R   0.904528 0.730501 0.394398 0.156895
C74   C     C_R   0.858637 0.806450 0.427683 -0.200016
C75   C     C_R   0.814457 0.878099 0.389025 -0.131398
C76   C     C_R   0.815330 0.874069 0.317180 -0.107817
C77   C     C_R   0.860962 0.798768 0.283799 -0.150103
C78   C     C_R   0.905682 0.727291 0.322209 -0.090762
H64   H     H_    0.857417 0.810102 0.483348 0.114409
H65   H     H_    0.779698 0.936954 0.414598 0.142525
H66   H     H_    0.780805 0.929414 0.287396 0.129733
H67   H     H_    0.861756 0.795837 0.228145 0.133879
H68   H     H_    0.940894 0.669299 0.295830 0.135058

loop_
_geom_bond_atom_site_label_1
_geom_bond_atom_site_label_2
_ccdc_geom_bond_type
C66   H58   S    
C9    C45   A    
C52   H24   S    
C28   H16   S    
C67   C68   A    
C16   N6    A    
C65   C66   S    
C69   H60   S    
Cu1   N5    S    
C55   H32   S    
C76   C77   A    
C7    C8    A    
C32   O10   S    
C50   H19   S    
C25   C28   A    
C64   H53   S    
C26   C27   A    
C61   H45   S    
C14   C73   S    
C33   C42   A    
C32   C36   A    
C11   O13   S    
C65   H55   S    
C5    C11   A    
C37   C40   A    
Cu2   O2    S    
C16   H10   S    
C38   C39   A    
C58   H38   S    
C53   C54   S    
C7    C9    A    
C25   H13   S    
C26   H14   S    
C57   H35   S    
C60   H44   S    
Cu2   N6    S    
C17   H11   S    
C59   H40   S    
C40   C43   S    
C20   C24   A    
C63   H49   S    
C58   H39   S    
C53   H27   S    
C10   C46   A    
C16   C22   A    
C23   C24   A    
Cu1   O3    S    
C44   N4    A    
C18   C20   A    
C76   H66   S    
C36   H2    S    
C62   C63   S    
C37   H3    S    
C45   C47   A    
C21   C27   A    
C52   H25   S    
C22   C28   A    
C56   H34   S    
C34   C41   A    
Cu2   O6    S    
C55   H31   S    
O9    C49   S    
C59   H41   S    
C50   H20   S    
C18   N6    A    
C64   C65   S    
C46   C48   A    
C36   C40   A    
C65   H54   S    
C4    C6    A    
C5    C7    A    
C18   H12   S    
C6    C8    A    
C61   C62   S    
C71   H62   S    
C49   H17   S    
C33   C37   A    
Cu1   O7    S    
N1    N3    A    
C59   C60   S    
C34   C38   A    
C19   C23   A    
C9    C14   A    
C27   H15   S    
Cu2   O4    S    
C74   C75   A    
C38   H4    S    
C51   H23   S    
C71   C72   A    
C58   C59   S    
C53   H26   S    
C75   H65   S    
C68   C69   A    
C57   H37   S    
C60   H42   S    
C73   C78   A    
C63   H50   S    
C30   O7    A    
C3    H7    S    
C8    C10   A    
C54   H29   S    
C12   C14   A    
C17   N5    A    
C52   C53   S    
C49   H18   S    
C70   H61   S    
C21   C23   A    
C35   H1    S    
O13   C61   S    
C56   C57   S    
C22   C24   A    
C68   H59   S    
C13   C67   S    
C56   H33   S    
C4    H8    S    
C77   C78   A    
C4    C48   A    
C50   C51   S    
C66   H57   S    
C72   H63   S    
C61   H46   S    
C31   C41   A    
C29   C41   S    
C33   O11   S    
C1    O4    A    
C15   H9    S    
C51   H22   S    
O14   C64   S    
C3    C5    A    
C10   C13   A    
Cu2   O8    S    
C1    C48   S    
O12   C58   S    
C39   C44   S    
C2    C47   S    
C34   O12   S    
C49   C50   S    
C15   N5    A    
C64   H52   S    
C43   N2    A    
C31   O9    S    
C54   H28   S    
C1    O1    A    
C75   C76   A    
C78   H68   S    
C62   H47   S    
C69   C70   A    
C6    C12   A    
C11   C13   A    
C73   C74   A    
C29   O8    A    
C20   C26   A    
C63   H51   S    
C35   C39   A    
C31   C35   A    
C3    C47   A    
O10   C52   S    
C17   C19   A    
Cu1   O5    S    
C67   C72   A    
Cu1   O1    S    
C19   C25   A    
C57   H36   S    
C60   H43   S    
C77   H67   S    
C30   O6    A    
C15   C21   A    
C54   H30   S    
C29   O5    A    
C51   H21   S    
C45   H5    S    
N2    N4    A    
Cu1   Cu2   S    
C12   O14   S    
C46   H6    S    
O11   C55   S    
C32   C42   A    
C74   H64   S    
C30   C42   S    
C44   N1    A    
C2    O2    A    
C43   N3    A    
C55   C56   S    
C2    O3    A    
C66   H56   S    
C70   C71   A    
C62   H48   S    
