data_mof_unit_21123.cif
_audit_creation_date              2012-12-11T14:44:18-0500
_audit_creation_method            fapswitch 2.2
_symmetry_space_group_name_H-M    P1
_symmetry_Int_Tables_number       1
_space_group_crystal_system       triclinic
_cell_length_a                    18.875739
_cell_length_b                    10.930064
_cell_length_c                    18.818442
_cell_angle_alpha                 89.898272
_cell_angle_beta                  90.590035
_cell_angle_gamma                 89.733939
_cell_volume                      3882.23571041

loop_
_atom_site_label
_atom_site_type_symbol
_atom_type_description
_atom_site_fract_x
_atom_site_fract_y
_atom_site_fract_z
_atom_type_partial_charge
C1    C     C_R   0.730006 0.377339 0.145948 0.589485
C2    C     C_R   0.269958 0.377077 0.854049 0.592248
C3    C     C_R   0.230008 0.877344 0.145950 0.588597
C4    C     C_R   0.769955 0.877083 0.854047 0.594922
C5    C     C_R   0.523446 0.386786 0.928553 -0.023456
C6    C     C_R   0.475894 0.387512 0.070539 -0.026672
C7    C     C_R   0.023432 0.886782 0.928571 -0.023950
C8    C     C_R   0.975885 0.887527 0.070555 -0.025207
C9    C     C_R   0.011909 0.997352 0.964668 0.484274
C10   C     C_R   0.986533 0.997703 0.033740 0.485970
C11   C     C_R   0.511915 0.497351 0.964653 0.484538
C12   C     C_R   0.486537 0.497693 0.033726 0.485933
C13   C     C_R   0.697958 0.864749 0.037357 0.361810
C14   C     C_R   0.303185 0.865963 0.963146 0.364555
C15   C     C_R   0.197955 0.364756 0.037356 0.362515
C16   C     C_R   0.803177 0.365944 0.963140 0.364821
C17   C     C_R   0.701699 0.850199 0.964196 -0.136071
C18   C     C_R   0.299272 0.851899 0.036338 -0.137521
C19   C     C_R   0.201697 0.350204 0.964197 -0.136033
C20   C     C_R   0.799263 0.351881 0.036332 -0.137895
C21   C     C_R   0.752098 0.915638 0.925207 -0.020840
C22   C     C_R   0.247457 0.915684 0.074673 -0.022867
C23   C     C_R   0.252103 0.415631 0.925210 -0.021731
C24   C     C_R   0.747449 0.415667 0.074667 -0.023456
C25   C     C_R   0.796887 0.998810 0.959650 0.354479
C26   C     C_R   0.201146 0.996419 0.039509 0.355680
C27   C     C_R   0.296896 0.498796 0.959654 0.353813
C28   C     C_R   0.701134 0.496393 0.039502 0.355856
C29   C     C_R   0.795933 0.007433 0.032100 -0.180754
C30   C     C_R   0.202245 0.004147 0.967081 -0.180414
C31   C     C_R   0.295939 0.507422 0.032103 -0.179556
C32   C     C_R   0.702233 0.504118 0.967074 -0.180554
C33   C     C_R   0.747045 0.940523 0.071908 -0.054039
C34   C     C_R   0.252816 0.939321 0.927928 -0.048700
C35   C     C_R   0.247045 0.440522 0.071908 -0.050830
C36   C     C_R   0.752808 0.439299 0.927922 -0.048483
C37   C     C_R   0.510061 0.057882 0.466572 -0.141970
C38   C     C_R   0.507030 0.059164 0.538928 -0.147596
C39   C     C_R   0.004918 0.557684 0.464744 -0.137048
C40   C     C_R   0.002022 0.558866 0.537062 -0.147753
C41   C     C_R   0.497851 0.168977 0.575434 -0.004108
C42   C     C_R   0.508862 0.166995 0.427567 -0.037105
C43   C     C_R   0.994395 0.668843 0.573815 -0.003071
C44   C     C_R   0.005198 0.666922 0.425941 -0.038996
C45   C     C_R   0.529908 0.155224 0.146541 0.542759
C46   C     C_R   0.470078 0.154842 0.853455 0.542346
C47   C     C_R   0.029902 0.655226 0.146546 0.539653
C48   C     C_R   0.970070 0.654840 0.853462 0.543257
C49   C     C_R   0.498591 0.282252 0.538068 0.014249
C50   C     C_R   0.502103 0.281058 0.462986 -0.022307
C51   C     C_R   0.994439 0.782147 0.536316 0.018423
C52   C     C_R   0.997874 0.780860 0.461217 -0.022037
C53   C     C_R   0.777623 0.873867 0.452599 0.041021
C54   C     C_R   0.214252 0.056325 0.517775 0.008577
C55   C     C_R   0.290285 0.343197 0.453053 0.017996
C56   C     C_R   0.715134 0.557928 0.517387 0.021156
C57   C     C_R   0.786902 0.846981 0.524382 0.271216
C58   C     C_R   0.213804 0.034578 0.445132 0.341029
C59   C     C_R   0.295903 0.327080 0.526327 0.273387
C60   C     C_R   0.714923 0.535911 0.444710 0.350432
C61   C     C_R   0.752739 0.916319 0.576680 0.053758
C62   C     C_R   0.257752 0.943942 0.415804 0.030728
C63   C     C_R   0.257803 0.402202 0.573355 0.052582
C64   C     C_R   0.758079 0.443783 0.415787 0.031749
C65   C     C_R   0.710977 0.018918 0.558366 -0.053954
C66   C     C_R   0.314970 0.897099 0.456864 -0.084168
C67   C     C_R   0.214251 0.497524 0.548093 -0.066130
C68   C     C_R   0.814598 0.395416 0.457255 -0.080627
C69   C     C_R   0.703548 0.048528 0.486521 -0.222340
C70   C     C_R   0.317795 0.923434 0.529346 -0.177037
C71   C     C_R   0.209313 0.514352 0.474974 -0.197567
C72   C     C_R   0.817428 0.422320 0.529644 -0.180044
C73   C     C_R   0.736394 0.977647 0.434245 -0.006672
C74   C     C_R   0.265876 0.997021 0.561361 -0.009437
C75   C     C_R   0.246898 0.438807 0.428068 0.008690
C76   C     C_R   0.766124 0.497624 0.561306 -0.012354
C77   C     C_R   0.740552 0.972530 0.146194 0.592749
C78   C     C_R   0.259420 0.971903 0.853721 0.579454
C79   C     C_R   0.240550 0.472536 0.146191 0.582155
C80   C     C_R   0.759417 0.471893 0.853718 0.580132
C81   C     C_R   0.732173 0.383795 0.350440 0.583669
C82   C     C_R   0.269879 0.379061 0.647809 0.660307
C83   C     C_R   0.232155 0.883897 0.350391 0.592769
C84   C     C_R   0.768880 0.881779 0.649100 0.659466
C85   C     C_R   0.532682 0.157584 0.354089 0.528341
C86   C     C_R   0.468857 0.157883 0.646950 0.578324
C87   C     C_R   0.031763 0.657612 0.353465 0.522105
C88   C     C_R   0.967952 0.657861 0.646329 0.570851
C89   C     C_R   0.728548 0.019000 0.361722 0.563952
C90   C     C_R   0.271549 0.021624 0.638043 0.603451
C91   C     C_R   0.241585 0.471436 0.354283 0.622972
C92   C     C_R   0.771639 0.521951 0.638060 0.594905
C93   C     C_R   0.504567 0.161196 0.925320 0.008968
C94   C     C_R   0.495265 0.161856 0.074726 0.005556
C95   C     C_R   0.004534 0.661187 0.925340 0.007987
C96   C     C_R   0.995234 0.661868 0.074746 0.006113
C97   C     C_R   0.506918 0.274220 0.962704 -0.121317
C98   C     C_R   0.492788 0.274592 0.036896 -0.122916
C99   C     C_R   0.006894 0.774217 0.962721 -0.121621
C100  C     C_R   0.992766 0.774600 0.036913 -0.122308
C101  C     C_R   0.491379 0.050601 0.036467 -0.038512
C102  C     C_R   0.508255 0.050151 0.964035 -0.037122
C103  C     C_R   0.991318 0.550614 0.036494 -0.037728
C104  C     C_R   0.008189 0.550141 0.964062 -0.037179
Cr1   Cr    Cr6+3 0.772000 0.169640 0.250110 1.150465
Cr2   Cr    Cr6+3 0.228000 0.169640 0.749890 1.149177
Cr3   Cr    Cr6+3 0.272000 0.669640 0.250110 1.153064
Cr4   Cr    Cr6+3 0.728000 0.669640 0.749890 1.148404
Cr5   Cr    Cr6+3 0.614960 0.323350 0.249260 1.152664
Cr6   Cr    Cr6+3 0.385040 0.323350 0.750740 1.148556
Cr7   Cr    Cr6+3 0.114960 0.823350 0.249260 1.155328
Cr8   Cr    Cr6+3 0.885040 0.823350 0.750740 1.147038
Cr9   Cr    Cr6+3 0.616670 0.010620 0.250840 1.186407
Cr10  Cr    Cr6+3 0.383330 0.010620 0.749160 1.150011
Cr11  Cr    Cr6+3 0.116670 0.510620 0.250840 1.176048
Cr12  Cr    Cr6+3 0.883330 0.510620 0.749160 1.148293
H1    H     H_    0.672656 0.128387 0.470954 0.092651
H2    H     H_    0.361046 0.885690 0.560900 0.156634
H3    H     H_    0.176895 0.588705 0.454018 0.107663
H4    H     H_    0.860096 0.383258 0.561455 0.154968
H5    H     H_    0.666786 0.785256 0.938535 0.205714
H6    H     H_    0.335280 0.788719 0.062571 0.207584
H7    H     H_    0.166781 0.285268 0.938534 0.205883
H8    H     H_    0.835275 0.288707 0.062567 0.207520
H9    H     H_    0.832775 0.070427 0.056576 0.216685
H10   H     H_    0.164224 0.065253 0.942129 0.217998
H11   H     H_    0.332782 0.570414 0.056579 0.216963
H12   H     H_    0.664211 0.565223 0.942122 0.217976
H13   H     H_    0.516350 0.969345 0.441571 0.188187
H14   H     H_    0.507983 0.971536 0.565976 0.164284
H15   H     H_    0.010753 0.469106 0.439684 0.190608
H16   H     H_    0.002654 0.471083 0.563943 0.164623
O1    O     O_R   0.787540 0.042690 0.170470 -0.495275
O2    O     O_R   0.212460 0.042690 0.829530 -0.502026
O3    O     O_R   0.287540 0.542690 0.170470 -0.499105
O4    O     O_R   0.712460 0.542690 0.829530 -0.502068
O5    O     O_R   0.556540 0.252920 0.323970 -0.519336
O6    O     O_R   0.443460 0.252920 0.676030 -0.492326
O7    O     O_R   0.056540 0.752920 0.323970 -0.516944
O8    O     O_R   0.943460 0.752920 0.676030 -0.500135
O9    O     O_R   0.545870 0.051100 0.330840 -0.489310
O10   O     O_R   0.454130 0.051100 0.669160 -0.506147
O11   O     O_R   0.045870 0.551100 0.330840 -0.484462
O12   O     O_R   0.954130 0.551100 0.669160 -0.506397
O13   O     O_R   0.681340 0.959300 0.325510 -0.437535
O14   O     O_R   0.318660 0.959300 0.674490 -0.496925
O15   O     O_R   0.181340 0.459300 0.325510 -0.480036
O16   O     O_R   0.818660 0.459300 0.674490 -0.499837
O17   O     O_3   0.667880 0.167870 0.250070 -0.347460
O18   O     O_3   0.332120 0.167870 0.749930 -0.322381
O19   O     O_3   0.167880 0.667870 0.250070 -0.328344
O20   O     O_3   0.832120 0.667870 0.749930 -0.324474
O21   O     O_R   0.765660 0.292160 0.175050 -0.503181
O22   O     O_R   0.234340 0.292160 0.824950 -0.505203
O23   O     O_R   0.265660 0.792160 0.175050 -0.502859
O24   O     O_R   0.734340 0.792160 0.824950 -0.504861
O25   O     O_R   0.670190 0.408980 0.168550 -0.414881
O26   O     O_R   0.329810 0.408980 0.831450 -0.423640
O27   O     O_R   0.170190 0.908980 0.168550 -0.417020
O28   O     O_R   0.829810 0.908980 0.831450 -0.423337
O29   O     O_R   0.556580 0.251450 0.175160 -0.508102
O30   O     O_R   0.443420 0.251450 0.824840 -0.513974
O31   O     O_R   0.056580 0.751450 0.175160 -0.510315
O32   O     O_R   0.943420 0.751450 0.824840 -0.512592
O33   O     O_R   0.545920 0.049510 0.170320 -0.444920
O34   O     O_R   0.454080 0.049510 0.829680 -0.448031
O35   O     O_R   0.045920 0.549510 0.170320 -0.444813
O36   O     O_R   0.954080 0.549510 0.829680 -0.447123
O37   O     O_R   0.681390 0.957840 0.176710 -0.417375
O38   O     O_R   0.318610 0.957840 0.823290 -0.426997
O39   O     O_R   0.181390 0.457840 0.176710 -0.424661
O40   O     O_R   0.818610 0.457840 0.823290 -0.426309
O41   O     O_R   0.787500 0.044280 0.330990 -0.458336
O42   O     O_R   0.212500 0.044280 0.669010 -0.458842
O43   O     O_R   0.287500 0.544280 0.330990 -0.480054
O44   O     O_R   0.712500 0.544280 0.669010 -0.458327
O45   O     O_R   0.765610 0.293630 0.323860 -0.489618
O46   O     O_R   0.234390 0.293630 0.676140 -0.497210
O47   O     O_R   0.265610 0.793630 0.323860 -0.475399
O48   O     O_R   0.734390 0.793630 0.676140 -0.496089
O49   O     O_R   0.670140 0.410570 0.329080 -0.421860
O50   O     O_R   0.329860 0.410570 0.670920 -0.449946
O51   O     O_R   0.170140 0.910570 0.329080 -0.421574
O52   O     O_R   0.829860 0.910570 0.670920 -0.450951
C105  C     C_2   0.468645 0.935830 0.072598 0.297499
H17   H     H_    0.486516 0.846715 0.055544 0.207090
O53   O     O_2   0.428262 0.940542 0.122853 -0.465986
C106  C     C_2   0.530840 0.934658 0.928431 0.297513
H18   H     H_    0.512749 0.846054 0.945818 0.208496
O54   O     O_2   0.571395 0.938135 0.878295 -0.468697
C107  C     C_2   0.968578 0.435860 0.072640 0.297453
H19   H     H_    0.986439 0.346735 0.055593 0.207250
O55   O     O_2   0.928206 0.440600 0.122902 -0.468241
C108  C     C_2   0.030739 0.434616 0.928470 0.297721
H20   H     H_    0.012579 0.346041 0.945838 0.208746
O56   O     O_2   0.071332 0.438033 0.878366 -0.470116
C109  C     C_2   0.811330 0.790638 0.399866 0.286436
H21   H     H_    0.849407 0.722242 0.417665 0.144937
O57   O     O_2   0.795870 0.793479 0.336776 -0.444116
C110  C     C_2   0.158920 0.141245 0.544046 0.348864
H22   H     H_    0.155408 0.233291 0.522722 0.118369
O58   O     O_2   0.112465 0.105686 0.583548 -0.455990
C111  C     C_2   0.328839 0.257547 0.405457 0.248707
H23   H     H_    0.358136 0.181017 0.428051 0.161935
O59   O     O_2   0.328073 0.269506 0.340958 -0.495449
C112  C     C_2   0.659922 0.643466 0.543337 0.352885
H24   H     H_    0.655941 0.734746 0.521006 0.120640
O60   O     O_2   0.613835 0.609034 0.583592 -0.457811
F1    F     F_    0.829266 0.751530 0.544165 -0.694560
F2    F     F_    0.166409 0.096900 0.403510 -0.573185
F3    F     F_    0.338821 0.237473 0.552724 -0.693323
F4    F     F_    0.668139 0.598842 0.402714 -0.566406
C113  C     C_2   0.676539 0.099546 0.611410 0.232113
H25   H     H_    0.651293 0.184025 0.594021 0.104121
O61   O     O_2   0.675223 0.073335 0.674443 -0.483569
C114  C     C_2   0.373619 0.823257 0.427172 0.255540
H26   H     H_    0.401197 0.756966 0.460563 0.143795
O62   O     O_2   0.394879 0.841224 0.367014 -0.437909
C115  C     C_2   0.175398 0.583547 0.594904 0.228273
H27   H     H_    0.148857 0.662703 0.571808 0.105051
O63   O     O_2   0.171973 0.567787 0.659010 -0.483692
C116  C     C_2   0.872342 0.318672 0.428222 0.251469
H28   H     H_    0.898324 0.250886 0.461871 0.145364
O64   O     O_2   0.894708 0.335751 0.368393 -0.439425
C117  C     C_2   0.560283 0.388949 0.858973 0.289595
H29   H     H_    0.587488 0.307744 0.840143 0.099358
O65   O     O_2   0.560130 0.480392 0.821606 -0.405230
C118  C     C_2   0.439488 0.390481 0.140336 0.298420
H30   H     H_    0.412469 0.309743 0.159641 0.107068
O66   O     O_2   0.439854 0.482076 0.177385 -0.392139
C119  C     C_2   0.060280 0.888939 0.858998 0.290635
H31   H     H_    0.087489 0.807732 0.840179 0.098779
O67   O     O_2   0.060133 0.980378 0.821629 -0.404019
C120  C     C_2   0.939488 0.890511 0.140355 0.296912
H32   H     H_    0.912462 0.809783 0.159662 0.101896
O68   O     O_2   0.939868 0.982107 0.177403 -0.393873
F5    F     F_    0.025191 0.106460 0.933029 -0.544922
F6    F     F_    0.972458 0.107115 0.064701 -0.545027
F7    F     F_    0.525187 0.606464 0.933015 -0.544924
F8    F     F_    0.472453 0.607099 0.064688 -0.544961
F9    F     F_    0.646787 0.805696 0.073864 -0.535968
F10   F     F_    0.355887 0.809110 0.927322 -0.539874
F11   F     F_    0.146776 0.305717 0.073861 -0.536533
F12   F     F_    0.855881 0.309097 0.927316 -0.539700
F13   F     F_    0.844938 0.066877 0.924008 -0.523843
F14   F     F_    0.151488 0.062781 0.074384 -0.521255
F15   F     F_    0.344951 0.566859 0.924014 -0.524271
F16   F     F_    0.651475 0.562756 0.074375 -0.520455
C121  C     C_2   0.494331 0.399862 0.577452 0.367850
H33   H     H_    0.526272 0.412543 0.625140 0.139903
O69   O     O_2   0.452982 0.480504 0.559172 -0.439704
C122  C     C_2   0.497577 0.396890 0.421427 0.325086
H34   H     H_    0.465447 0.400715 0.373303 0.147491
O70   O     O_2   0.531679 0.486830 0.438762 -0.398883
C123  C     C_2   0.990090 0.899978 0.575454 0.370677
H35   H     H_    0.022575 0.913594 0.622677 0.144233
O71   O     O_2   0.948220 0.979947 0.557371 -0.442691
C124  C     C_2   0.993204 0.896356 0.419343 0.321320
H36   H     H_    0.961748 0.899099 0.370744 0.131975
O72   O     O_2   0.026583 0.987036 0.436821 -0.393867

loop_
_geom_bond_atom_site_label_1
_geom_bond_atom_site_label_2
_ccdc_geom_bond_type
C58   C62   A    
Cr1   O21   S    
C111  H23   S    
C123  O71   D    
C101  C102  A    
Cr2   O18   S    
C48   C95   S    
C29   H9    S    
C92   O16   A    
C14   C18   A    
C19   C23   A    
C82   O50   A    
C81   O49   A    
C72   C76   A    
C51   C123  S    
C120  H32   S    
C91   O15   A    
C97   C98   A    
Cr6   O30   S    
Cr7   O7    S    
Cr8   O52   S    
C71   C75   A    
C7    C119  S    
C113  H25   S    
C92   O44   A    
C89   O13   A    
C41   C86   S    
C111  O59   D    
C19   H7    S    
C121  H33   S    
C57   C61   A    
C7    C99   A    
C115  H27   S    
C120  O68   D    
C56   C76   A    
C43   C88   S    
Cr10  O10   S    
Cr1   O1    S    
C114  O62   D    
C15   C19   A    
C12   F8    S    
C55   C59   A    
Cr9   O33   S    
C31   H11   S    
C104  C108  S    
C112  O60   D    
C105  O53   D    
C94   C98   A    
C95   C99   A    
Cr9   O13   S    
Cr4   O44   S    
C29   C33   A    
C78   O38   A    
C54   C110  S    
Cr4   O48   S    
Cr5   O5    S    
C28   F16   S    
C122  H34   S    
C79   O39   A    
C37   C42   A    
C109  O57   D    
Cr8   O8    S    
Cr10  O38   S    
C88   O8    A    
Cr3   O3    S    
C103  C104  A    
C54   C74   A    
C41   C49   A    
C40   C43   A    
C13   F9    S    
C20   C24   A    
C94   C101  A    
C37   H13   S    
C110  H22   S    
Cr2   O22   S    
C6    C118  S    
C70   C74   A    
C47   C96   S    
Cr8   O20   S    
C69   C73   A    
C4    O28   A    
C84   O52   A    
C89   O41   A    
C44   C87   S    
Cr8   O28   S    
C9    C10   A    
Cr6   O26   S    
Cr12  O12   S    
Cr2   O46   S    
C47   O31   A    
C44   C52   A    
C113  O61   D    
C108  H20   S    
C40   H16   S    
Cr5   O25   S    
C2    O22   A    
Cr4   O20   S    
C3    O27   A    
C72   H4    S    
C51   C52   A    
C109  H21   S    
C77   O1    A    
C79   O3    A    
C101  C105  S    
C45   C94   S    
C45   O29   A    
C15   C35   A    
C118  H30   S    
C59   F3    S    
Cr10  O34   S    
C57   F1    S    
Cr3   O19   S    
C58   F2    S    
C25   C29   A    
Cr8   O32   S    
C14   F10   S    
Cr11  O11   S    
C121  O69   D    
C20   H8    S    
C74   C90   S    
C30   C34   A    
C63   C82   S    
C27   C31   A    
C107  H19   S    
C6    C98   A    
Cr9   O17   S    
C28   C32   A    
Cr7   O31   S    
C114  H26   S    
Cr10  O14   S    
C38   C41   A    
Cr11  O39   S    
C36   C80   S    
C55   C75   A    
C39   C40   A    
Cr12  O16   S    
C15   F11   S    
C62   C66   A    
C112  H24   S    
Cr9   O37   S    
C102  C106  S    
C56   C60   A    
C106  H18   S    
C62   C83   S    
Cr5   O17   S    
C107  O55   D    
C63   C67   A    
C65   C113  S    
C37   C38   A    
C27   F15   S    
C64   C81   S    
C115  O63   D    
Cr12  O40   S    
C47   O35   A    
C84   O48   A    
C93   C97   A    
C99   C100  A    
C48   O36   A    
Cr6   O6    S    
C16   C20   A    
C52   C124  S    
C7    C9    A    
C82   O46   A    
Cr7   O51   S    
C117  H29   S    
Cr2   O42   S    
C83   O51   A    
C119  O67   D    
C42   C85   S    
C1    O21   A    
C78   O2    A    
C45   O33   A    
Cr7   O27   S    
C76   C92   S    
C16   F12   S    
C17   H5    S    
C4    O24   A    
C42   C50   A    
C10   F6    S    
C23   C27   A    
C71   H3    S    
C9    F5    S    
C118  O66   D    
C49   C50   A    
C31   C35   A    
C35   C79   S    
C103  C107  S    
C3    O23   A    
C80   O40   A    
C85   O9    A    
C123  H35   S    
C64   C68   A    
C124  O72   D    
Cr12  O20   S    
C119  H31   S    
C50   C122  S    
C95   C104  A    
C86   O10   A    
Cr1   O45   S    
C122  O70   D    
C54   C58   A    
C85   O5    A    
Cr5   O49   S    
C91   O43   A    
C77   O37   A    
C21   C25   A    
C116  O64   D    
C53   C57   A    
C46   O34   A    
Cr3   O47   S    
C18   C22   A    
C60   F4    S    
C53   C73   A    
C55   C111  S    
C24   C28   A    
Cr11  O35   S    
C87   O7    A    
Cr6   O18   S    
C61   C84   S    
Cr7   O19   S    
C93   C102  A    
C14   C34   A    
C81   O45   A    
C11   C12   A    
C32   C36   A    
C5    C11   A    
C39   C44   A    
C48   O32   A    
C75   C91   S    
C68   C72   A    
Cr3   O23   S    
Cr1   O17   S    
C18   H6    S    
C90   O42   A    
C59   C63   A    
C83   O47   A    
C80   O4    A    
Cr4   O4    S    
C13   C17   A    
C33   C77   S    
C60   C64   A    
Cr11  O15   S    
C53   C109  S    
C32   H12   S    
C67   C115  S    
C124  H36   S    
C8    C100  A    
C49   C121  S    
C30   H10   S    
C90   O14   A    
Cr5   O29   S    
C16   C36   A    
C6    C12   A    
C4    C21   S    
C69   H1    S    
C43   C51   A    
C105  H17   S    
C66   C70   A    
C46   C93   S    
Cr3   O43   S    
C70   H2    S    
C65   C69   A    
C68   C116  S    
C96   C100  A    
C1    O25   A    
C117  O65   D    
C5    C117  S    
C5    C97   A    
C67   C71   A    
Cr9   O9    S    
C66   C114  S    
C116  H28   S    
Cr4   O24   S    
C17   C21   A    
C39   H15   S    
C106  O54   D    
C86   O6    A    
C73   C89   S    
C61   C65   A    
Cr2   O2    S    
C56   C112  S    
C2    O26   A    
Cr6   O50   S    
C1    C24   S    
C8    C10   A    
C13   C33   A    
C22   C26   A    
C96   C103  A    
Cr11  O19   S    
C2    C23   S    
Cr10  O18   S    
Cr12  O36   S    
C3    C22   S    
Cr1   O41   S    
C87   O11   A    
C38   H14   S    
C11   F7    S    
C108  O56   D    
C88   O12   A    
C110  O58   D    
C34   C78   S    
C26   F14   S    
C25   F13   S    
C46   O30   A    
C26   C30   A    
C8    C120  S    
