data_mof_unit_10049.cif
_audit_creation_date              2012-12-10T17:49:33-0500
_audit_creation_method            fapswitch 2.2
_symmetry_space_group_name_H-M    P1
_symmetry_Int_Tables_number       1
_space_group_crystal_system       triclinic
_cell_length_a                    10.483338
_cell_length_b                    10.611797
_cell_length_c                    9.942507
_cell_angle_alpha                 89.915599
_cell_angle_beta                  90.313587
_cell_angle_gamma                 91.608212
_cell_volume                      1105.62141788

loop_
_atom_site_label
_atom_site_type_symbol
_atom_type_description
_atom_site_fract_x
_atom_site_fract_y
_atom_site_fract_z
_atom_type_partial_charge
C1    C     C_R   0.502730 0.260817 0.500118 0.845515
C2    C     C_R   0.617778 0.069146 0.554909 0.098789
C3    C     C_R   0.510729 0.128699 0.500002 -0.082032
C4    C     C_R   0.257534 0.499479 0.499546 0.842295
C5    C     C_R   0.408751 0.061963 0.441704 -0.221641
C6    C     C_R   0.408842 0.933167 0.441472 -0.204797
C7    C     C_R   0.510990 0.871862 0.499356 -0.094818
C8    C     C_R   0.331598 0.336184 0.139099 -0.158654
C9    C     C_R   0.248251 0.255756 0.068756 -0.199511
C10   C     C_R   0.248407 0.255466 0.929505 -0.194872
C11   C     C_R   0.331915 0.335614 0.859699 -0.145079
C12   C     C_3   0.960233 0.602388 0.435050 -0.185456
C13   C     C_R   0.417147 0.419133 0.927465 0.168859
C14   C     C_R   0.417071 0.419297 0.071890 0.168483
C15   C     C_R   0.579438 0.577151 0.071722 -0.110404
C16   C     C_R   0.502940 0.739315 0.499861 0.864605
C17   C     C_R   0.579395 0.577141 0.928804 -0.116511
C18   C     C_R   0.742456 0.500208 0.500498 0.830931
C19   C     C_3   0.039757 0.396407 0.565354 -0.192711
C20   C     C_3   0.954011 0.394798 0.438565 -0.183450
C21   C     C_3   0.877577 0.499642 0.501655 0.033821
C22   C     C_3   0.960550 0.501189 0.628653 -0.136406
C23   C     C_3   0.039365 0.497566 0.371706 -0.137327
C24   C     C_3   0.045888 0.603966 0.561847 -0.177269
C25   C     C_3   0.122373 0.499208 0.498666 0.042933
C26   C     C_R   0.725104 0.137342 0.606546 -0.181157
C27   C     C_R   0.830134 0.074305 0.657037 -0.141137
C28   C     C_R   0.830380 0.943107 0.656314 -0.144733
C29   C     C_R   0.725539 0.874510 0.605245 -0.194971
C30   C     C_R   0.617963 0.937083 0.554403 0.094821
H1    H     H_    0.911607 0.309721 0.388888 0.138260
H2    H     H_    0.077212 0.312797 0.618172 0.118119
H3    H     H_    0.924334 0.502639 0.733361 0.143399
H4    H     H_    0.088059 0.689038 0.611736 0.130242
H5    H     H_    0.922843 0.686187 0.382528 0.133380
H6    H     H_    0.075599 0.495875 0.266996 0.147816
H7    H     H_    0.328077 0.109899 0.398600 0.133745
H8    H     H_    0.729641 0.239204 0.606816 0.147364
H9    H     H_    0.911900 0.127428 0.695929 0.128058
H10   H     H_    0.326337 0.330327 0.245773 0.199023
H11   H     H_    0.912375 0.894314 0.694525 0.130188
H12   H     H_    0.730436 0.772842 0.604321 0.137000
H13   H     H_    0.328159 0.880905 0.398372 0.146790
H14   H     H_    0.644443 0.640311 0.125443 0.146319
H15   H     H_    0.183375 0.193009 0.122838 0.144518
H16   H     H_    0.183624 0.192500 0.875012 0.140094
H17   H     H_    0.326997 0.329101 0.753006 0.199375
H18   H     H_    0.644345 0.640307 0.875535 0.145025
N1    N     N_R   0.498800 0.498800 0.142780 -0.121007
N2    N     N_R   0.498760 0.498720 0.857170 -0.120695
O1    O     O_R   0.500000 0.316780 0.614690 -0.637271
O2    O     O_R   0.499990 0.316750 0.385360 -0.628004
O3    O     O_R   0.313960 0.499980 0.614650 -0.633849
O4    O     O_R   0.313940 0.499960 0.385310 -0.645575
O5    O     O_R   0.500010 0.683250 0.614640 -0.613045
O6    O     O_R   0.500000 0.683220 0.385310 -0.610743
O7    O     O_R   0.686060 0.500040 0.614690 -0.635674
O8    O     O_R   0.686040 0.500020 0.385350 -0.612880
Zn1   Zn    Zn3+2 0.500010 0.500020 0.653130 0.928394
Zn2   Zn    Zn3+2 0.499990 0.499980 0.346870 0.933518

loop_
_geom_bond_atom_site_label_1
_geom_bond_atom_site_label_2
_ccdc_geom_bond_type
C17   N2    A    
C10   H16   S    
C17   H18   S    
C9    H15   S    
C6    C7    A    
C5    H7    S    
C29   H12   S    
C18   C21   S    
C11   C13   A    
C9    C10   A    
C12   C24   S    
C18   O7    A    
C11   H17   S    
C19   C20   S    
C20   C23   S    
C2    C30   A    
C26   H8    S    
C16   O6    A    
C2    C3    A    
O3    Zn1   S    
C16   O5    A    
C2    C26   A    
C7    C30   A    
O4    Zn2   S    
C21   C22   S    
C24   C25   S    
C12   H5    S    
C1    O1    A    
C12   C23   S    
C26   C27   A    
C29   C30   A    
N1    Zn2   S    
C19   C25   S    
N2    Zn1   S    
C28   C29   A    
C15   H14   S    
C4    C25   S    
O5    Zn1   S    
C6    H13   S    
C23   C25   S    
C5    C6    A    
C4    O3    A    
C1    O2    A    
C22   C24   S    
O7    Zn1   S    
C14   N1    A    
O1    Zn1   S    
C10   C11   A    
C19   H2    S    
O8    Zn2   S    
C13   N2    A    
C3    C5    A    
C28   H11   S    
C19   C22   S    
C20   C21   S    
O2    Zn2   S    
C23   H6    S    
C27   H9    S    
C27   C28   A    
C15   C17   A    
C22   H3    S    
C7    C16   S    
C8    C14   A    
C8    H10   S    
C4    O4    A    
C13   C14   A    
C12   C21   S    
C18   O8    A    
C24   H4    S    
O6    Zn2   S    
C15   N1    A    
C8    C9    A    
C1    C3    S    
C20   H1    S    
