data_mof_unit_13166.cif
_audit_creation_date              2012-10-26T20:59:11-0400
_audit_creation_method            fapswitch 2.2
_symmetry_space_group_name_H-M    P1
_symmetry_Int_Tables_number       1
_space_group_crystal_system       triclinic
_cell_length_a                    15.925717
_cell_length_b                    9.086355
_cell_length_c                    7.800615
_cell_angle_alpha                 90.001215
_cell_angle_beta                  90.547804
_cell_angle_gamma                 90.039283
_cell_volume                      1128.74953874

loop_
_atom_site_label
_atom_site_type_symbol
_atom_type_description
_atom_site_fract_x
_atom_site_fract_y
_atom_site_fract_z
_atom_type_partial_charge
C1    C     C_1   0.499999 0.065399 0.499998 -0.010050
C2    C     C_3   0.973186 0.632887 0.546319 -0.043537
C3    C     C_1   0.250296 0.499479 0.496714 0.078244
C4    C     C_1   0.749702 0.500307 0.503044 0.087542
C5    C     C_3   0.030744 0.531146 0.654337 -0.037610
C6    C     C_3   0.969323 0.467823 0.342636 -0.036902
C7    C     C_3   0.083708 0.499038 0.494251 0.048419
C8    C     C_3   0.916289 0.500022 0.502800 0.050581
C9    C     C_1   0.175097 0.499163 0.494602 0.115817
C10   C     C_1   0.824904 0.500336 0.504207 0.128073
C11   C     C_2   0.054103 0.215394 0.396365 0.231825
C12   C     C_1   0.500002 0.934601 0.500001 -0.010775
C13   C     C_2   0.946035 0.783882 0.600074 0.218133
C14   C     C_2   0.946892 0.282661 0.736052 0.246660
C15   C     C_2   0.053186 0.715730 0.260427 0.234805
C16   C     C_2   0.937380 0.430259 0.166847 0.234542
C17   C     C_2   0.066146 0.568471 0.827344 0.220001
C18   C     C_R   0.499996 0.220092 0.499999 0.556727
C19   C     C_R   0.500004 0.779908 0.500001 0.554928
C20   C     C_R   0.339567 0.499870 0.499125 0.548256
C21   C     C_R   0.660433 0.500128 0.500860 0.549456
C22   C     C_3   0.973629 0.398281 0.610908 -0.014038
C23   C     C_3   0.026485 0.600602 0.386174 -0.026859
C24   C     C_3   0.026913 0.366191 0.450729 -0.027964
Cu1   Cu    Cu3+1 0.500010 0.500000 0.669080 1.098976
Cu2   Cu    Cu3+1 0.499990 0.500000 0.330920 1.101558
H1    H     H_    0.007188 0.131559 0.370192 0.118876
H2    H     H_    0.992973 0.867780 0.625793 0.113118
H3    H     H_    0.994076 0.217819 0.802804 0.127842
H4    H     H_    0.005976 0.780411 0.193541 0.115174
H5    H     H_    0.981250 0.395367 0.070097 0.145477
H6    H     H_    0.045417 0.666941 0.892816 0.124472
N1    N     N_1   0.499990 0.500000 0.076820 -0.061642
N2    N     N_1   0.500010 0.500000 0.923180 -0.061702
O1    O     O_R   0.500000 0.288400 0.642760 -0.494716
O2    O     O_2   0.871741 0.813286 0.614972 -0.467301
O3    O     O_2   0.872641 0.260493 0.763133 -0.449365
O4    O     O_2   0.127431 0.737589 0.232930 -0.459849
O5    O     O_2   0.862628 0.437134 0.132309 -0.457270
O6    O     O_2   0.117601 0.487617 0.895803 -0.477450
O7    O     O_R   0.500000 0.711600 0.357240 -0.495936
O8    O     O_R   0.500000 0.288400 0.357240 -0.495017
O9    O     O_R   0.500000 0.711600 0.642760 -0.496495
O10   O     O_R   0.379080 0.500000 0.642760 -0.494797
O11   O     O_R   0.620920 0.500000 0.357240 -0.490410
O12   O     O_R   0.379070 0.500000 0.357190 -0.487072
O13   O     O_R   0.620930 0.500000 0.642810 -0.488146
O14   O     O_2   0.128410 0.186113 0.381403 -0.464598

loop_
_geom_bond_atom_site_label_1
_geom_bond_atom_site_label_2
_ccdc_geom_bond_type
C13   O2    D    
C8    C22   S    
C13   H2    S    
C3    C9    T    
C5    C7    S    
C18   O1    A    
Cu1   O13   S    
Cu2   N1    S    
C11   H1    S    
Cu1   N2    S    
C6    C24   S    
Cu1   O9    S    
C15   C23   S    
N1    N2    T    
C11   O14   D    
C3    C20   S    
C15   O4    D    
C14   O3    D    
C4    C21   S    
C2    C13   S    
C14   C22   S    
C1    C18   S    
C1    C12   T    
Cu1   O1    S    
C7    C23   S    
C6    C23   S    
C12   C19   S    
C20   O10   A    
C19   O9    A    
C21   O11   A    
C18   O8    A    
Cu2   O8    S    
C22   C24   S    
C2    C5    S    
C5    C17   S    
Cu2   O12   S    
C16   O5    D    
C4    C10   T    
C7    C24   S    
C11   C24   S    
Cu1   O10   S    
C15   H4    S    
C8    C10   S    
C2    C8    S    
C2    C23   S    
C7    C9    S    
C17   H6    S    
C6    C8    S    
C14   H3    S    
Cu2   O11   S    
C21   O13   A    
Cu1   Cu2   S    
C6    C16   S    
C20   O12   A    
C5    C22   S    
C19   O7    A    
Cu2   O7    S    
C16   H5    S    
C17   O6    D    
