data_mof_unit_33042.cif
_audit_creation_date              2013-03-05T16:18:53-0500
_audit_creation_method            fapswitch 2.2
_symmetry_space_group_name_H-M    P1
_symmetry_Int_Tables_number       1
_space_group_crystal_system       triclinic
_cell_length_a                    8.184363
_cell_length_b                    18.808255
_cell_length_c                    22.911907
_cell_angle_alpha                 100.206762
_cell_angle_beta                  89.972018
_cell_angle_gamma                 91.951463
_cell_volume                      3469.02931504

loop_
_atom_site_label
_atom_site_type_symbol
_atom_site_description
_atom_site_fract_x
_atom_site_fract_y
_atom_site_fract_z
_atom_type_partial_charge
P1    P     P_3+3 0.935930 0.665430 0.555670 0.470517
O1    O     O_2   0.110690 0.676100 0.539200 -0.375190
O2    O     O_3   0.863220 0.586720 0.534720 -0.388866
O3    O     O_3   0.368310 0.629070 0.432760 -0.345923
O4    O     O_2   0.242291 0.754942 0.475088 -0.407477
O5    O     O_3   0.937502 0.687876 0.633062 -0.560456
O6    O     O_3   0.331858 0.738374 0.365291 -0.496711
H1    H     H_    0.517401 0.671988 0.328278 0.089865
C1    C     C_3   0.421301 0.732842 0.265873 -0.774491
H2    H     H_    0.334856 0.687626 0.247317 0.286919
H3    H     H_    0.362219 0.785096 0.265517 0.239466
P2    P     P_3+3 0.382700 0.439650 0.365620 0.482528
P3    P     P_3+3 0.952343 0.588871 0.325014 0.536788
O7    O     O_2   0.210480 0.460990 0.358130 -0.366530
O8    O     O_3   0.959520 0.592090 0.401630 -0.396257
O9    O     O_2   0.098118 0.545161 0.297067 -0.346748
O10   O     O_3   0.373668 0.345471 0.344628 -0.554061
O11   O     O_3   0.993964 0.676302 0.311318 -0.456708
C2    C     C_3   0.925583 0.725988 0.357052 0.557384
H4    H     H_    0.997207 0.729070 0.398600 0.136228
H5    H     H_    0.796590 0.710680 0.365283 -0.052978
C3    C     C_3   0.930844 0.800352 0.339597 -0.985884
H6    H     H_    0.059288 0.817598 0.332351 0.282367
H7    H     H_    0.859354 0.798832 0.298180 0.266801
C4    C     C_3   0.820084 0.372989 0.343360 0.387647
H8    H     H_    0.697831 0.388289 0.360453 0.098144
H9    H     H_    0.908068 0.419614 0.354700 0.128452
C5    C     C_3   0.810684 0.351298 0.276221 -0.879229
H10   H     H_    0.720495 0.305618 0.263866 0.272135
H11   H     H_    0.772365 0.397188 0.255846 0.214794
H12   H     H_    0.932462 0.334564 0.258445 0.269245
Ba1   Ba    Ba6+2 0.157800 0.534120 0.474430 1.573443
C6    C     C_3   0.996132 0.631290 0.658013 0.398691
H13   H     H_    0.111556 0.612376 0.636811 0.103848
H14   H     H_    0.904002 0.585981 0.652856 0.101349
C7    C     C_3   0.027124 0.659597 0.723747 -0.842447
H15   H     H_    0.111077 0.707831 0.729430 0.314917
H16   H     H_    0.084139 0.618548 0.745327 0.203220
H17   H     H_    0.910064 0.674734 0.746268 0.254478
C8    C     C_3   0.318249 0.313811 0.392031 0.452002
H18   H     H_    0.194830 0.332431 0.404737 0.090090
H19   H     H_    0.402450 0.327311 0.430631 0.127876
C9    C     C_3   0.310431 0.232182 0.372257 -1.002239
H20   H     H_    0.218627 0.216904 0.336141 0.277564
H21   H     H_    0.275525 0.205012 0.409781 0.219236
H22   H     H_    0.431996 0.213396 0.355803 0.260107
P4    P     P_3+3 0.874370 0.334570 0.444280 0.459244
O12   O     O_2   0.699610 0.323860 0.460780 -0.376758
O13   O     O_3   0.947090 0.413280 0.465240 -0.398968
O14   O     O_3   0.442000 0.370930 0.567190 -0.357506
O15   O     O_3   0.871059 0.313690 0.366758 -0.566765
P5    P     P_3+3 0.852654 0.415477 0.675630 0.490732
O16   O     O_3   0.359410 0.538600 0.570730 -0.387168
O17   O     O_3   0.850780 0.407910 0.598320 -0.388651
O18   O     O_2   0.682902 0.441876 0.697731 -0.374401
O19   O     O_3   0.857238 0.329482 0.694899 -0.499220
Ba2   Ba    Ba6+2 0.652390 0.465870 0.525520 1.561702
P6    P     P_3+3 0.383107 0.722192 0.435706 0.449273
C10   C     C_3   0.469339 0.726788 0.328791 0.324289
H23   H     H_    0.565423 0.769142 0.343898 0.058220
H24   H     H_    0.532278 0.730720 0.237888 0.246167
O20   O     O_3   0.450900 0.461390 0.429220 -0.407706
C11   C     C_3   0.480192 0.688430 0.623873 0.229202
H25   H     H_    0.585198 0.660898 0.599980 0.068205
H26   H     H_    0.378970 0.689068 0.591915 0.117155
C12   C     C_3   0.536287 0.766336 0.648686 -0.087325
H27   H     H_    0.659272 0.766224 0.669283 0.156459
H28   H     H_    0.547074 0.797632 0.611931 0.072761
P7    P     P_3+3 0.416528 0.560440 0.645549 0.463748
O21   O     O_2   0.599830 0.538970 0.641850 -0.357195
O22   O     O_3   0.425789 0.653980 0.670369 -0.537386
H29   H     H_    0.877544 0.840375 0.375273 0.210013
C13   C     C_3   0.893588 0.278580 0.644423 0.461771
H30   H     H_    0.801317 0.278151 0.608795 0.167264
H31   H     H_    0.016871 0.290723 0.627890 -0.015863
C14   C     C_3   0.890286 0.203710 0.660929 -0.840402
H32   H     H_    0.764892 0.189698 0.674875 0.280110
H33   H     H_    0.925358 0.162797 0.622186 0.228306
H34   H     H_    0.977028 0.202494 0.698093 0.259659
P8    P     P_3+3 0.426050 0.278198 0.565228 0.452568
C15   C     C_3   0.346053 0.282142 0.673962 0.340641
H35   H     H_    0.248738 0.239020 0.664714 0.075736
O23   O     O_2   0.565652 0.244547 0.525496 -0.385376
O24   O     O_3   0.478504 0.263747 0.636053 -0.496077
H36   H     H_    0.296512 0.335229 0.669176 0.077611
H37   H     H_    0.296884 0.298372 0.767952 0.255788
C16   C     C_3   0.402698 0.287609 0.737815 -0.731617
H38   H     H_    0.495524 0.332476 0.749069 0.258311
H39   H     H_    0.456888 0.236172 0.744219 0.264690
C17   C     C_R   0.997514 0.952306 0.527108 0.028448
C18   C     C_R   0.085754 0.905547 0.555785 0.034447
C19   C     C_R   0.236003 0.929285 0.582674 -0.273583
C20   C     C_R   0.298892 0.999632 0.583190 0.534197
C21   C     C_R   0.209023 0.047995 0.555497 -0.083068
C22   C     C_R   0.058611 0.023798 0.526982 -0.019214
C23   C     C_R   0.263748 0.119989 0.556444 -0.136210
C24   C     C_R   0.172824 0.168453 0.530357 -0.068157
C25   C     C_R   0.024060 0.143897 0.500816 0.003685
C26   C     C_R   0.967834 0.071256 0.499107 0.031751
C27   C     C_R   0.225073 0.241510 0.534137 0.140195
C28   C     C_R   0.125849 0.289497 0.511362 -0.522751
C29   C     C_R   0.982563 0.266151 0.479502 0.266705
C30   C     C_R   0.931101 0.191817 0.473295 -0.042522
C31   C     C_R   0.847052 0.927876 0.499489 0.033037
C32   C     C_R   0.787458 0.855844 0.499022 0.016318
C33   C     C_R   0.879951 0.807814 0.526363 -0.077343
C34   C     C_R   0.024061 0.835249 0.557120 -0.033002
H40   H     H_    0.304778 0.892566 0.603587 0.208669
H41   H     H_    0.165405 0.345657 0.515772 0.175242
H42   H     H_    0.375848 0.139214 0.579034 0.227332
H43   H     H_    0.092354 0.801996 0.581433 0.193753
C35   C     C_R   0.788299 0.163956 0.441655 -0.142826
C36   C     C_R   0.728404 0.093241 0.442370 0.118943
C37   C     C_R   0.818312 0.046533 0.470904 0.042973
C38   C     C_R   0.757231 0.975233 0.471627 0.063474
C39   C     C_R   0.577239 0.068960 0.415930 -0.159892
C40   C     C_R   0.515201 0.999288 0.417893 -0.189134
C41   C     C_R   0.604649 0.951861 0.445258 0.143357
C42   C     C_R   0.635514 0.832163 0.471207 -0.016663
C43   C     C_R   0.543824 0.881456 0.446127 -0.272524
C44   C     C_R   0.581665 0.759391 0.468309 0.155840
C45   C     C_R   0.679612 0.711356 0.491558 -0.523412
C46   C     C_R   0.826272 0.733925 0.521263 0.237410
H44   H     H_    0.718933 0.197251 0.417588 0.168911
H45   H     H_    0.505643 0.104202 0.394324 0.133271
H46   H     H_    0.397404 0.982321 0.397599 0.133966
H47   H     H_    0.425912 0.865314 0.425903 0.174088
H48   H     H_    0.637992 0.655596 0.488382 0.186520
H49   H     H_    0.276380 0.326789 0.050062 0.204502
C47   C     C_R   0.645244 0.525175 0.334189 -0.554457
C48   C     C_R   0.400097 0.551912 0.944545 -0.027096
C49   C     C_R   0.357235 0.548314 0.884653 0.532513
O25   O     O_2   0.396295 0.598897 0.860155 -0.577093
N1    N     N_R   0.271211 0.488542 0.853673 -0.169801
C50   C     C_R   0.229369 0.430570 0.881542 0.569594
O26   O     O_2   0.147470 0.379678 0.854625 -0.541828
C51   C     C_R   0.280462 0.429934 0.940874 -0.218372
C52   C     C_R   0.362974 0.492394 0.972699 -0.027716
C53   C     C_R   0.480022 0.614144 0.976835 -0.104477
C54   C     C_R   0.518773 0.618229 0.036500 -0.090021
C55   C     C_R   0.483929 0.559309 0.065250 -0.046662
C56   C     C_R   0.409194 0.495699 0.033012 -0.004327
C57   C     C_R   0.249732 0.369895 0.970141 0.388433
C58   C     C_R   0.299939 0.373582 0.029198 -0.162220
C59   C     C_R   0.380547 0.435664 0.061009 -0.109836
C60   C     C_R   0.435798 0.438519 0.119962 0.622756
N2    N     N_R   0.505897 0.501918 0.151996 -0.156538
C61   C     C_R   0.522981 0.562760 0.125572 0.615158
C62   C     C_2   0.068502 0.471456 0.772647 -0.158003
C63   C     C_3   0.020251 0.478775 0.709958 0.143969
C64   C     C_1   0.304300 0.507482 0.692749 0.272671
C65   C     C_2   0.351199 0.504529 0.747560 -0.160598
C66   C     C_2   0.225931 0.486690 0.791690 0.092732
C67   C     C_R   0.716822 0.535799 0.232827 0.275254
C68   C     C_R   0.755297 0.548247 0.294111 0.054401
C69   C     C_R   0.500761 0.487372 0.314478 0.317533
C70   C     C_R   0.454784 0.480565 0.254807 -0.206304
C71   C     C_R   0.559937 0.505587 0.213291 -0.014108
O27   O     O_2   0.423394 0.384218 0.142376 -0.569657
O28   O     O_2   0.571772 0.620294 0.154736 -0.589755
C72   C     C_2   0.167985 0.474861 0.670295 -0.478041
H50   H     H_    0.578733 0.667433 0.059846 0.178141
H51   H     H_    0.511462 0.660417 0.956189 0.183578
H52   H     H_    0.473521 0.528332 0.762802 0.184514
H53   H     H_    0.973465 0.461693 0.803623 0.171712
H54   H     H_    0.337528 0.455007 0.240673 0.200373
H55   H     H_    0.677719 0.531965 0.380662 0.191401
H56   H     H_    0.161816 0.447773 0.624320 0.168246
N3    N     N_R   0.421720 0.800988 0.692778 0.302648
O29   O     O_R   0.269857 0.807461 0.678527 -0.396279
O30   O     O_R   0.470623 0.824745 0.747000 -0.285148
S1    S     S_3+6 0.484991 0.025682 0.622259 -0.032042
O31   O     O_2   0.561191 0.961731 0.641238 -0.259849
O32   O     O_2   0.603476 0.058800 0.583827 -0.336783
O33   O     O_3   0.443800 0.087121 0.682707 -0.508179
H57   H     H_    0.552794 0.105080 0.699619 0.378473
N4    N     N_R   0.172054 0.303608 0.940632 0.269715
O34   O     O_R   0.046768 0.276142 0.965039 -0.334234
O35   O     O_R   0.246142 0.263589 0.897007 -0.313848
N5    N     N_R   0.838737 0.548194 0.190202 0.255672
O36   O     O_R   0.917384 0.610279 0.195136 -0.321458
O37   O     O_R   0.863445 0.498817 0.143853 -0.396641

loop_
_geom_bond_atom_site_label_1
_geom_bond_atom_site_label_2
_geom_bond_distance
_ccdc_geom_bond_type
C12   H28   1.111527 S    
C16   H38   1.111396 S    
C11   H26   1.107701 S    
C20   S1    1.776581 S    
C28   C29   1.397524 A    
C67   N5    1.437914 S    
C13   H31   1.108282 S    
C13   H30   1.111102 S    
C12   N3    1.460110 S    
C2    H4    1.109888 S    
C14   H34   1.112739 S    
P8    O24   1.748245 S    
O16   P7    1.750438 S    
C15   O24   1.402622 S    
C26   C37   1.409559 A    
C4    O15   1.396136 S    
C15   H35   1.110096 S    
C43   H47   1.081114 S    
C62   C63   1.520606 S    
O12   Ba2   2.854689 S    
P4    O13   1.569949 S    
H49   C58   1.085217 S    
S1    O31   1.503832 D    
C4    C5    1.521255 S    
C70   C71   1.413213 A    
O4    P6    1.540200 D    
C1    H24   1.109284 S    
C19   C20   1.401330 A    
C7    H15   1.108084 S    
C2    H5    1.109662 S    
C14   H33   1.111385 S    
C35   H44   1.079548 S    
H1    C10   1.113764 S    
C59   C60   1.416003 A    
C22   C26   1.415717 A    
N1    C66   1.462015 S    
C33   C34   1.408712 A    
C28   H41   1.081502 S    
C57   C58   1.403553 A    
C6    C7    1.524158 S    
O13   Ba2   2.894542 S    
C39   C40   1.397341 A    
O1    Ba1   2.854306 S    
P1    O1    1.495056 D    
C61   O28   1.221265 D    
C3    H29   1.108616 S    
P7    O22   1.749493 S    
C62   C66   1.365172 D    
C31   C32   1.422436 A    
C55   C61   1.408472 A    
C16   H39   1.110750 S    
C47   H55   1.081896 S    
C19   H40   1.080466 S    
C8    C9    1.520964 S    
P3    C68   1.846990 S    
N2    C61   1.389286 Am   
S1    O32   1.502042 D    
C49   O25   1.220958 D    
N4    O35   1.302750 A    
C33   C46   1.427905 A    
P4    O12   1.495358 D    
C64   C65   1.324429 D    
C47   C68   1.398774 A    
Ba2   O21   2.814219 S    
C1    H2    1.111637 S    
O6    P6    1.747783 S    
P5    O18   1.546069 D    
C15   H36   1.113454 S    
C36   C39   1.403695 A    
C8    H19   1.109332 S    
C12   H27   1.112128 S    
C51   C57   1.427208 A    
C11   C12   1.529782 S    
C10   H23   1.110259 S    
P4    C29   1.880867 S    
P2    Ba1   3.377687 S    
N3    O30   1.301829 A    
C56   C59   1.407111 A    
C29   C30   1.428898 A    
Ba1   Ba2   4.504953 S    
P2    C69   1.850647 S    
P8    O23   1.542333 D    
O6    C10   1.401473 S    
C35   C36   1.404584 A    
P5    O17   1.751748 S    
C24   C25   1.416167 A    
C42   C44   1.413780 A    
C60   N2    1.390457 Am   
P1    O5    1.748432 S    
P7    C64   1.823137 S    
N3    O29   1.300392 A    
C18   C34   1.404598 A    
C50   O26   1.222020 D    
C2    C3    1.520584 S    
C62   H53   1.085514 S    
C14   H32   1.111707 S    
C52   C56   1.423043 A    
C18   C19   1.398887 A    
O16   Ba2   2.900465 S    
H37   C16   1.108867 S    
O11   C2    1.404480 S    
P4    O15   1.749823 S    
C60   O27   1.223056 D    
Ba2   O20   2.742809 S    
C4    H8    1.102999 S    
C23   H42   1.073278 S    
C7    H17   1.109608 S    
P1    Ba1   3.396241 S    
O14   P8    1.737164 S    
C30   C35   1.410870 A    
P1    O2    1.569890 S    
O10   C8    1.396509 S    
C69   C70   1.400834 A    
P2    O10   1.750331 S    
C9    H20   1.110609 S    
P1    C46   1.877735 S    
P4    Ba2   3.396622 S    
C31   C38   1.409911 A    
P2    O20   1.541514 S    
O33   H57   0.996712 S    
C42   C43   1.410486 A    
C38   C41   1.409589 A    
C23   C24   1.407706 A    
C6    H13   1.102783 S    
C67   C68   1.415808 A    
O2    Ba1   2.893863 S    
C20   C21   1.421825 A    
O3    Ba1   2.731708 S    
C54   C55   1.407239 A    
C21   C23   1.408146 A    
C1    H3    1.111312 S    
C17   C31   1.409680 A    
C44   C45   1.401024 A    
C65   H52   1.113132 S    
P3    O11   1.750216 S    
C49   N1    1.388211 Am   
C8    H18   1.102452 S    
C11   O22   1.406227 S    
N4    O34   1.302591 A    
C21   C22   1.416571 A    
C39   H45   1.082025 S    
P3    O8    1.746652 S    
C13   C14   1.520809 S    
C3    H7    1.110594 S    
C48   C49   1.405934 A    
O2    Ba2   2.784184 S    
Ba1   O16   2.743399 S    
C24   C27   1.412901 A    
N5    O36   1.301054 A    
C36   C37   1.410195 A    
C32   C33   1.424466 A    
C50   C51   1.424657 A    
C63   C72   1.508126 S    
C5    H10   1.110834 S    
P6    C44   1.851188 S    
O19   C13   1.403291 S    
N5    O37   1.301600 A    
O14   Ba2   2.730977 S    
C34   H43   1.077719 S    
C5    H12   1.110792 S    
O7    Ba1   2.813982 S    
C58   C59   1.405801 A    
O8    Ba1   2.715163 S    
C70   H54   1.081952 S    
C53   C54   1.391693 A    
S1    O33   1.681073 S    
C37   C38   1.418010 A    
N1    C50   1.391036 Am   
C4    H9    1.109724 S    
C51   C52   1.417978 A    
O5    C6    1.392997 S    
C53   H51   1.085338 S    
P2    O7    1.496812 D    
Ba1   O20   2.901292 S    
C5    H11   1.105718 S    
C9    H21   1.107911 S    
C48   C52   1.412117 A    
C40   C41   1.402799 A    
C15   C16   1.519856 S    
C64   C72   1.314488 D    
C17   C18   1.405410 A    
C7    H16   1.103793 S    
C27   C28   1.401281 A    
C6    H14   1.108766 S    
C57   N4    1.436441 S    
C45   H48   1.081591 S    
P7    O21   1.565211 D    
C9    H22   1.110508 S    
C41   C43   1.402202 A    
Ba1   O13   2.783471 S    
C72   H56   1.086192 S    
C48   C53   1.409499 A    
C11   H25   1.111674 S    
P5    O19   1.752019 S    
C65   C66   1.510564 S    
P5    C63   1.864251 S    
C25   C26   1.420623 A    
P3    O9    1.545576 D    
O3    P6    1.740842 S    
C67   C71   1.425701 A    
C3    H6    1.110653 S    
C32   C42   1.418963 A    
C40   H46   1.083716 S    
C47   C69   1.391857 A    
C1    C10   1.519028 S    
C45   C46   1.395668 A    
C55   C56   1.410120 A    
N2    C71   1.461808 S    
C54   H50   1.085008 S    
C17   C22   1.419048 A    
P8    C27   1.854408 S    
C25   C30   1.427376 A    
O17   Ba2   2.715612 S    
