data_mof_unit_58898.cif
_audit_creation_date              2012-12-10T19:36:15-0500
_audit_creation_method            fapswitch 2.2
_symmetry_space_group_name_H-M    P1
_symmetry_Int_Tables_number       1
_space_group_crystal_system       triclinic
_cell_length_a                    15.634875
_cell_length_b                    15.806911
_cell_length_c                    17.122995
_cell_angle_alpha                 84.077031
_cell_angle_beta                  90.320037
_cell_angle_gamma                 112.088214
_cell_volume                      3897.70826823

loop_
_atom_site_label
_atom_site_type_symbol
_atom_type_description
_atom_site_fract_x
_atom_site_fract_y
_atom_site_fract_z
_atom_type_partial_charge
C1    C     C_R   0.500264 0.510198 0.348566 0.849362
C2    C     C_R   0.500597 0.490097 0.651398 0.844761
C3    C     C_R   0.112254 0.630414 0.497189 0.094760
C4    C     C_R   0.924829 0.433947 0.608297 0.086051
C5    C     C_R   0.066526 0.691748 0.487023 -0.263492
C6    C     C_R   0.966790 0.370312 0.623218 -0.265280
C7    C     C_R   0.499225 0.514677 0.262685 -0.128030
C8    C     C_R   0.504907 0.486767 0.737108 -0.133875
C9    C     C_R   0.495902 0.438569 0.225507 -0.268593
C10   C     C_R   0.511195 0.563916 0.774066 -0.267480
C11   C     C_R   0.494337 0.441714 0.144096 0.610539
C12   C     C_R   0.516440 0.562076 0.855248 0.608512
C13   C     C_R   0.496974 0.522527 0.098265 0.256352
C14   C     C_R   0.514503 0.481547 0.901100 0.256888
C15   C     C_R   0.498876 0.597682 0.135738 -0.252904
C16   C     C_R   0.510376 0.405588 0.863766 -0.253432
C17   C     C_R   0.500385 0.594225 0.217263 -0.211475
C18   C     C_R   0.505172 0.407734 0.782461 -0.227159
C19   C     C_R   0.547064 0.263926 0.462621 0.670844
C20   C     C_R   0.459349 0.739665 0.540879 0.660196
C21   C     C_R   0.545234 0.174196 0.465649 -0.393335
C22   C     C_R   0.465294 0.830740 0.538023 -0.401952
C23   C     C_R   0.675793 0.555717 0.496500 0.823637
C24   C     C_R   0.324216 0.444723 0.502970 0.807735
C25   C     C_R   0.482229 0.102688 0.517019 0.208724
C26   C     C_R   0.526497 0.900329 0.483525 0.223624
C27   C     C_R   0.421513 0.124873 0.564588 -0.138933
C28   C     C_R   0.582914 0.874407 0.433096 -0.144969
C29   C     C_R   0.426891 0.216899 0.560071 0.631893
C30   C     C_R   0.572174 0.780768 0.437945 0.611672
C31   C     C_R   0.777300 0.592068 0.495459 -0.097710
C32   C     C_R   0.224194 0.412670 0.518870 -0.080099
C33   C     C_R   0.924228 0.723504 0.477501 0.097318
C34   C     C_R   0.090199 0.314084 0.599822 0.097492
C35   C     C_R   0.827201 0.686781 0.479979 -0.177516
C36   C     C_R   0.178621 0.332557 0.568397 -0.201436
C37   C     C_R   0.824330 0.533528 0.512351 -0.222232
C38   C     C_R   0.178698 0.471389 0.496227 -0.243442
C39   C     C_R   0.920068 0.568692 0.521266 0.050715
C40   C     C_R   0.097771 0.464624 0.536114 0.067539
C41   C     C_R   0.970744 0.662213 0.495527 0.081469
C42   C     C_R   0.050500 0.381960 0.586007 0.111264
C43   C     C_R   0.966730 0.511256 0.550947 0.024332
C44   C     C_R   0.060851 0.535530 0.526379 0.014638
Cu1   Cu    Cu3+1 0.504410 0.586150 0.496120 1.031361
Cu2   Cu    Cu3+1 0.495590 0.413850 0.503880 1.040747
H1    H     H_    0.107274 0.763146 0.468132 0.139203
H2    H     H_    0.933465 0.311679 0.665865 0.148232
H3    H     H_    0.421544 0.846146 0.578458 0.205607
H4    H     H_    0.593233 0.161560 0.427886 0.195698
H5    H     H_    0.208989 0.522315 0.447522 0.158142
H6    H     H_    0.786400 0.460292 0.515934 0.176303
H7    H     H_    0.213276 0.285875 0.585057 0.199730
H8    H     H_    0.789323 0.730997 0.467328 0.183955
H9    H     H_    0.512546 0.626210 0.740166 0.214458
H10   H     H_    0.493982 0.376063 0.259405 0.211154
H11   H     H_    0.499838 0.659556 0.101364 0.194616
H12   H     H_    0.509985 0.343927 0.898125 0.194640
H13   H     H_    0.502282 0.653696 0.244606 0.197852
H14   H     H_    0.501428 0.347614 0.755237 0.196899
N1    N     N_2   0.495592 0.531063 0.015108 -0.148593
N2    N     N_2   0.516984 0.473492 0.984205 -0.148324
N3    N     N_R   0.488960 0.284450 0.509710 -0.273685
N4    N     N_R   0.511040 0.715550 0.490290 -0.270474
N5    N     N_2   0.477702 0.009298 0.523209 -0.203749
N6    N     N_2   0.531473 0.993782 0.477891 -0.212083
O1    O     O_R   0.504130 0.580750 0.382440 -0.550548
O2    O     O_R   0.495870 0.419250 0.617560 -0.554652
O3    O     O_R   0.496670 0.435250 0.388990 -0.551246
O4    O     O_R   0.503330 0.564750 0.611010 -0.544256
O5    O     O_R   0.635650 0.613550 0.494890 -0.553871
O6    O     O_R   0.364350 0.386450 0.505110 -0.545895
O7    O     O_R   0.628200 0.468050 0.501440 -0.546580
O8    O     O_R   0.371800 0.531950 0.498560 -0.557471
F1    F     F_    0.401211 0.675218 0.594816 -0.654226
F2    F     F_    0.607769 0.330698 0.411886 -0.642979
C45   C     C_3   0.351775 0.050950 0.620535 -0.316953
C46   C     C_3   0.270606 0.988712 0.576238 -0.348525
C47   C     C_3   0.203892 0.910322 0.631951 -0.851980
H15   H     H_    0.240118 0.867866 0.661122 0.265155
H16   H     H_    0.174276 0.937940 0.677299 0.260194
H17   H     H_    0.146704 0.865733 0.598372 0.235648
H18   H     H_    0.232807 0.029868 0.547353 0.224574
H19   H     H_    0.296034 0.958653 0.529986 0.234847
H20   H     H_    0.386594 0.009508 0.653744 0.204792
H21   H     H_    0.324363 0.081811 0.664865 0.234612
C48   C     C_3   0.656343 0.938971 0.372831 -0.314932
C49   C     C_3   0.676641 0.042179 0.367179 -0.357060
C50   C     C_3   0.756231 0.096128 0.308266 -0.837650
H22   H     H_    0.820387 0.086428 0.326987 0.250959
H23   H     H_    0.739072 0.073214 0.248961 0.262726
H24   H     H_    0.768828 0.170417 0.304891 0.260530
H25   H     H_    0.614641 0.055043 0.346684 0.244916
H26   H     H_    0.696569 0.067552 0.425353 0.240477
H27   H     H_    0.722229 0.929713 0.386278 0.217393
H28   H     H_    0.636073 0.915823 0.313908 0.220346
F3    F     F_    0.369395 0.238754 0.605859 -0.675931
F4    F     F_    0.624933 0.755101 0.390144 -0.670613
C51   C     C_3   0.978560 0.826367 0.456142 -0.422048
C52   C     C_3   0.921388 0.887171 0.443885 -0.352889
C53   C     C_3   0.983759 0.988415 0.426761 -0.834030
H29   H     H_    0.029214 0.011482 0.476789 0.252365
H30   H     H_    0.027097 0.999543 0.372597 0.258691
H31   H     H_    0.940643 0.030443 0.417990 0.240877
H32   H     H_    0.875815 0.867159 0.393360 0.235564
H33   H     H_    0.878321 0.878948 0.497718 0.221678
H34   H     H_    0.026436 0.851844 0.504191 0.197327
H35   H     H_    0.020255 0.835783 0.401226 0.203180
C54   C     C_3   0.043707 0.223683 0.650751 -0.429036
C55   C     C_3   0.062863 0.235238 0.737764 -0.333612
C56   C     C_3   0.014313 0.144941 0.789390 -0.816246
H36   H     H_    0.938364 0.120997 0.783052 0.253268
H37   H     H_    0.038832 0.091545 0.772787 0.256249
H38   H     H_    0.029809 0.155206 0.851869 0.248766
H39   H     H_    0.138484 0.258651 0.746351 0.237165
H40   H     H_    0.038818 0.287894 0.756854 0.221414
H41   H     H_    0.968409 0.194442 0.640861 0.195422
H42   H     H_    0.070349 0.172024 0.633159 0.203000
C57   C     C_3   0.215920 0.676030 0.480447 -0.384096
C58   C     C_3   0.236051 0.695282 0.390838 -0.371504
C59   C     C_3   0.338240 0.724736 0.369449 -0.821326
H43   H     H_    0.378193 0.790039 0.393612 0.251038
H44   H     H_    0.363618 0.670496 0.392233 0.269186
H45   H     H_    0.348714 0.736009 0.304550 0.241935
H46   H     H_    0.196774 0.633525 0.361251 0.222087
H47   H     H_    0.212874 0.750827 0.366689 0.223548
H48   H     H_    0.242896 0.742855 0.505822 0.198423
H49   H     H_    0.255147 0.638327 0.511323 0.252090
C60   C     C_3   0.844138 0.423056 0.664100 -0.398728
C61   C     C_3   0.865085 0.505760 0.711277 -0.337695
C62   C     C_3   0.782934 0.493835 0.765200 -0.819053
H50   H     H_    0.721583 0.488706 0.730000 0.251120
H51   H     H_    0.765964 0.430971 0.807317 0.258015
H52   H     H_    0.800174 0.554097 0.798955 0.250453
H53   H     H_    0.926225 0.513030 0.747445 0.226679
H54   H     H_    0.880973 0.570192 0.671592 0.229401
H55   H     H_    0.778444 0.408708 0.633958 0.192960
H56   H     H_    0.829310 0.361514 0.707591 0.193187
F5    F     F_    0.524837 0.639363 0.887990 -0.647551
F6    F     F_    0.488422 0.365256 0.111132 -0.647745

loop_
_geom_bond_atom_site_label_1
_geom_bond_atom_site_label_2
_ccdc_geom_bond_type
C48   C49   S    
C29   N3    A    
C53   H29   S    
C30   N4    A    
C27   C29   A    
C56   H36   S    
C34   C42   A    
C43   C44   A    
C62   H52   S    
C54   H41   S    
C39   C41   A    
C45   C46   S    
C51   H35   S    
C5    H1    S    
C52   H32   S    
C6    H2    S    
C32   C36   A    
C19   F2    S    
C19   C21   A    
C2    O2    A    
C58   H47   S    
Cu1   O5    S    
C14   N2    S    
C15   C17   A    
C55   C56   S    
C59   H45   S    
C21   C25   A    
C36   H7    S    
C1    O1    A    
C46   H18   S    
C60   H56   S    
C61   H53   S    
C19   N3    A    
Cu2   O3    S    
C48   H27   S    
Cu1   O1    S    
C14   C16   A    
C32   C38   A    
C50   H23   S    
Cu2   O6    S    
C3    C5    A    
C57   H49   S    
C40   C42   A    
C45   H20   S    
C53   H30   S    
C1    C7    S    
C35   H8    S    
C15   H11   S    
C23   O7    A    
C10   C12   A    
C21   H4    S    
C54   H42   S    
C49   H26   S    
C3    C44   A    
C26   N6    S    
C23   O5    A    
C25   N5    S    
C4    C6    A    
C47   H16   S    
C37   H6    S    
C58   H46   S    
C39   C43   A    
C38   H5    S    
C27   C45   S    
Cu1   Cu2   S    
C1    O3    A    
C31   C37   A    
C20   F1    S    
Cu1   O8    S    
C33   C51   S    
C23   C31   S    
C20   N4    A    
C11   F6    S    
C24   C32   S    
Cu2   O2    S    
C51   C52   S    
C48   H28   S    
C28   C48   S    
C12   F5    S    
C60   H55   S    
C56   H37   S    
C9    H10   S    
C16   H12   S    
C50   H24   S    
C10   H9    S    
C9    C11   A    
C59   H43   S    
C3    C57   S    
C17   H13   S    
C22   H3    S    
C18   H14   S    
C12   C14   A    
C45   H21   S    
C53   H31   S    
C13   C15   A    
C22   C26   A    
C31   C35   A    
C62   H50   S    
C55   H40   S    
C58   C59   S    
C24   O6    A    
C60   C61   S    
C7    C9    A    
C5    C41   A    
C49   H25   S    
Cu1   O4    S    
C46   C47   S    
C52   H33   S    
C16   C18   A    
C61   H54   S    
C20   C22   A    
C62   H51   S    
C7    C17   A    
C47   H17   S    
C57   C58   S    
C4    C60   S    
C4    C43   A    
C25   C27   A    
C51   H34   S    
C30   F4    S    
Cu1   N4    S    
C26   C28   A    
C29   F3    S    
Cu2   N3    S    
C33   C41   A    
C28   C30   A    
C61   C62   S    
C37   C39   A    
C54   C55   S    
C38   C40   A    
C11   C13   A    
C24   O8    A    
C52   C53   S    
C33   C35   A    
C56   H38   S    
C34   C36   A    
N1    N2    D    
C8    C18   A    
C59   H44   S    
C47   H15   S    
C46   H19   S    
C40   C44   A    
C13   N1    S    
C49   C50   S    
C8    C10   A    
N5    N6    D    
C6    C42   A    
C2    C8    S    
C34   C54   S    
C50   H22   S    
C2    O4    A    
C55   H39   S    
Cu2   O7    S    
C57   H48   S    
