data_mof_unit_64566.cif
_audit_creation_date              2012-10-26T18:16:36-0400
_audit_creation_method            fapswitch 2.2
_symmetry_space_group_name_H-M    P1
_symmetry_Int_Tables_number       1
_space_group_crystal_system       triclinic
_cell_length_a                    37.209545
_cell_length_b                    30.384911
_cell_length_c                    21.548925
_cell_angle_alpha                 89.999884
_cell_angle_beta                  54.69608
_cell_angle_gamma                 89.999973
_cell_volume                      19882.9252326

loop_
_atom_site_label
_atom_site_type_symbol
_atom_type_description
_atom_site_fract_x
_atom_site_fract_y
_atom_site_fract_z
_atom_type_partial_charge
C1    C     C_R   0.914861 0.499988 0.585044 0.558618
C2    C     C_R   0.202680 0.462769 0.277877 -0.123071
C3    C     C_R   0.012974 0.843253 0.933834 -0.130069
C4    C     C_R   0.500000 0.366554 0.000000 0.017991
C5    C     C_R   0.000000 0.866554 0.000000 0.017991
C6    C     C_R   0.500000 0.274172 0.000000 0.030758
C7    C     C_R   0.000000 0.774172 0.000000 0.030757
C8    C     C_R   0.039179 0.297383 0.971736 -0.090876
C9    C     C_R   0.960820 0.297383 0.028264 -0.090876
C10   C     C_R   0.539174 0.797382 0.971771 -0.090875
C11   C     C_R   0.460824 0.797383 0.028226 -0.090872
C12   C     C_R   0.039242 0.343212 0.971437 -0.137861
C13   C     C_R   0.297320 0.962769 0.722123 -0.123071
C14   C     C_R   0.960758 0.343212 0.028563 -0.137861
C15   C     C_R   0.539237 0.843211 0.971473 -0.137857
C16   C     C_R   0.460761 0.843212 0.028525 -0.137856
C17   C     C_R   1.000000 0.366501 1.000000 0.009600
C18   C     C_R   0.500000 0.866501 0.999999 0.009604
C19   C     C_3   0.965937 0.535280 0.247729 -0.223206
C20   C     C_3   0.034090 0.535254 0.752241 -0.223198
C21   C     C_3   0.465911 0.035256 0.247757 -0.223198
C22   C     C_3   0.534090 0.035254 0.752241 -0.223198
C23   C     C_R   1.000000 0.274298 0.000000 0.103227
C24   C     C_R   0.702680 0.962769 0.277877 -0.123071
C25   C     C_R   0.499999 0.774298 0.999998 0.103235
C26   C     C_R   0.474310 0.702898 0.069231 0.070829
C27   C     C_R   0.525687 0.702898 0.930767 0.070830
C28   C     C_R   0.974319 0.202898 0.069234 0.070828
C29   C     C_R   0.025681 0.202898 0.930767 0.070828
C30   C     C_R   0.474018 0.656535 0.069271 0.059006
C31   C     C_R   0.525981 0.656535 0.930728 0.059006
C32   C     C_R   0.974025 0.156534 0.069273 0.059008
C33   C     C_R   0.025975 0.156535 0.930728 0.059008
C34   C     C_R   0.499999 0.633416 1.000000 0.055292
C35   C     C_R   0.843206 0.462557 0.675776 -0.134698
C36   C     C_R   1.000000 0.133416 0.000000 0.055288
C37   C     C_R   0.499998 0.725868 0.999999 0.060953
C38   C     C_R   1.000000 0.225868 0.000000 0.060957
C39   C     C_3   0.044982 0.513506 0.242392 -0.271101
C40   C     C_3   0.955027 0.513543 0.757602 -0.271096
C41   C     C_3   0.544974 0.013541 0.242398 -0.271097
C42   C     C_3   0.455027 0.013543 0.757602 -0.271096
C43   C     C_3   0.988026 0.453679 0.296148 -0.223021
C44   C     C_3   0.011935 0.453671 0.703893 -0.223018
C45   C     C_3   0.488063 0.953672 0.296109 -0.223018
C46   C     C_R   0.156794 0.462557 0.324225 -0.134695
C47   C     C_3   0.511935 0.953671 0.703893 -0.223017
C48   C     C_3   0.998708 0.500164 0.312166 0.082542
C49   C     C_3   0.001289 0.500164 0.687837 0.082541
C50   C     C_3   0.498711 0.000164 0.312163 0.082541
C51   C     C_3   0.501289 0.000164 0.687837 0.082541
C52   C     C_3   0.999802 0.501196 0.189312 0.035540
C53   C     C_3   0.000198 0.501198 0.810688 0.035540
C54   C     C_3   0.499802 0.001198 0.189312 0.035540
C55   C     C_3   0.500198 0.001198 0.810688 0.035540
C56   C     C_3   0.045996 0.512984 0.169847 -0.238452
C57   C     C_R   0.343206 0.962557 0.675775 -0.134696
C58   C     C_3   0.954013 0.513023 0.830145 -0.238459
C59   C     C_3   0.545987 0.013021 0.169854 -0.238458
C60   C     C_3   0.454013 0.013023 0.830145 -0.238458
C61   C     C_R   0.656794 0.962557 0.324225 -0.134695
C62   C     C_R   0.866525 0.500031 0.633237 0.021149
C63   C     C_R   0.133475 0.500031 0.366763 0.021157
C64   C     C_R   0.366525 0.000031 0.633237 0.021157
C65   C     C_R   0.085139 0.499988 0.414956 0.558633
C66   C     C_R   0.633475 0.000031 0.366763 0.021157
C67   C     C_R   0.843291 0.537563 0.637157 -0.124314
C68   C     C_R   0.156709 0.537563 0.362842 -0.124314
C69   C     C_R   0.343291 0.037563 0.637157 -0.124314
C70   C     C_R   0.656709 0.037563 0.362842 -0.124314
C71   C     C_R   0.797401 0.537519 0.682634 -0.123636
C72   C     C_R   0.202599 0.537520 0.317366 -0.123636
C73   C     C_R   0.297401 0.037519 0.682634 -0.123636
C74   C     C_R   0.702599 0.037519 0.317366 -0.123636
C75   C     C_R   0.774159 0.500197 0.725637 0.030830
C76   C     C_R   0.414861 0.999988 0.585044 0.558631
C77   C     C_R   0.225841 0.500197 0.274363 0.030830
C78   C     C_R   0.274159 0.000197 0.725637 0.030830
C79   C     C_R   0.725841 0.000197 0.274363 0.030830
C80   C     C_R   0.702463 0.513817 0.744571 -0.123508
C81   C     C_R   0.297537 0.513818 0.255429 -0.123507
C82   C     C_R   0.202463 0.013817 0.744571 -0.123507
C83   C     C_R   0.797537 0.013817 0.255429 -0.123507
C84   C     C_R   0.656575 0.513481 0.790352 -0.129099
C85   C     C_R   0.343425 0.513482 0.209647 -0.129100
C86   C     C_R   0.156575 0.013482 0.790352 -0.129100
C87   C     C_R   0.585139 0.999988 0.414956 0.558631
C88   C     C_R   0.843425 0.013482 0.209647 -0.129100
C89   C     C_R   0.633382 0.500226 0.866673 0.019407
C90   C     C_R   0.366618 0.500226 0.133327 0.019407
C91   C     C_R   0.133382 0.000226 0.866673 0.019406
C92   C     C_R   0.866618 0.000226 0.133327 0.019406
C93   C     C_R   0.999076 0.499948 0.380797 0.585727
C94   C     C_R   0.000921 0.499947 0.619206 0.585737
C95   C     C_R   0.499079 0.999947 0.380794 0.585736
C96   C     C_R   0.500921 0.999947 0.619206 0.585737
C97   C     C_R   0.656772 0.487092 0.896387 -0.129995
C98   C     C_3   0.986520 0.455000 0.226228 -0.244083
C99   C     C_R   0.343228 0.487092 0.103613 -0.129995
C100  C     C_R   0.156772 0.987092 0.896387 -0.129995
C101  C     C_R   0.843228 0.987092 0.103613 -0.129995
C102  C     C_R   0.702662 0.486814 0.850254 -0.122526
C103  C     C_R   0.297338 0.486814 0.149746 -0.122526
C104  C     C_R   0.202662 0.986814 0.850254 -0.122526
C105  C     C_R   0.797338 0.986814 0.149746 -0.122526
C106  C     C_R   0.725764 0.500296 0.774160 0.031056
C107  C     C_R   0.274236 0.500296 0.225840 0.031057
C108  C     C_R   0.225764 0.000296 0.774159 0.031057
C109  C     C_3   0.013442 0.454992 0.773812 -0.244086
C110  C     C_R   0.774236 0.000296 0.225840 0.031057
C111  C     C_R   1.000000 0.585067 0.000000 0.545040
C112  C     C_R   0.500000 0.085067 0.000000 0.545037
C113  C     C_R   0.000021 0.501033 0.120126 0.552103
C114  C     C_R   0.999979 0.501036 0.879874 0.552103
C115  C     C_R   0.500021 0.001036 0.120126 0.552102
C116  C     C_R   0.499979 0.001036 0.879874 0.552102
C117  C     C_R   1.000000 0.414830 1.000000 0.551646
C118  C     C_R   0.500000 0.914830 1.000000 0.551645
C119  C     C_R   0.500000 0.414926 0.000000 0.545577
C120  C     C_3   0.486556 0.954993 0.226191 -0.244086
C121  C     C_R   1.000000 0.914926 0.000000 0.545578
C122  C     C_R   0.585022 0.500070 0.915006 0.549499
C123  C     C_R   0.414978 0.500070 0.084993 0.549499
C124  C     C_R   0.085022 0.000071 0.915006 0.549496
C125  C     C_R   0.914978 0.000071 0.084993 0.549497
C126  C     C_R   0.500000 0.584980 0.000000 0.612830
C127  C     C_R   1.000000 0.084980 0.000000 0.612821
C128  C     C_R   0.037399 0.702575 0.943003 -0.123345
C129  C     C_R   0.962601 0.702574 0.056997 -0.123345
C130  C     C_R   0.537399 0.202575 0.943003 -0.123345
C131  C     C_3   0.513442 0.954992 0.773811 -0.244086
C132  C     C_R   0.462601 0.202574 0.056997 -0.123345
C133  C     C_3   0.964777 0.534484 0.320897 -0.016470
C134  C     C_3   0.035247 0.534458 0.679075 -0.016485
C135  C     C_3   0.464754 0.034459 0.320923 -0.016484
C136  C     C_3   0.535247 0.034458 0.679075 -0.016485
C137  C     C_R   0.037533 0.656698 0.943330 -0.133843
C138  C     C_R   0.962467 0.656698 0.056671 -0.133843
C139  C     C_R   0.537533 0.156698 0.943330 -0.133843
C140  C     C_R   0.462467 0.156698 0.056671 -0.133843
C141  C     C_R   0.000000 0.633413 0.000000 0.015110
C142  C     C_R   0.797320 0.462769 0.722124 -0.123072
C143  C     C_R   0.500000 0.133413 0.000000 0.015110
C144  C     C_R   0.000000 0.725778 0.000000 0.030897
C145  C     C_R   0.500000 0.225778 0.000000 0.030897
C146  C     C_R   0.486701 0.297375 0.066309 -0.122503
C147  C     C_R   0.513299 0.297375 0.933691 -0.122503
C148  C     C_R   0.986701 0.797375 0.066309 -0.122503
C149  C     C_R   0.013299 0.797375 0.933691 -0.122503
C150  C     C_R   0.487026 0.343253 0.066167 -0.130069
C151  C     C_R   0.512974 0.343253 0.933834 -0.130069
C152  C     C_R   0.987026 0.843253 0.066167 -0.130069
Cu1   Cu    Cu3+1 1.000000 0.544030 0.500000 0.918344
Cu2   Cu    Cu3+1 0.500030 0.499990 0.062450 0.935139
Cu3   Cu    Cu3+1 0.999970 0.999990 0.937550 0.935140
Cu4   Cu    Cu3+1 0.000030 0.999990 0.062450 0.935140
Cu5   Cu    Cu3+1 0.500000 0.044030 0.500000 0.918331
Cu6   Cu    Cu3+1 1.000000 0.455920 0.500000 0.908686
Cu7   Cu    Cu3+1 0.500000 0.955920 0.500000 0.908694
Cu8   Cu    Cu3+1 0.955920 0.499940 0.044070 0.898057
Cu9   Cu    Cu3+1 0.044080 0.499940 0.955930 0.898057
Cu10  Cu    Cu3+1 0.455920 0.999940 0.044070 0.898059
Cu11  Cu    Cu3+1 0.544080 0.999940 0.955930 0.898059
Cu12  Cu    Cu3+1 0.499970 0.499990 0.937550 0.935139
H1    H     H_    0.009237 0.429654 0.184386 0.115121
H2    H     H_    0.929163 0.488512 0.870682 0.138783
H3    H     H_    0.586163 0.641735 0.835260 0.221428
H4    H     H_    0.955662 0.140898 0.175516 0.230951
H5    H     H_    0.913848 0.141735 0.164753 0.221427
H6    H     H_    0.044337 0.140898 0.824484 0.230951
H7    H     H_    0.086152 0.141735 0.835247 0.221427
H8    H     H_    0.932672 0.528331 0.261600 0.138196
H9    H     H_    0.067349 0.528279 0.738373 0.138209
H10   H     H_    0.432652 0.028282 0.261625 0.138208
H11   H     H_    0.567349 0.028279 0.738373 0.138209
H12   H     H_    0.975247 0.568800 0.222215 0.091864
H13   H     H_    0.570836 0.988508 0.129318 0.138781
H14   H     H_    0.024808 0.568782 0.777727 0.091869
H15   H     H_    0.475195 0.068783 0.222269 0.091869
H16   H     H_    0.524808 0.068782 0.777727 0.091869
H17   H     H_    0.053694 0.546995 0.250681 0.118701
H18   H     H_    0.946340 0.547039 0.749286 0.118722
H19   H     H_    0.553662 0.047037 0.250712 0.118721
H20   H     H_    0.446340 0.047039 0.749286 0.118722
H21   H     H_    0.956157 0.441266 0.346347 0.133925
H22   H     H_    0.043793 0.441232 0.653705 0.133947
H23   H     H_    0.456204 0.941234 0.346298 0.133945
H24   H     H_    0.429163 0.988512 0.870683 0.138781
H25   H     H_    0.543793 0.941233 0.653705 0.133946
H26   H     H_    0.952698 0.446678 0.243876 0.126182
H27   H     H_    0.047257 0.446643 0.756171 0.126166
H28   H     H_    0.452740 0.946645 0.243832 0.126168
H29   H     H_    0.547258 0.946643 0.756171 0.126167
H30   H     H_    0.779865 0.433565 0.754583 0.107166
H31   H     H_    0.220135 0.433565 0.245418 0.107166
H32   H     H_    0.279865 0.933565 0.754582 0.107166
H33   H     H_    0.720135 0.933565 0.245418 0.107166
H34   H     H_    0.860418 0.433267 0.673838 0.123245
H35   H     H_    0.139582 0.433267 0.326163 0.123245
H36   H     H_    0.360418 0.933267 0.673837 0.123244
H37   H     H_    0.990705 0.429665 0.815675 0.115133
H38   H     H_    0.639582 0.933267 0.326163 0.123244
H39   H     H_    0.860573 0.566785 0.604569 0.129314
H40   H     H_    0.139427 0.566786 0.395429 0.129305
H41   H     H_    0.360573 0.066785 0.604570 0.129306
H42   H     H_    0.639427 0.066785 0.395429 0.129305
H43   H     H_    0.780012 0.566785 0.685030 0.105784
H44   H     H_    0.219988 0.566785 0.314969 0.105783
H45   H     H_    0.280012 0.066785 0.685030 0.105783
H46   H     H_    0.719988 0.066785 0.314969 0.105783
H47   H     H_    0.719806 0.524087 0.685790 0.106737
H48   H     H_    0.509292 0.929665 0.184329 0.115130
H49   H     H_    0.280194 0.524087 0.314210 0.106737
H50   H     H_    0.219806 0.024087 0.685790 0.106737
H51   H     H_    0.780194 0.024087 0.314210 0.106737
H52   H     H_    0.639621 0.476610 0.955017 0.126666
H53   H     H_    0.360379 0.476610 0.044983 0.126666
H54   H     H_    0.139621 0.976610 0.955017 0.126666
H55   H     H_    0.860379 0.976610 0.044983 0.126666
H56   H     H_    0.066652 0.719989 0.898822 0.106558
H57   H     H_    0.933348 0.719989 0.101179 0.106558
H58   H     H_    0.566653 0.219989 0.898822 0.106557
H59   H     H_    0.490705 0.929665 0.815675 0.115130
H60   H     H_    0.433348 0.219989 0.101178 0.106558
H61   H     H_    0.066822 0.639466 0.898860 0.123227
H62   H     H_    0.933178 0.639466 0.101140 0.123227
H63   H     H_    0.566822 0.139466 0.898860 0.123227
H64   H     H_    0.433178 0.139466 0.101140 0.123227
H65   H     H_    0.476733 0.360465 0.117990 0.126258
H66   H     H_    0.523267 0.360465 0.882010 0.126258
H67   H     H_    0.976733 0.860465 0.117990 0.126258
H68   H     H_    0.023267 0.860465 0.882010 0.126258
H69   H     H_    0.056578 0.545819 0.141904 0.123974
H70   H     H_    0.070289 0.490397 0.235485 0.112181
H71   H     H_    0.943459 0.545867 0.858061 0.123951
H72   H     H_    0.556543 0.045865 0.141936 0.123952
H73   H     H_    0.443459 0.045867 0.858061 0.123951
H74   H     H_    0.013784 0.429786 0.285172 0.125716
H75   H     H_    0.986157 0.429798 0.714889 0.125697
H76   H     H_    0.513840 0.929798 0.285115 0.125697
H77   H     H_    0.486157 0.929798 0.714889 0.125696
H78   H     H_    0.974765 0.567762 0.327569 0.151406
H79   H     H_    0.025285 0.567743 0.672376 0.151401
H80   H     H_    0.474718 0.067744 0.327620 0.151401
H81   H     H_    0.929701 0.490454 0.764528 0.112168
H82   H     H_    0.525285 0.067743 0.672377 0.151401
H83   H     H_    0.639268 0.523947 0.766226 0.130365
H84   H     H_    0.360732 0.523947 0.233773 0.130365
H85   H     H_    0.139268 0.023947 0.766227 0.130363
H86   H     H_    0.860732 0.023947 0.233773 0.130363
H87   H     H_    0.906846 0.498281 0.380188 0.229432
H88   H     H_    0.900228 0.552602 0.397789 0.221018
H89   H     H_    0.093149 0.498208 0.619810 0.229437
H90   H     H_    0.099810 0.552524 0.602165 0.221020
H91   H     H_    0.406850 0.998212 0.380190 0.229437
H92   H     H_    0.570299 0.990451 0.235473 0.112168
H93   H     H_    0.400192 0.052528 0.397832 0.221020
H94   H     H_    0.593149 0.998209 0.619810 0.229438
H95   H     H_    0.599810 0.052524 0.602165 0.221020
H96   H     H_    0.720165 0.476552 0.874131 0.106290
H97   H     H_    0.279834 0.476552 0.125869 0.106290
H98   H     H_    0.220165 0.976551 0.874131 0.106290
H99   H     H_    0.779834 0.976552 0.125869 0.106290
H100  H     H_    0.476587 0.279959 0.117886 0.106017
H101  H     H_    0.523413 0.279960 0.882114 0.106017
H102  H     H_    0.976587 0.779960 0.117886 0.106017
H103  H     H_    0.429701 0.990454 0.764528 0.112167
H104  H     H_    0.023413 0.779960 0.882114 0.106017
H105  H     H_    0.069613 0.279860 0.950182 0.117105
H106  H     H_    0.930387 0.279859 0.049818 0.117105
H107  H     H_    0.569604 0.779858 0.950246 0.117090
H108  H     H_    0.430394 0.779860 0.049750 0.117091
H109  H     H_    0.069908 0.360357 0.949409 0.126170
H110  H     H_    0.930091 0.360357 0.050591 0.126170
H111  H     H_    0.569900 0.860357 0.949475 0.126162
H112  H     H_    0.430099 0.860358 0.050522 0.126162
H113  H     H_    0.459555 0.718085 0.173314 0.231560
H114  H     H_    0.070826 0.488452 0.129331 0.138767
H115  H     H_    0.415906 0.718934 0.167461 0.224748
H116  H     H_    0.540439 0.718083 0.826684 0.231559
H117  H     H_    0.584090 0.718935 0.832534 0.224747
H118  H     H_    0.959581 0.218083 0.173306 0.231563
H119  H     H_    0.915923 0.218935 0.167478 0.224745
H120  H     H_    0.040419 0.218083 0.826694 0.231563
H121  H     H_    0.084077 0.218935 0.832523 0.224745
H122  H     H_    0.455644 0.640899 0.175521 0.230950
H123  H     H_    0.413836 0.641733 0.164742 0.221428
H124  H     H_    0.544356 0.640897 0.824477 0.230951
N1    N     N_3   0.920275 0.525762 0.389008 -0.640062
N2    N     N_3   0.553372 0.632623 0.860802 -0.616456
N3    N     N_3   0.946640 0.132624 0.139201 -0.616448
N4    N     N_3   0.053359 0.132624 0.860799 -0.616449
N5    N     N_3   0.079742 0.525700 0.610970 -0.640069
N6    N     N_3   0.420259 0.025704 0.389029 -0.640068
N7    N     N_3   0.579742 0.025700 0.610970 -0.640069
N8    N     N_3   0.449145 0.727100 0.139264 -0.644645
N9    N     N_3   0.550849 0.727100 0.860734 -0.644643
N10   N     N_3   0.949164 0.227099 0.139267 -0.644656
N11   N     N_3   0.050836 0.227100 0.860733 -0.644655
N12   N     N_3   0.446628 0.632624 0.139198 -0.616456
O1    O     O_R   0.935720 0.537180 0.564270 -0.511194
O2    O     O_R   0.435750 0.499990 0.011490 -0.516689
O3    O     O_R   0.064250 0.999990 0.988510 -0.516689
O4    O     O_R   0.935750 0.999990 0.011490 -0.516689
O5    O     O_R   0.500010 0.564260 0.947230 -0.483254
O6    O     O_R   0.499990 0.564260 0.052770 -0.483254
O7    O     O_R   0.000010 0.064260 0.947230 -0.483249
O8    O     O_R   0.999990 0.064260 0.052770 -0.483248
O9    O     O_R   0.935680 0.462770 0.564310 -0.514261
O10   O     O_R   0.064320 0.462770 0.435690 -0.514250
O11   O     O_R   0.435680 0.962770 0.564310 -0.514253
O12   O     O_R   0.064280 0.537180 0.435730 -0.511201
O13   O     O_R   0.564320 0.962770 0.435690 -0.514253
O14   O     O_R   0.999990 0.537180 0.408860 -0.510876
O15   O     O_R   0.000010 0.537180 0.591140 -0.510903
O16   O     O_R   0.499990 0.037180 0.408860 -0.510899
O17   O     O_R   0.500010 0.037180 0.591140 -0.510902
O18   O     O_R   0.999950 0.462770 0.408890 -0.521098
O19   O     O_R   0.000050 0.462770 0.591110 -0.521082
O20   O     O_R   0.499950 0.962770 0.408890 -0.521084
O21   O     O_R   0.500050 0.962770 0.591110 -0.521083
O22   O     O_R   0.962770 0.564220 0.037230 -0.514184
O23   O     O_R   0.435720 0.037180 0.564270 -0.511200
O24   O     O_R   0.037230 0.564220 0.962770 -0.514183
O25   O     O_R   0.462770 0.064220 0.037230 -0.514185
O26   O     O_R   0.537230 0.064220 0.962770 -0.514185
O27   O     O_R   0.962780 0.499950 0.128370 -0.517198
O28   O     O_R   0.037220 0.499950 0.871630 -0.517199
O29   O     O_R   0.462780 0.999950 0.128370 -0.517197
O30   O     O_R   0.537220 0.999950 0.871630 -0.517198
O31   O     O_R   0.037180 0.500000 0.053970 -0.514741
O32   O     O_R   0.962820 0.500000 0.946030 -0.514741
O33   O     O_R   0.537180 0.000000 0.053970 -0.514742
O34   O     O_R   0.564280 0.037180 0.435730 -0.511200
O35   O     O_R   0.462820 1.000000 0.946030 -0.514743
O36   O     O_R   0.962780 0.435670 0.037210 -0.512387
O37   O     O_R   0.037220 0.435670 0.962790 -0.512387
O38   O     O_R   0.462780 0.935670 0.037210 -0.512383
O39   O     O_R   0.537220 0.935670 0.962790 -0.512382
O40   O     O_R   0.499930 0.435710 0.947300 -0.515894
O41   O     O_R   0.500070 0.435710 0.052700 -0.515894
O42   O     O_R   0.999930 0.935710 0.947300 -0.515894
O43   O     O_R   0.000070 0.935710 0.052700 -0.515894
O44   O     O_R   0.564240 0.499990 0.883000 -0.509935
O45   O     O_R   0.435760 0.499990 0.117000 -0.509934
O46   O     O_R   0.064240 0.999990 0.883000 -0.509935
O47   O     O_R   0.935760 0.999990 0.117000 -0.509935
O48   O     O_R   0.564250 0.499990 0.988510 -0.516689

loop_
_geom_bond_atom_site_label_1
_geom_bond_atom_site_label_2
_ccdc_geom_bond_type
C99   C103  A    
C105  C110  A    
C63   C65   S    
C24   C61   A    
C11   H108  S    
C147  H101  S    
C1    O1    A    
C117  O37   A    
C123  O45   A    
C31   N2    S    
C52   C113  S    
C41   H92   S    
C84   H83   S    
C135  N6    S    
C113  O31   A    
C6    C146  A    
C151  H66   S    
C29   C33   A    
C100  C104  A    
C33   C36   A    
C94   O15   A    
C78   C108  S    
H88   N1    S    
C138  H62   S    
C19   H12   S    
C137  C141  A    
C146  C150  A    
C125  O4    A    
Cu9   O37   S    
C70   C74   A    
C85   H84   S    
C91   C100  A    
C18   C118  S    
C16   H112  S    
C152  H67   S    
C71   H43   S    
C83   C88   A    
C60   H24   S    
Cu12  O44   S    
Cu6   O10   S    
C104  H98   S    
C121  O43   A    
C119  O41   A    
Cu2   O6    S    
C3    C149  A    
C40   C58   S    
H123  N12   S    
Cu2   O48   S    
C28   C32   A    
C58   H71   S    
C47   C131  S    
C133  N1    S    
Cu12  O2    S    
C76   O11   A    
C101  H55   S    
C39   C56   S    
C77   C107  S    
C105  H99   S    
C103  H97   S    
C114  O28   A    
C15   H111  S    
C128  C144  A    
H93   N6    S    
C45   C120  S    
Cu3   O7    S    
Cu8   O27   S    
C10   H107  S    
H87   N1    S    
Cu5   O17   S    
C132  C140  A    
C53   C109  S    
C98   H26   S    
C138  C141  A    
C12   H109  S    
C85   C90   A    
Cu8   O36   S    
C4    C150  A    
H120  N11   S    
Cu5   O16   S    
C86   C91   A    
Cu4   O43   S    
C29   N11   S    
Cu10  O25   S    
C30   N12   S    
C119  O40   A    
C66   C70   A    
C45   C50   S    
C127  O8    A    
C52   C98   S    
C102  H96   S    
C114  O32   A    
C67   H39   S    
C21   H15   S    
Cu3   Cu4   S    
Cu7   O21   S    
C103  C107  A    
C20   C134  S    
C21   C135  S    
C120  H48   S    
C15   C18   A    
C53   C58   S    
C68   H40   S    
C90   C123  S    
C27   N9    S    
C147  C151  A    
C140  C143  A    
C111  O24   A    
C83   C110  A    
C1    C62   S    
Cu7   O13   S    
C40   H81   S    
C72   H44   S    
C129  C144  A    
H3    N2    S    
C8    H105  S    
C132  C145  A    
C32   C36   A    
C73   H45   S    
C43   H74   S    
C122  O44   A    
C95   O16   A    
C2    H31   S    
Cu4   O47   S    
C133  H78   S    
C124  O46   A    
C13   C57   A    
C89   C122  S    
C11   C25   A    
Cu10  O29   S    
C40   C49   S    
C80   C106  A    
Cu1   Cu6   S    
C137  H61   S    
C139  C143  A    
H94   N7    S    
C81   H49   S    
C97   H52   S    
C29   C38   A    
Cu11  O30   S    
C82   C108  A    
Cu10  O38   S    
C128  H56   S    
C86   H85   S    
C100  H54   S    
C87   O13   A    
C14   C17   A    
C26   N8    S    
C131  H29   S    
H91   N6    S    
C28   N10   S    
C54   C59   S    
C115  O33   A    
C140  H64   S    
C30   C34   A    
C19   H8    S    
C126  O5    A    
C45   H23   S    
C42   H20   S    
Cu5   O23   S    
Cu9   O31   S    
H124  N2    S    
C116  O30   A    
C61   H38   S    
C51   C136  S    
C14   H110  S    
C24   C79   A    
C8    C12   A    
C31   C34   A    
C136  H82   S    
C64   C69   A    
C146  H100  S    
C75   C106  S    
C10   C25   A    
C26   C30   A    
C116  O35   A    
C111  O22   A    
C90   C99   A    
C33   N4    S    
Cu11  O39   S    
C63   C68   A    
Cu11  O33   S    
C148  C152  A    
C87   O34   A    
Cu10  O35   S    
C69   H41   S    
C46   C63   A    
C124  O3    A    
H7    N4    S    
C6    C147  A    
C142  H30   S    
C46   H35   S    
C125  O47   A    
Cu6   O18   S    
C58   H2    S    
C111  C141  S    
C35   C142  A    
C32   N3    S    
Cu1   O1    S    
C112  O25   A    
C131  H59   S    
C60   H73   S    
C42   H103  S    
C93   O18   A    
C81   C85   A    
Cu8   O32   S    
C81   C107  A    
C80   C84   A    
H90   N5    S    
C121  O42   A    
Cu2   O41   S    
C112  C143  S    
C50   C135  S    
H5    N3    S    
C21   C54   S    
H6    N4    S    
C139  H63   S    
C148  H102  S    
C9    C23   A    
Cu1   O15   S    
C13   C78   A    
C19   C52   S    
Cu12  O5    S    
Cu9   O24   S    
C12   C17   A    
C4    C119  S    
C69   C73   A    
C97   C102  A    
C17   C117  S    
C44   C109  S    
H95   N7    S    
Cu5   Cu7   S    
C55   C60   S    
C92   C125  S    
C130  C145  A    
H116  N9    S    
C122  O48   A    
C95   O20   A    
C8    C23   A    
C130  C139  A    
C22   H11   S    
C40   H18   S    
C48   C93   S    
C130  H58   S    
C123  O2    A    
C22   H16   S    
H117  N9    S    
C6    C145  S    
C47   C51   S    
C82   C86   A    
C27   C31   A    
Cu11  O26   S    
C22   C136  S    
C135  H80   S    
H89   N5    S    
C9    C14   A    
C11   C16   A    
C34   C126  S    
C127  O7    A    
C54   C115  S    
C150  H65   S    
C92   C101  A    
C115  O29   A    
C74   H46   S    
C24   H33   S    
C55   C131  S    
Cu6   O9    S    
C41   C50   S    
C104  C108  A    
C53   C114  S    
Cu10  Cu11  S    
Cu2   Cu12  S    
C1    O9    A    
C79   C110  S    
C132  H60   S    
C20   C53   S    
C3    C5    A    
C96   O17   A    
C39   H70   S    
C83   H51   S    
C26   C37   A    
C22   C55   S    
C76   O23   A    
C19   C133  S    
C23   C38   S    
C10   C15   A    
C109  H37   S    
C2    C77   A    
C75   C142  A    
H113  N8    S    
C67   C71   A    
C45   H76   S    
H4    N3    S    
Cu8   O22   S    
C21   H10   S    
C55   C116  S    
C43   H21   S    
C94   O19   A    
C41   H19   S    
C149  H104  S    
C44   H22   S    
C39   C48   S    
C44   C49   S    
C49   C134  S    
C54   C120  S    
C59   H72   S    
C43   C98   S    
C2    C46   A    
Cu4   O8    S    
C5    C152  A    
C62   C67   A    
Cu12  O40   S    
C27   C37   A    
C126  O6    A    
C65   O10   A    
C120  H28   S    
C50   C95   S    
H115  N8    S    
C5    C121  S    
Cu7   O11   S    
C7    C149  A    
C61   C66   A    
C129  C138  A    
C88   C92   A    
Cu3   O4    S    
C73   C78   A    
Cu4   O3    S    
C49   C94   S    
C43   C48   S    
Cu1   O12   S    
C68   C72   A    
C51   C96   S    
C117  O36   A    
C25   C37   S    
C82   H50   S    
H121  N11   S    
Cu2   O45   S    
H122  N12   S    
C7    C144  S    
C101  C105  A    
C56   H114  S    
C99   H53   S    
C48   C133  S    
C59   H13   S    
C41   C59   S    
Cu3   O46   S    
C129  H57   S    
C42   C60   S    
C66   C87   S    
C47   H77   S    
Cu9   O28   S    
C13   H32   S    
Cu5   O34   S    
C89   C97   A    
C47   H25   S    
C128  C137  A    
C72   C77   A    
C136  N7    S    
C20   H9    S    
C28   C38   A    
C93   O14   A    
C64   C76   S    
Cu6   O19   S    
C39   H17   S    
C80   H47   S    
C112  O26   A    
C91   C124  S    
C57   H36   S    
C56   H69   S    
C36   C127  S    
C84   C89   A    
C44   H75   S    
H118  N10   S    
C57   C64   A    
C88   H86   S    
C7    C148  A    
C4    C151  A    
C118  O39   A    
C65   O12   A    
C3    H68   S    
Cu3   O42   S    
C70   H42   S    
C42   C51   S    
C74   C79   A    
Cu8   Cu9   S    
C113  O27   A    
C134  N5    S    
C71   C75   A    
H119  N10   S    
C109  H27   S    
C96   O21   A    
C102  C106  A    
C35   C62   A    
C134  H79   S    
C98   H1    S    
Cu1   O14   S    
C118  O38   A    
C16   C18   A    
Cu7   O20   S    
C20   H14   S    
C52   C56   S    
C35   H34   S    
C9    H106  S    
