data_mof_unit_8499.cif
_audit_creation_date              2012-12-11T14:50:46-0500
_audit_creation_method            fapswitch 2.2
_symmetry_space_group_name_H-M    P1
_symmetry_Int_Tables_number       1
_space_group_crystal_system       triclinic
_cell_length_a                    11.226603
_cell_length_b                    11.033611
_cell_length_c                    18.882515
_cell_angle_alpha                 89.295682
_cell_angle_beta                  88.736143
_cell_angle_gamma                 60.837198
_cell_volume                      2041.98460076

loop_
_atom_site_label
_atom_site_type_symbol
_atom_type_description
_atom_site_fract_x
_atom_site_fract_y
_atom_site_fract_z
_atom_type_partial_charge
C1    C     C_R   0.237577 0.646386 0.610182 0.568235
C2    C     C_R   0.565573 0.228346 0.798554 0.227995
C3    C     C_R   0.545895 0.212990 0.727908 0.102008
C4    C     C_R   0.651333 0.619425 0.601465 0.549128
C5    C     C_R   0.654347 0.177142 0.677939 0.015803
C6    C     C_R   0.204344 0.548627 0.724033 0.066405
C7    C     C_R   0.199373 0.550966 0.799804 0.257742
C8    C     C_R   0.188202 0.667876 0.835681 -0.001021
C9    C     C_R   0.197075 0.773133 0.797139 0.225623
C10   C     C_R   0.180578 0.781288 0.723983 0.146706
C11   C     C_R   0.197899 0.662904 0.686406 -0.019884
C12   C     C_3   0.630168 0.587058 0.807225 0.297276
C13   C     C_R   0.715310 0.523283 0.270064 0.255995
C14   C     C_R   0.705952 0.540800 0.196700 0.214115
C15   C     C_R   0.648578 0.675196 0.168129 -0.016233
C16   C     C_R   0.623478 0.231066 0.604002 0.569060
C17   C     C_R   0.579881 0.793190 0.212841 0.123680
C18   C     C_R   0.588883 0.776200 0.286604 0.171989
C19   C     C_R   0.653952 0.641315 0.315245 -0.019117
C20   C     C_R   0.561878 0.296579 0.273212 0.123293
C21   C     C_R   0.570040 0.266996 0.201468 0.040024
C22   C     C_R   0.661865 0.133459 0.178742 0.039837
C23   C     C_3   0.697231 0.683198 0.811698 0.126550
C24   C     C_R   0.741002 0.026576 0.226895 0.279819
C25   C     C_R   0.732520 0.055969 0.299584 0.194631
C26   C     C_R   0.641270 0.191957 0.322005 0.040602
C27   C     C_R   0.200575 0.758859 0.283489 0.107883
C28   C     C_R   0.222118 0.651024 0.401301 0.601780
C29   C     C_R   0.212074 0.734661 0.211411 0.199790
C30   C     C_R   0.151652 0.661767 0.182481 -0.012105
C31   C     C_R   0.108950 0.585400 0.227685 0.177653
C32   C     C_R   0.114980 0.595114 0.301423 0.074643
C33   C     C_R   0.166026 0.677596 0.329643 0.039817
C34   C     C_3   0.669146 0.647532 0.676646 0.124033
C35   C     C_R   0.705389 0.100463 0.896166 0.595272
C36   C     C_R   0.726190 0.692107 0.887761 0.587731
C37   C     C_R   0.121180 0.705277 0.906703 0.551660
C38   C     C_R   0.677628 0.099636 0.104750 0.593518
C39   C     C_R   0.695654 0.691065 0.097367 0.566886
C40   C     C_R   0.640556 0.618181 0.390887 0.556557
C41   C     C_R   0.092887 0.707411 0.112380 0.578390
C42   C     C_R   0.616796 0.230348 0.395732 0.569361
C43   C     C_3   0.592175 0.833630 0.777056 0.353943
C44   C     C_3   0.568953 0.806328 0.695808 0.180718
C45   C     C_3   0.821543 0.616055 0.686567 0.301778
C46   C     C_3   0.840936 0.625639 0.769436 0.223658
C47   C     C_3   0.636039 0.546803 0.726988 0.200058
C48   C     C_R   0.786429 0.128932 0.703772 0.238836
C49   C     C_R   0.808109 0.123802 0.778326 0.083627
C50   C     C_R   0.695340 0.161870 0.825253 0.012638
Cr1   Cr    Cr6+3 0.392930 0.397900 0.502230 1.045780
Cr2   Cr    Cr6+3 0.398240 0.708600 0.501260 1.055747
Cr3   Cr    Cr6+3 0.708800 0.393470 0.496460 1.073233
Cr4   Cr    Cr6+3 0.937620 0.938540 0.007640 1.079816
Cr5   Cr    Cr6+3 0.625150 0.937450 0.994520 1.053289
Cr6   Cr    Cr6+3 0.937990 0.625080 0.001190 1.086815
H1    H     H_    0.701346 0.922072 0.741084 0.373537
H2    H     H_    0.415882 0.231605 0.849467 0.354446
H3    H     H_    0.401716 0.202248 0.661371 0.263963
H4    H     H_    0.401744 0.155928 0.743918 0.200195
H5    H     H_    0.180876 0.371100 0.708837 0.233707
H6    H     H_    0.123587 0.487708 0.645389 0.241384
H7    H     H_    0.212363 0.367974 0.813023 0.331146
H8    H     H_    0.266035 0.837708 0.873116 0.373415
H9    H     H_    0.384957 0.983116 0.787758 0.199121
H10   H     H_    0.463195 0.959696 0.859898 0.280121
H11   H     H_    0.192943 0.919047 0.649148 0.261454
H12   H     H_    0.832525 0.376001 0.739846 0.262627
H13   H     H_    0.136538 0.985929 0.724210 0.261797
H14   H     H_    0.826762 0.319659 0.262298 0.373952
H15   H     H_    0.712375 0.451230 0.107318 0.319358
H16   H     H_    0.418244 0.938848 0.160055 0.256902
H17   H     H_    0.473467 0.008515 0.220663 0.275451
H18   H     H_    0.583270 0.869962 0.374338 0.344662
H19   H     H_    0.484002 0.505088 0.270073 0.247126
H20   H     H_    0.371904 0.447148 0.283910 0.235535
H21   H     H_    0.541920 0.383311 0.112724 0.235763
H22   H     H_    0.418480 0.340560 0.130008 0.241427
H23   H     H_    0.755229 0.370087 0.667055 0.299447
H24   H     H_    0.857420 0.826965 0.240564 0.368851
H25   H     H_    0.799269 0.986641 0.394890 0.329578
H26   H     H_    0.162124 0.958378 0.285607 0.268918
H27   H     H_    0.328219 0.838126 0.294716 0.282010
H28   H     H_    0.365145 0.945491 0.679181 0.193467
H29   H     H_    0.392366 0.803483 0.726741 0.322792
H30   H     H_    0.309355 0.737404 0.125785 0.327356
H31   H     H_    0.117928 0.451575 0.160496 0.343436
H32   H     H_    0.971562 0.548243 0.337868 0.275343
H33   H     H_    0.132370 0.412531 0.335146 0.269849
H34   H     H_    0.910336 0.434355 0.827452 0.260376
H35   H     H_    0.563084 0.890488 0.594562 0.256327
H36   H     H_    0.538413 0.995713 0.660438 0.231846
H37   H     H_    0.967497 0.715386 0.750184 0.241328
H38   H     H_    0.913810 0.727334 0.834378 0.273387
H39   H     H_    0.821168 0.716884 0.592096 0.232537
H40   H     H_    0.949421 0.688249 0.642002 0.221705
H41   H     H_    0.676915 0.491730 0.906521 0.243257
H42   H     H_    0.654530 0.401065 0.845508 0.248029
H43   H     H_    0.460622 0.597427 0.847179 0.331970
H44   H     H_    0.484992 0.492610 0.741619 0.253716
H45   H     H_    0.010700 0.418399 0.763328 0.247360
H46   H     H_    0.513097 0.514278 0.657575 0.244231
H47   H     H_    0.945894 0.484624 0.612295 0.343477
H48   H     H_    0.937426 0.149170 0.667925 0.329066
H49   H     H_    0.930350 0.128625 0.856553 0.262002
H50   H     H_    0.967520 0.160653 0.779394 0.190165
N1    N     N_3   0.739220 0.400824 0.719050 -0.656443
N2    N     N_3   0.482303 0.372736 0.152960 -0.653187
N3    N     N_3   0.228702 0.863905 0.309563 -0.529486
N4    N     N_3   0.427932 0.838312 0.684717 -0.583902
N5    N     N_3   0.073648 0.517791 0.347714 -0.576461
N6    N     N_3   0.595393 0.894203 0.645516 -0.621229
N7    N     N_3   0.887786 0.726797 0.782137 -0.576190
N8    N     N_3   0.846499 0.717210 0.645049 -0.584879
N9    N     N_3   0.698934 0.463031 0.853242 -0.656147
N10   N     N_3   0.505243 0.556246 0.707832 -0.581835
N11   N     N_3   0.946201 0.490808 0.799014 -0.550321
N12   N     N_3   0.938843 0.094206 0.804712 -0.528602
N13   N     N_3   0.416776 0.225131 0.712170 -0.601424
N14   N     N_3   0.198914 0.442882 0.682660 -0.565793
N15   N     N_3   0.459957 0.902923 0.817004 -0.503064
N16   N     N_3   0.132815 0.914899 0.690079 -0.528930
N17   N     N_3   0.506169 0.930262 0.182679 -0.533659
N18   N     N_3   0.466946 0.432410 0.297851 -0.565136
O1    O     O_R   0.507430 0.255570 0.581420 -0.533612
O2    O     O_R   0.837200 0.593290 0.915250 -0.515245
O3    O     O_R   0.065330 0.635370 0.931590 -0.452802
O4    O     O_R   0.280190 0.527390 0.578910 -0.490067
O5    O     O_R   0.068300 0.828790 0.091860 -0.463722
O6    O     O_R   0.798730 0.057480 0.079370 -0.468016
O7    O     O_R   0.584680 0.080480 0.076790 -0.507446
O8    O     O_R   0.626790 0.809640 0.067050 -0.479107
O9    O     O_R   0.816010 0.596460 0.076500 -0.471912
O10   O     O_R   0.045680 0.638310 0.081070 -0.493513
O11   O     O_3   0.833590 0.833690 0.001120 -0.288431
O12   O     O_R   0.524460 0.695920 0.424060 -0.499195
O13   O     O_R   0.260310 0.739740 0.584580 -0.503731
O14   O     O_R   0.532250 0.695150 0.573830 -0.490392
O15   O     O_R   0.744930 0.503430 0.576380 -0.533214
O16   O     O_R   0.699250 0.276390 0.571950 -0.484525
O17   O     O_R   0.499020 0.256400 0.419850 -0.497252
O18   O     O_R   0.272400 0.528160 0.429140 -0.476347
O19   O     O_R   0.251910 0.740570 0.423020 -0.473425
O20   O     O_3   0.645490 0.925616 0.782793 -0.715273
O21   O     O_3   0.914367 0.481265 0.661437 -0.765660
O22   O     O_3   0.889255 0.098250 0.654630 -0.647289
O23   O     O_R   0.736530 0.504260 0.414810 -0.449997
O24   O     O_3   0.456665 0.293263 0.844693 -0.672173
O25   O     O_3   0.192470 0.450147 0.840976 -0.633623
O26   O     O_3   0.210764 0.876755 0.830182 -0.678648
O27   O     O_3   0.778609 0.391039 0.299158 -0.645426
O28   O     O_3   0.756557 0.424371 0.154041 -0.691339
O29   O     O_3   0.533910 0.893010 0.329064 -0.696596
O30   O     O_3   0.822345 0.893862 0.200879 -0.661271
O31   O     O_3   0.812337 0.950577 0.346021 -0.718860
O32   O     O_3   0.274544 0.792516 0.169941 -0.711207
O33   O     O_3   0.060085 0.501937 0.202008 -0.662006
O34   O     O_R   0.691460 0.277160 0.422180 -0.457725
O35   O     O_3   0.493768 0.662213 0.831712 -0.707588
O36   O     O_3   0.499990 0.499990 0.499980 -0.297015
O37   O     O_R   0.089490 0.825610 0.930610 -0.509540
O38   O     O_R   0.818370 0.054540 0.929880 -0.522733
O39   O     O_R   0.605870 0.077310 0.915530 -0.486144
O40   O     O_R   0.646440 0.806700 0.917570 -0.493229

loop_
_geom_bond_atom_site_label_1
_geom_bond_atom_site_label_2
_ccdc_geom_bond_type
Cr2   O36   S    
C32   N5    S    
H43   O35   S    
C25   O31   S    
Cr3   O16   S    
H44   N10   S    
C1    O4    A    
Cr6   O9    S    
C7    C8    A    
C16   O16   A    
C45   C46   S    
C27   C33   A    
C40   O12   A    
C12   C23   S    
C26   C42   S    
Cr3   O34   S    
C45   O21   S    
Cr1   O4    S    
C38   O6    A    
Cr5   O40   S    
C39   O9    A    
C30   C31   A    
H2    O24   S    
C27   C29   A    
C39   O8    A    
H39   N8    S    
C2    O24   S    
C22   C38   S    
Cr1   O36   S    
Cr3   O23   S    
C23   C43   S    
H4    N13   S    
H22   N2    S    
C18   C19   A    
Cr6   O3    S    
H30   O32   S    
H7    O25   S    
C5    C16   S    
C2    C50   A    
C7    O25   S    
H32   N5    S    
C45   N8    S    
C17   N17   S    
C49   N12   S    
C8    C9    A    
H17   N17   S    
C48   O22   S    
Cr2   O14   S    
H27   N3    S    
C30   C41   S    
H12   N1    S    
H9    N15   S    
H41   N9    S    
C9    C10   A    
C43   N15   S    
H6    N14   S    
C46   N7    S    
C12   N9    S    
Cr4   O37   S    
C23   C46   S    
C13   C14   A    
H50   N12   S    
H5    N14   S    
H40   N8    S    
C43   O20   S    
C42   O34   A    
C35   C50   S    
C12   C47   S    
C6    N14   S    
C41   O10   A    
H38   N7    S    
C24   O30   S    
Cr2   O13   S    
Cr1   O17   S    
C47   N10   S    
Cr4   O6    S    
C5    C48   A    
C4    C34   S    
C9    O26   S    
C35   O38   A    
C13   C19   A    
H19   N18   S    
H20   N18   S    
H26   N3    S    
H48   O22   S    
C47   N1    S    
C34   C44   S    
C24   C25   A    
C13   O27   S    
H29   N4    S    
C19   C40   S    
C6    C11   A    
C34   C45   S    
H36   N6    S    
C3    C5    A    
C25   C26   A    
C35   O39   A    
H31   O33   S    
H18   O29   S    
H8    O26   S    
Cr1   O1    S    
H35   N6    S    
C43   C44   S    
H34   N11   S    
C29   C30   A    
C27   N3    S    
C31   C32   A    
Cr5   O8    S    
C42   O17   A    
C17   C18   A    
H10   N15   S    
H23   N1    S    
C28   O19   A    
H37   N7    S    
Cr4   O38   S    
C15   C39   S    
C31   O33   S    
C18   O29   S    
C3    N13   S    
C29   O32   S    
C44   N6    S    
C48   C49   A    
C28   C33   S    
C23   C36   S    
Cr6   O2    S    
C10   C11   A    
H16   N17   S    
Cr2   O12   S    
C22   C24   A    
H49   N12   S    
C28   O18   A    
C8    C37   S    
H11   N16   S    
Cr6   O11   S    
C1    O13   A    
H47   O21   S    
C37   O37   A    
C16   O1    A    
Cr1   O18   S    
C15   C17   A    
Cr4   O5    S    
Cr3   O36   S    
H3    N13   S    
H1    O20   S    
Cr3   O15   S    
H21   N2    S    
C36   O2    A    
H14   O27   S    
C10   N16   S    
Cr6   O10   S    
H24   O30   S    
C6    C7    A    
C34   C47   S    
H33   N5    S    
Cr5   O7    S    
H25   O31   S    
H45   N11   S    
C38   O7    A    
C2    C3    A    
Cr5   O39   S    
C32   C33   A    
C4    O15   A    
C41   O5    A    
H42   N9    S    
C20   C26   A    
H13   N16   S    
Cr5   O11   S    
Cr4   O11   S    
C12   O35   S    
H28   N4    S    
C20   N18   S    
C21   N2    S    
H46   N10   S    
Cr2   O19   S    
C4    O14   A    
C20   C21   A    
C46   N11   S    
C49   C50   A    
C14   O28   S    
C36   O40   A    
H15   O28   S    
C14   C15   A    
C1    C11   S    
C21   C22   A    
C40   O23   A    
C37   O3    A    
C44   N4    S    
