data_mof_unit_27337.cif
_audit_creation_date              2013-03-05T15:42:22-0500
_audit_creation_method            fapswitch 2.2
_symmetry_space_group_name_H-M    P1
_symmetry_Int_Tables_number       1
_space_group_crystal_system       triclinic
_cell_length_a                    16.898356
_cell_length_b                    16.810409
_cell_length_c                    19.414075
_cell_angle_alpha                 117.67485
_cell_angle_beta                  62.327682
_cell_angle_gamma                 100.768398
_cell_volume                      4322.43171953

loop_
_atom_site_label
_atom_site_type_symbol
_atom_site_description
_atom_site_fract_x
_atom_site_fract_y
_atom_site_fract_z
_atom_type_partial_charge
C1    C     C_R   0.021330 0.760982 0.030090 -0.139283
H1    H     H_    0.051198 0.810422 0.070340 0.105047
N1    N     N_R   0.036080 0.671900 0.995420 -0.050420
C2    C     C_R   0.748042 0.479795 0.173211 -0.085226
H2    H     H_    0.693530 0.457182 0.155024 0.116677
N2    N     N_R   0.834710 0.454650 0.119760 -0.049997
C3    C     C_R   0.818454 0.506527 0.909309 -0.109816
H3    H     H_    0.843120 0.526425 0.857518 0.128764
N3    N     N_R   0.867430 0.509300 0.948100 -0.057557
C4    C     C_R   0.015716 0.657422 0.239039 0.256896
N4    N     N_R   0.003360 0.617250 0.167070 -0.093347
C5    C     C_R   0.749911 0.430646 0.987553 -0.095817
H4    H     H_    0.709282 0.384367 0.012610 0.175780
N5    N     N_R   0.825450 0.461270 0.995400 -0.062381
C6    C     C_R   0.076587 0.739630 0.165990 -0.176091
H5    H     H_    0.121287 0.784016 0.140036 0.117109
N6    N     N_R   0.045340 0.665280 0.119770 -0.061684
C7    C     C_R   0.828813 0.551594 0.247198 -0.074677
H6    H     H_    0.850001 0.599735 0.295012 0.132228
N7    N     N_R   0.883740 0.497640 0.167070 -0.043026
C8    C     C_R   0.942378 0.691183 0.953472 -0.024914
H7    H     H_    0.899581 0.674548 0.921780 0.186741
N8    N     N_R   0.987050 0.628910 0.948110 -0.068861
C9    C     C_R   0.960645 0.776399 0.006514 0.156195
C10   C     C_R   0.742763 0.541748 0.254079 0.028203
C11   C     C_R   0.744596 0.455489 0.931074 0.091693
C12   C     C_R   0.058582 0.737137 0.242212 -0.046146
C13   C     C_R   0.260952 0.515965 0.957816 -0.106707
H8    H     H_    0.306727 0.543887 0.914277 0.103958
N9    N     N_R   0.174550 0.538730 0.004600 -0.045722
C14   C     C_R   0.979874 0.248049 0.827921 -0.053164
H9    H     H_    0.955967 0.194214 0.846849 0.107317
N10   N     N_R   0.954660 0.334720 0.880230 -0.043052
C15   C     C_R   0.156617 0.515064 0.760980 0.721268
N11   N     N_R   0.116260 0.502360 0.832930 -0.120609
C16   C     C_R   0.024167 0.311218 0.075434 0.265657
N12   N     N_R   0.012950 0.371090 0.051890 -0.098304
C17   C     C_R   0.947850 0.244612 0.999445 -0.223425
H10   H     H_    0.901885 0.200147 0.976030 0.183884
N13   N     N_R   0.963920 0.328100 0.004580 -0.071289
C18   C     C_R   0.232303 0.585880 0.838352 -0.277684
H11   H     H_    0.270117 0.636883 0.868771 0.147231
N14   N     N_R   0.165290 0.545350 0.880240 -0.078357
C19   C     C_R   0.195817 0.435599 0.032889 -0.033927
H12   H     H_    0.185364 0.387690 0.058000 0.137341
N15   N     N_R   0.132570 0.490700 0.051900 -0.038280
C20   C     C_R   0.050061 0.327025 0.752112 -0.104914
H13   H     H_    0.093360 0.347063 0.701761 0.164874
N16   N     N_R   0.996640 0.382750 0.832930 -0.043486
Ni1   Ni    Ni4+2 0.104370 0.604370 0.000010 0.202024
Ni2   Ni    Ni4+2 0.895630 0.395630 0.999990 0.256636
Ni3   Ni    Ni4+2 0.991920 0.505780 0.891500 0.279185
Ni4   Ni    Ni4+2 0.008080 0.494220 0.108500 0.325432
C21   C     C_R   0.276968 0.449015 0.972483 0.006168
C22   C     C_R   0.043069 0.241492 0.747378 0.022306
C23   C     C_R   0.228819 0.569936 0.763109 -0.043632
C24   C     C_R   0.986102 0.230272 0.042153 0.037744
C25   C     C_R   0.146247 0.161488 0.591036 -0.230572
C26   C     C_R   0.090051 0.159201 0.670871 0.110507
C27   C     C_R   0.067991 0.076269 0.674636 -0.220469
C28   C     C_R   0.082804 0.998157 0.599320 0.121942
C29   C     C_R   0.126805 0.002537 0.519138 0.036843
C30   C     C_R   0.164033 0.083211 0.514537 0.124203
C31   C     C_R   0.043846 0.918615 0.604060 -0.170274
C32   C     C_R   0.038590 0.847544 0.531603 -0.155514
C33   C     C_R   0.074725 0.854857 0.453670 0.093979
C34   C     C_R   0.124232 0.929669 0.445489 0.034926
C35   C     C_R   0.162009 0.936026 0.366397 0.120583
C36   C     C_R   0.208327 0.012730 0.360302 -0.174174
C37   C     C_R   0.208729 0.086417 0.434309 -0.168893
C38   C     C_R   0.054728 0.792679 0.386671 -0.172487
C39   C     C_R   0.089231 0.799177 0.308281 0.136940
C40   C     C_R   0.146482 0.868994 0.297145 -0.228050
H14   H     H_    0.168699 0.224606 0.587348 0.133672
H15   H     H_    0.029821 0.072736 0.735780 0.128158
H16   H     H_    0.010828 0.914194 0.665147 0.157383
H17   H     H_    0.002042 0.789056 0.537696 0.161805
H18   H     H_    0.006440 0.743527 0.399465 0.164648
H19   H     H_    0.174037 0.875042 0.237195 0.125857
H20   H     H_    0.238848 0.018120 0.299752 0.148842
H21   H     H_    0.238987 0.147632 0.429715 0.153171
C41   C     C_R   0.373113 0.635033 0.704838 -0.275013
C42   C     C_R   0.290393 0.608223 0.702382 0.003111
C43   C     C_R   0.274074 0.610339 0.637658 0.311667
C44   C     C_R   0.347584 0.617805 0.565438 -0.077215
C45   C     C_R   0.432914 0.633748 0.565138 0.014563
C46   C     C_R   0.443590 0.649012 0.637935 0.131675
C47   C     C_R   0.339853 0.606524 0.492052 -0.098193
C48   C     C_R   0.416177 0.597512 0.416261 -0.190402
C49   C     C_R   0.501178 0.604595 0.413803 0.130310
C50   C     C_R   0.508948 0.629220 0.490322 0.066229
C51   C     C_R   0.593712 0.642075 0.490294 0.119073
C52   C     C_R   0.601938 0.666716 0.566050 -0.177159
C53   C     C_R   0.527103 0.669496 0.639552 -0.170228
C54   C     C_R   0.578576 0.581905 0.335668 -0.224957
C55   C     C_R   0.662692 0.585162 0.334778 0.112940
C56   C     C_R   0.669600 0.622038 0.413086 -0.236284
H22   H     H_    0.386502 0.637637 0.755149 0.142742
H23   H     H_    0.276071 0.599676 0.490173 0.190754
H24   H     H_    0.408778 0.582017 0.358825 0.151848
H25   H     H_    0.572910 0.557055 0.275761 0.132505
H26   H     H_    0.733490 0.627024 0.414585 0.140599
H27   H     H_    0.666853 0.678011 0.566859 0.148851
H28   H     H_    0.535330 0.682877 0.696083 0.140548
C57   C     C_R   0.678273 0.428769 0.895513 -0.022064
C58   C     C_R   0.364826 0.406069 0.934412 0.127994
C59   C     C_R   0.460335 0.314655 0.933859 -0.108624
C60   C     C_R   0.375423 0.337580 0.951779 -0.176176
C61   C     C_R   0.440754 0.441653 0.887959 -0.210232
C62   C     C_R   0.524029 0.425462 0.877133 0.144486
C63   C     C_R   0.534115 0.364904 0.904467 -0.002524
C64   C     C_R   0.615121 0.362039 0.907710 0.261996
C65   C     C_R   0.670328 0.480452 0.859198 -0.164341
C66   C     C_R   0.594859 0.476759 0.847680 -0.189989
H29   H     H_    0.718750 0.529576 0.845842 0.159467
H30   H     H_    0.465470 0.263154 0.950155 0.192452
H31   H     H_    0.588072 0.521664 0.824662 0.143983
H32   H     H_    0.318243 0.304787 0.982875 0.139525
H33   H     H_    0.435302 0.490608 0.868907 0.110755
C67   C     C_R   0.814994 0.194780 0.205653 0.035629
C68   C     C_R   0.919080 0.865440 0.037918 -0.162263
C69   C     C_R   0.810844 0.956012 0.050507 0.682897
C70   C     C_R   0.852716 0.872997 0.016094 0.588313
C71   C     C_R   0.942366 0.944255 0.094929 -0.293251
C72   C     C_R   0.900409 0.027785 0.130260 0.072745
C73   C     C_R   0.834841 0.035111 0.106976 -0.342933
C74   C     C_R   0.793559 0.120852 0.144020 0.351609
C75   C     C_R   0.878037 0.186401 0.229269 -0.159639
C76   C     C_R   0.921774 0.103801 0.190806 -0.078652
H34   H     H_    0.893713 0.244555 0.276827 0.186152
H35   H     H_    0.971266 0.098979 0.209569 0.141876
H36   H     H_    0.992096 0.941299 0.114024 0.158093
F1    F     F_    0.119211 0.492068 0.706383 -0.672413
N17   N     N_R   0.048796 0.333711 0.143312 0.218848
O1    O     O_R   0.069407 0.270487 0.153646 -0.404810
O2    O     O_R   0.044648 0.416636 0.198819 -0.325506
N18   N     N_R   0.184250 0.611190 0.648256 0.262299
O3    O     O_R   0.159964 0.551543 0.589477 -0.328925
O4    O     O_R   0.124388 0.667636 0.720411 -0.360548
N19   N     N_R   0.633100 0.293054 0.923043 0.219182
O5    O     O_R   0.581772 0.285673 0.994505 -0.399974
O6    O     O_R   0.706512 0.243720 0.869491 -0.376726
N20   N     N_R   0.731952 0.135792 0.119152 0.272271
O7    O     O_R   0.755911 0.114252 0.038353 -0.321379
O8    O     O_R   0.662361 0.189575 0.177669 -0.357056
N21   N     N_R   0.029728 0.605208 0.273639 0.242892
O9    O     O_R   0.962207 0.581202 0.328245 -0.398349
O10   O     O_R   0.110382 0.592448 0.259977 -0.346966
F2    F     F_    0.743154 0.956445 0.031563 -0.595071
F3    F     F_    0.825315 0.800296 0.962935 -0.670602

loop_
_geom_bond_atom_site_label_1
_geom_bond_atom_site_label_2
_geom_bond_distance
_ccdc_geom_bond_type
C4    C12   1.387888 A    
C15   C23   1.389992 A    
C73   C74   1.424133 A    
C22   C26   1.468523 S    
C18   N14   1.333749 A    
C18   H11   1.080560 S    
C64   N19   1.435973 S    
N1    N8    1.385217 A    
C54   C55   1.404522 A    
C75   C76   1.392712 A    
C52   H27   1.083986 S    
C2    C10   1.393991 A    
N8    Ni3   1.834534 S    
C67   C74   1.400149 A    
C3    H3    1.080586 S    
C20   N16   1.337665 A    
C44   C45   1.414311 A    
C76   H35   1.083725 S    
N18   O4    1.301435 A    
C61   H33   1.079470 S    
C52   C53   1.386234 A    
C3    C11   1.385330 A    
C29   C34   1.399168 A    
C57   C65   1.403724 A    
C13   H8    1.076431 S    
N19   O6    1.301235 A    
C15   N11   1.341540 A    
N12   N13   1.385217 A    
C45   C50   1.402424 A    
C17   H10   1.078908 S    
N10   N16   1.366752 A    
C6    H5    1.079950 S    
C46   C53   1.400235 A    
C71   H36   1.080836 S    
N20   O8    1.301266 A    
C7    H6    1.071180 S    
C37   H21   1.083793 S    
C62   C63   1.413367 A    
C51   C52   1.398723 A    
C68   C71   1.408118 A    
C65   C66   1.379352 A    
N5    Ni2   1.819457 S    
C35   C36   1.402778 A    
C20   H13   1.074157 S    
C59   C60   1.395291 A    
C14   N10   1.338394 A    
N2    Ni2   1.861763 S    
N11   N14   1.385217 A    
C62   C66   1.392773 A    
C56   H26   1.080099 S    
N4    Ni4   1.835647 S    
N12   Ni4   1.834534 S    
C47   C48   1.398112 A    
C33   C34   1.405589 A    
N9    Ni1   1.819455 S    
C70   F3    1.354218 S    
C53   H28   1.084023 S    
C26   C27   1.401078 A    
C8    H7    1.075949 S    
C41   H22   1.081190 S    
C36   C37   1.396950 A    
N3    Ni3   1.864253 S    
C10   C55   1.468294 S    
C11   C57   1.475459 S    
N1    Ni1   1.818608 S    
C19   N15   1.349968 A    
C51   C56   1.382673 A    
N21   O10   1.301740 A    
C40   H19   1.081949 S    
C32   H17   1.084151 S    
C21   C58   1.468781 S    
C48   H24   1.083681 S    
C34   C35   1.411810 A    
C47   H23   1.078200 S    
C69   F2    1.356502 S    
C60   H32   1.081790 S    
C49   C54   1.401188 A    
C43   C44   1.418505 A    
C2    N2    1.346362 A    
C16   C24   1.387479 A    
C50   C51   1.407869 A    
C13   C21   1.379866 A    
C45   C46   1.406573 A    
N7    Ni4   1.864495 S    
N17   O2    1.296287 A    
C15   F1    1.350135 S    
C35   C40   1.398595 A    
C5    C11   1.384036 A    
C27   C28   1.387164 A    
C1    N1    1.343527 A    
C69   C73   1.411270 A    
C28   C31   1.399587 A    
N3    N5    1.366754 A    
C18   C23   1.385457 A    
C29   C30   1.408694 A    
C72   C76   1.404078 A    
C17   C24   1.380253 A    
C6    C12   1.385201 A    
C42   C43   1.422418 A    
C30   C37   1.403360 A    
N16   Ni3   1.835647 S    
C55   C56   1.404114 A    
C41   C46   1.379408 A    
C31   H16   1.084004 S    
C74   N20   1.434274 S    
N19   O5    1.301726 A    
C33   C38   1.382729 A    
C4    N21   1.432057 S    
C57   C64   1.420548 A    
C5    N5    1.334115 A    
C43   N18   1.435890 S    
C41   C42   1.402094 A    
C8    N8    1.340765 A    
C72   C73   1.419527 A    
C19   H12   1.071949 S    
C25   H14   1.081571 S    
C23   C42   1.483921 S    
C20   C22   1.383357 A    
N21   O9    1.300164 A    
C44   C47   1.412615 A    
C25   C30   1.394772 A    
C3    N3    1.336467 A    
N4    N6    1.366752 A    
C63   C64   1.409820 A    
C59   C63   1.409598 A    
N9    N15   1.366751 A    
C14   H9    1.073156 S    
C39   C40   1.406174 A    
C16   N17   1.428464 S    
N6    Ni1   1.861530 S    
C67   C75   1.390930 A    
N14   Ni1   1.861762 S    
C6    N6    1.340821 A    
N17   O1    1.300940 A    
C75   H34   1.081806 S    
N10   Ni2   1.861530 S    
N13   Ni2   1.818607 S    
N2    N7    1.385217 A    
N18   O3    1.301674 A    
C27   H15   1.081053 S    
C54   H25   1.083287 S    
C31   C32   1.388991 A    
C13   N9    1.325650 A    
C25   C26   1.407180 A    
C38   C39   1.405132 A    
C7    C10   1.381962 A    
C61   C62   1.383394 A    
C17   N13   1.343938 A    
C49   C50   1.408930 A    
C58   C60   1.401789 A    
C1    H1    1.078141 S    
N15   Ni4   1.864254 S    
C9    C68   1.500973 S    
C7    N7    1.329250 A    
C28   C29   1.411543 A    
C59   H30   1.079406 S    
C68   C70   1.413443 A    
C66   H31   1.084446 S    
C4    N4    1.339273 A    
C19   C21   1.393932 A    
C2    H2    1.079014 S    
C5    H4    1.074706 S    
C1    C9    1.404892 A    
C16   N12   1.355335 A    
C32   C33   1.401349 A    
C8    C9    1.402696 A    
N11   Ni3   1.864494 S    
C69   C70   1.399390 A    
C36   H20   1.083710 S    
C14   C22   1.389425 A    
C48   C49   1.399050 A    
C38   H18   1.077359 S    
C12   C39   1.474346 S    
N20   O7    1.301139 A    
C71   C72   1.403741 A    
C65   H29   1.080765 S    
C58   C61   1.398902 A    
