data_mof_unit_52937.cif
_audit_creation_date              2012-12-11T15:33:34-0500
_audit_creation_method            fapswitch 2.2
_symmetry_space_group_name_H-M    P1
_symmetry_Int_Tables_number       1
_space_group_crystal_system       triclinic
_cell_length_a                    26.78116
_cell_length_b                    7.204433
_cell_length_c                    22.777484
_cell_angle_alpha                 89.773657
_cell_angle_beta                  101.866238
_cell_angle_gamma                 89.776131
_cell_volume                      4300.75962684

loop_
_atom_site_label
_atom_site_type_symbol
_atom_type_description
_atom_site_fract_x
_atom_site_fract_y
_atom_site_fract_z
_atom_type_partial_charge
O1    O     O_R   0.207310 0.594030 0.676830 -0.533885
O2    O     O_R   0.792690 0.405970 0.323170 -0.529546
O3    O     O_R   0.292690 0.094030 0.823170 -0.517820
O4    O     O_R   0.707310 0.905970 0.176830 -0.527733
O5    O     O_R   0.197320 0.262370 0.795700 -0.532119
O6    O     O_R   0.802680 0.737630 0.204300 -0.544379
O7    O     O_R   0.302680 0.762370 0.704300 -0.534979
O8    O     O_R   0.697320 0.237630 0.295700 -0.544362
C1    C     C_R   0.184673 0.432112 0.811955 0.698641
C2    C     C_R   0.815433 0.567849 0.188188 0.718274
C3    C     C_R   0.315309 0.932007 0.687996 0.693304
C4    C     C_R   0.684724 0.067928 0.312046 0.705679
O9    O     O_R   0.201410 0.264250 0.675590 -0.524543
O10   O     O_R   0.798590 0.735750 0.324410 -0.520169
O11   O     O_R   0.298590 0.764250 0.824410 -0.532523
O12   O     O_R   0.701410 0.235750 0.175590 -0.514888
O13   O     O_R   0.296810 0.094940 0.702210 -0.534130
O14   O     O_R   0.703190 0.905060 0.297790 -0.534561
O15   O     O_R   0.203190 0.594940 0.797790 -0.543700
O16   O     O_R   0.796810 0.405060 0.202210 -0.530508
C5    C     C_R   0.189499 0.433376 0.653121 0.727994
C6    C     C_R   0.810708 0.566318 0.346657 0.705550
C7    C     C_R   0.310546 0.932045 0.846873 0.718322
C8    C     C_R   0.689581 0.067690 0.152967 0.701199
O17   O     O_3   0.281300 0.427390 0.758870 -0.368521
O18   O     O_3   0.718700 0.572610 0.241130 -0.371654
O19   O     O_3   0.218700 0.927390 0.741130 -0.376892
O20   O     O_3   0.781300 0.072610 0.258870 -0.371660
V1    V     V_3+5 0.244190 0.152150 0.748350 1.514716
V2    V     V_3+5 0.755810 0.847850 0.251650 1.516829
V3    V     V_3+5 0.255810 0.652150 0.751650 1.497998
V4    V     V_3+5 0.744190 0.347850 0.248350 1.523735
C9    C     C_R   0.654936 0.058572 0.092916 -0.115450
C10   C     C_R   0.345727 0.935005 0.906555 -0.122213
C11   C     C_R   0.845904 0.550607 0.406067 -0.118157
C12   C     C_R   0.155459 0.442708 0.592732 -0.127993
C13   C     C_R   0.639935 0.077146 0.983601 -0.067854
C14   C     C_R   0.361425 0.901494 0.015434 -0.065599
C15   C     C_R   0.859542 0.496611 0.514001 -0.073127
C16   C     C_R   0.141546 0.494262 0.484537 -0.071215
C17   C     C_R   0.672626 0.101143 0.040427 -0.074308
C18   C     C_R   0.326812 0.921405 0.959632 -0.079925
C19   C     C_R   0.826741 0.546221 0.459020 -0.078770
C20   C     C_R   0.174570 0.493889 0.541840 -0.079339
C21   C     C_R   0.604256 0.001339 0.088182 -0.133240
C22   C     C_R   0.398610 0.939172 0.910041 -0.151559
C23   C     C_R   0.898002 0.518088 0.409014 -0.145923
C24   C     C_R   0.102948 0.412895 0.586850 -0.144178
C25   C     C_R   0.572552 0.956168 0.032008 0.077806
C26   C     C_R   0.433880 0.897132 0.964214 0.078999
C27   C     C_R   0.930361 0.447340 0.461825 0.075928
C28   C     C_R   0.069457 0.401257 0.529846 0.088560
C29   C     C_R   0.592159 0.985292 0.979355 0.050308
C30   C     C_R   0.414289 0.867612 0.016865 0.048301
C31   C     C_R   0.909462 0.425792 0.513922 0.050009
C32   C     C_R   0.090275 0.429240 0.477984 0.047705
C33   C     C_R   0.521031 0.891163 0.026210 -0.034510
C34   C     C_R   0.488223 0.891355 0.968363 -0.033807
C35   C     C_R   0.983380 0.403735 0.465279 -0.033018
C36   C     C_R   0.015382 0.372212 0.522671 -0.031890
C37   C     C_R   0.511650 0.873911 0.917877 -0.003606
C38   C     C_R   0.501364 0.815140 0.074585 -0.010542
C39   C     C_R   0.991715 0.303760 0.568921 -0.011655
C40   C     C_R   0.005691 0.378446 0.414241 -0.009466
C41   C     C_R   0.564323 0.913616 0.924185 0.087260
C42   C     C_R   0.447850 0.797120 0.068924 0.068593
C43   C     C_R   0.938246 0.324973 0.563422 0.080976
C44   C     C_R   0.059551 0.383578 0.421208 0.072920
H1    H     H_    0.411192 0.976263 0.869551 0.120433
H2    H     H_    0.590243 0.995935 0.129273 0.116066
H3    H     H_    0.088967 0.406358 0.627926 0.113274
H4    H     H_    0.912160 0.548527 0.369054 0.121024
C45   C     C_R   0.639062 0.895171 0.381597 -0.080055
C46   C     C_R   0.361636 0.105059 0.619252 -0.119881
C47   C     C_R   0.861890 0.395236 0.119559 -0.098343
C48   C     C_R   0.137952 0.605852 0.880049 -0.134926
H5    H     H_    0.660546 0.770879 0.376394 0.139194
H6    H     H_    0.340176 0.229275 0.624465 0.171682
H7    H     H_    0.840531 0.271253 0.124891 0.134481
H8    H     H_    0.159013 0.730167 0.874179 0.130263
C49   C     C_R   0.604492 0.888582 0.419926 -0.097577
C50   C     C_R   0.396574 0.112088 0.581395 -0.074379
C51   C     C_R   0.896612 0.388706 0.081421 -0.109771
C52   C     C_R   0.103260 0.612972 0.918222 -0.086280
H9    H     H_    0.600350 0.759321 0.442764 0.147729
H10   H     H_    0.401049 0.241636 0.558883 0.177465
H11   H     H_    0.900928 0.259815 0.058719 0.149446
H12   H     H_    0.098628 0.742428 0.940451 0.170040
C53   C     C_R   0.574808 0.044167 0.427951 -0.039974
C54   C     C_R   0.426156 0.956349 0.573351 -0.023235
C55   C     C_R   0.926143 0.543966 0.073312 -0.038572
C56   C     C_R   0.074133 0.457347 0.926967 -0.014149
C57   C     C_R   0.581749 0.211894 0.397544 0.003961
C58   C     C_R   0.418948 0.788365 0.603443 -0.090378
C59   C     C_R   0.919028 0.711138 0.103623 0.006643
C60   C     C_R   0.081537 0.289410 0.897264 -0.088851
C61   C     C_R   0.617135 0.216823 0.359358 -0.183956
C62   C     C_R   0.382982 0.782611 0.640846 -0.232911
C63   C     C_R   0.883422 0.716088 0.141537 -0.176692
C64   C     C_R   0.117375 0.283305 0.859707 -0.192431
H13   H     H_    0.622585 0.345638 0.336806 0.144790
H14   H     H_    0.376855 0.653028 0.662550 0.139872
H15   H     H_    0.877783 0.844584 0.163941 0.149476
H16   H     H_    0.123689 0.153615 0.838369 0.122947
C65   C     C_R   0.646173 0.059498 0.351006 -0.056844
C66   C     C_R   0.354092 0.940274 0.649340 -0.052699
C67   C     C_R   0.854369 0.559279 0.149743 -0.060715
C68   C     C_R   0.145885 0.440765 0.850598 -0.014273
N1    N     N_R   0.489421 0.105306 0.450744 -0.227702
N2    N     N_R   0.511400 0.893856 0.550340 -0.239589
N3    N     N_R   0.011333 0.604408 0.050044 -0.228798
N4    N     N_R   0.989163 0.395793 0.950526 -0.240345
N5    N     N_R   0.454688 0.083576 0.484608 -0.238962
N6    N     N_R   0.546180 0.915970 0.516547 -0.261219
N7    N     N_R   0.045898 0.583098 0.015922 -0.238061
N8    N     N_R   0.954553 0.417526 0.984564 -0.261197
C69   C     C_R   0.464793 0.976523 0.534981 0.561011
C70   C     C_R   0.536106 0.023277 0.466221 0.552863
C71   C     C_R   0.035687 0.477467 0.965581 0.560922
C72   C     C_R   0.964723 0.523381 0.034862 0.552069
C73   C     C_3   0.592063 0.851626 0.875629 -0.632127
H17   H     H_    0.579910 0.709979 0.859934 0.214445
H18   H     H_    0.584049 0.949346 0.837024 0.250381
H19   H     H_    0.633851 0.839435 0.892394 0.207499
C74   C     C_3   0.427346 0.678039 0.113871 -0.614019
H20   H     H_    0.450280 0.548921 0.124249 0.215056
H21   H     H_    0.428261 0.756485 0.155909 0.252749
H22   H     H_    0.388023 0.628886 0.095844 0.208905
C75   C     C_3   0.911294 0.215092 0.604791 -0.630830
H23   H     H_    0.926125 0.070559 0.610200 0.218555
H24   H     H_    0.917006 0.282031 0.649452 0.249807
H25   H     H_    0.869902 0.199750 0.586152 0.207554
C76   C     C_3   0.083990 0.310054 0.371249 -0.612570
H26   H     H_    0.064578 0.181792 0.351803 0.221560
H27   H     H_    0.081827 0.416075 0.335328 0.250982
H28   H     H_    0.124220 0.266952 0.387874 0.204637
C77   C     C_2   0.271035 0.935684 0.956480 0.779855
O21   O     O_2   0.247582 0.073579 0.934414 -0.557659
O22   O     O_R   0.245281 0.789606 0.977574 -0.624245
H29   H     H_    0.207796 0.818240 0.974889 0.305667
C78   C     C_2   0.724998 0.173408 0.045201 0.791922
O23   O     O_2   0.736197 0.326105 0.067084 -0.553722
O24   O     O_R   0.761330 0.065974 0.024507 -0.627718
H30   H     H_    0.795463 0.130507 0.029149 0.302724
C79   C     C_2   0.228408 0.556228 0.549430 0.803672
O25   O     O_2   0.263127 0.455744 0.574875 -0.573636
O26   O     O_R   0.239205 0.731167 0.528444 -0.643358
H31   H     H_    0.277132 0.758204 0.536745 0.308943
C80   C     C_2   0.772849 0.599769 0.456407 0.791968
O27   O     O_2   0.758478 0.757320 0.441274 -0.559887
O28   O     O_R   0.738446 0.468702 0.469802 -0.624802
H32   H     H_    0.702668 0.520994 0.465567 0.301611
C81   C     C_2   0.651442 0.175374 0.930190 0.798022
O29   O     O_2   0.693973 0.167159 0.918584 -0.516424
O30   O     O_R   0.612847 0.277323 0.892939 -0.650607
H33   H     H_    0.624849 0.337950 0.858084 0.313294
C82   C     C_2   0.344317 0.948690 0.071857 0.793844
O31   O     O_2   0.368779 0.060236 0.106569 -0.537137
O32   O     O_R   0.301326 0.864698 0.085980 -0.627747
H34   H     H_    0.294206 0.908455 0.125718 0.322760
C83   C     C_2   0.845224 0.546476 0.571877 0.795984
O33   O     O_2   0.802533 0.514073 0.580477 -0.513262
O34   O     O_R   0.881378 0.630559 0.616865 -0.654203
H35   H     H_    0.867629 0.657650 0.654231 0.318965
C84   C     C_2   0.159396 0.578285 0.432769 0.819126
O35   O     O_2   0.133106 0.695429 0.401643 -0.534345
O36   O     O_R   0.205902 0.522663 0.419473 -0.642953
H36   H     H_    0.213672 0.589810 0.383215 0.322115
C85   C     C_2   0.484372 0.782050 0.862028 0.747698
O37   O     O_2   0.460207 0.639941 0.865263 -0.545743
O38   O     O_R   0.486123 0.858659 0.805981 -0.655857
H37   H     H_    0.465702 0.784502 0.771579 0.292020
C86   C     C_2   0.536011 0.722821 0.126046 0.741104
O39   O     O_2   0.569885 0.619197 0.116927 -0.546162
O40   O     O_R   0.530029 0.755212 0.184710 -0.651898
H38   H     H_    0.556031 0.685289 0.215654 0.309962
C87   C     C_2   0.020334 0.180281 0.616939 0.747501
O41   O     O_2   0.047809 0.057224 0.604179 -0.545458
O42   O     O_R   0.016127 0.205660 0.676565 -0.661663
H39   H     H_    0.037725 0.114012 0.704922 0.290773
C88   C     C_2   0.974356 0.312593 0.356394 0.747422
O43   O     O_2   0.943057 0.189321 0.356347 -0.546773
O44   O     O_R   0.980465 0.392214 0.302231 -0.651830
H40   H     H_    0.956751 0.336566 0.266186 0.312526
C89   C     C_2   0.554878 0.386624 0.406688 0.766768
O45   O     O_2   0.541952 0.495470 0.364918 -0.551996
O46   O     O_R   0.545793 0.430323 0.463350 -0.628191
H41   H     H_    0.526795 0.552215 0.463533 0.340058
C90   C     C_2   0.445771 0.613427 0.593903 0.830678
O47   O     O_2   0.449986 0.570327 0.543353 -0.512534
O48   O     O_R   0.465409 0.493505 0.641587 -0.632097
H42   H     H_    0.462860 0.545197 0.682153 0.265515
C91   C     C_2   0.945916 0.885387 0.094626 0.770401
O49   O     O_2   0.958888 0.992395 0.136505 -0.551458
O50   O     O_R   0.954975 0.930776 0.037994 -0.628293
H43   H     H_    0.974046 0.052009 0.037929 0.339511
C92   C     C_2   0.054984 0.114901 0.907303 0.822816
O51   O     O_2   0.051143 0.071193 0.958028 -0.512674
O52   O     O_R   0.035114 0.996207 0.859858 -0.634548
H44   H     H_    0.037404 0.048498 0.819168 0.264486

loop_
_geom_bond_atom_site_label_1
_geom_bond_atom_site_label_2
_ccdc_geom_bond_type
O17   V3    S    
C51   H11   S    
O38   H37   S    
O1    C5    A    
C82   O31   D    
O19   V1    S    
C9    C21   A    
C85   O37   D    
C37   C85   S    
C63   H15   S    
O34   H35   S    
C10   C18   A    
C64   H16   S    
C11   C23   A    
C48   C52   A    
C83   O33   D    
C89   O45   D    
C25   C33   A    
C33   C38   A    
C5    C12   S    
C86   O39   D    
C1    C68   S    
O7    C3    A    
C6    C11   S    
C77   O22   S    
C35   C40   A    
C84   O35   D    
C36   C39   A    
C40   C44   A    
O9    V1    S    
C44   C76   S    
C56   C71   S    
O10   V2    S    
C14   C18   A    
C78   O24   S    
C4    C65   S    
O4    C8    A    
C59   C63   A    
C89   O46   S    
C58   C62   A    
O24   H30   S    
C88   O43   D    
O1    V3    S    
O13   V1    S    
C31   C43   A    
O2    V4    S    
O3    V1    S    
C22   H1    S    
C28   C36   A    
C79   O26   S    
O3    C7    A    
C1    O15   A    
C15   C31   A    
O26   H31   S    
C2    O16   A    
C91   O50   S    
O2    C6    A    
C74   H22   S    
O28   H32   S    
C54   C58   A    
C10   C22   A    
C41   C73   S    
C15   C83   S    
C11   C19   A    
N2    N6    A    
C16   C20   A    
C19   C80   S    
N1    N5    A    
C75   H25   S    
C13   C29   A    
C34   C37   A    
O11   C7    A    
C77   O21   D    
O15   V3    S    
O52   H44   S    
C48   C68   A    
C18   C77   S    
C53   C57   A    
C85   O38   S    
C80   O28   S    
C2    C67   S    
C43   C75   S    
C46   C50   A    
N2    C69   A    
C45   C49   A    
C83   O34   S    
N1    C70   A    
C79   O25   D    
O5    V1    S    
C88   O44   S    
C56   C60   A    
C60   C92   S    
C39   C43   A    
C64   C68   A    
O7    V3    S    
C38   C42   A    
O48   H42   S    
O8    V4    S    
C54   C69   S    
C13   C81   S    
C47   C67   A    
O36   H36   S    
O18   V4    S    
C84   O36   S    
C15   C19   A    
C48   H8    S    
C16   C32   A    
C32   C44   A    
C38   C86   S    
C92   O51   D    
N8    C72   A    
N3    C72   A    
C26   C34   A    
C82   O32   S    
O44   H40   S    
C35   C36   A    
O5    C1    A    
C62   H14   S    
C46   C66   A    
C45   C65   A    
O32   H34   S    
C14   C30   A    
C21   C25   A    
O8    C4    A    
C7    C10   S    
C61   H13   S    
C3    C66   S    
C20   C79   S    
C16   C84   S    
O9    C5    A    
C26   C30   A    
C50   C54   A    
C73   H17   S    
N6    C70   A    
C86   O40   S    
C76   H28   S    
N5    C69   A    
C40   C88   S    
O6    V2    S    
C91   O49   D    
N7    C71   A    
C74   H20   S    
C12   C20   A    
C81   O30   S    
C59   C91   S    
C24   H3    S    
C51   C55   A    
C57   C61   A    
N4    N8    A    
C29   C41   A    
C74   H21   S    
C75   H23   S    
O16   V4    S    
C3    O13   A    
C21   H2    S    
C52   H12   S    
C14   C82   S    
C39   C87   S    
O6    C2    A    
N4    C71   A    
C23   C27   A    
O22   H29   S    
O11   V3    S    
C30   C42   A    
O42   H39   S    
O12   V4    S    
C63   C67   A    
C17   C78   S    
C22   C26   A    
C8    C9    S    
C62   C66   A    
C42   C74   S    
C9    C17   A    
O10   C6    A    
C92   O52   S    
C58   C90   S    
C61   C65   A    
O46   H41   S    
O40   H38   S    
C50   H10   S    
C80   O27   D    
C47   C51   A    
C33   C34   A    
C76   H26   S    
C25   C29   A    
C60   C64   A    
O20   V2    S    
C87   O42   S    
C12   C24   A    
C27   C31   A    
C49   C53   A    
C13   C17   A    
C90   O47   D    
O4    V2    S    
C23   H4    S    
C73   H18   S    
O14   V2    S    
C55   C59   A    
O50   H43   S    
C37   C41   A    
C24   C28   A    
C27   C35   A    
C53   C70   S    
O12   C8    A    
C87   O41   D    
C46   H6    S    
C4    O14   A    
O30   H33   S    
C73   H19   S    
C76   H27   S    
C45   H5    S    
C55   C72   S    
N3    N7    A    
C52   C56   A    
C90   O48   S    
C81   O29   D    
C78   O23   D    
C47   H7    S    
C49   H9    S    
C28   C32   A    
C75   H24   S    
C57   C89   S    
