data_mof_unit_63771.cif
_audit_creation_date              2012-12-10T16:54:30-0500
_audit_creation_method            fapswitch 2.2
_symmetry_space_group_name_H-M    P1
_symmetry_Int_Tables_number       1
_space_group_crystal_system       triclinic
_cell_length_a                    18.851479
_cell_length_b                    18.641049
_cell_length_c                    19.010026
_cell_angle_alpha                 109.452816
_cell_angle_beta                  110.195111
_cell_angle_gamma                 109.08486
_cell_volume                      5121.79925893

loop_
_atom_site_label
_atom_site_type_symbol
_atom_type_description
_atom_site_fract_x
_atom_site_fract_y
_atom_site_fract_z
_atom_type_partial_charge
C1    C     C_R   0.383422 0.380177 0.501781 0.974257
C2    C     C_2   0.184716 0.504560 0.182075 0.337460
C3    C     C_2   0.257291 0.429283 0.232145 -0.118675
C4    C     C_R   0.617455 0.497520 0.620122 0.948190
C5    C     C_2   0.299354 0.487358 0.316555 -0.260448
C6    C     C_2   0.739794 0.747830 0.422420 -0.152502
C7    C     C_2   0.817420 0.807026 0.494288 -0.331387
C8    C     C_2   0.678421 0.675496 0.422458 -0.160895
C9    C     C_2   0.675598 0.688802 0.494793 -0.319283
C10   C     C_R   0.992355 0.380164 0.873986 0.944013
C11   C     C_R   0.874204 0.497431 0.871514 0.915414
C12   C     C_3   0.806834 0.497311 0.804033 -0.015442
C13   C     C_R   0.996366 0.619935 0.114515 0.936139
C14   C     C_R   0.114968 0.500325 0.114284 0.810359
C15   C     C_R   0.001009 0.121152 0.617912 0.936062
C16   C     C_R   0.616823 0.619860 0.498475 0.980505
C17   C     C_R   0.118869 0.121405 0.502231 0.981287
C18   C     C_R   0.999136 0.879057 0.381999 0.920530
C19   C     C_R   0.881179 0.878892 0.498105 0.925620
C20   C     C_2   0.989437 0.252134 0.671687 -0.152274
C21   C     C_2   0.008599 0.193239 0.685272 -0.318608
C22   C     C_2   0.999299 0.324442 0.743087 -0.139562
C23   C     C_3   0.845276 0.543782 0.760317 0.288241
C24   C     C_2   0.982862 0.311171 0.802024 -0.338066
C25   C     C_2   0.013662 0.749853 0.325517 -0.158335
C26   C     C_2   0.991397 0.807741 0.313708 -0.325810
C27   C     C_2   0.000147 0.677161 0.251278 -0.169729
C28   C     C_R   0.376203 0.496512 0.379891 0.914851
C29   C     C_2   0.007887 0.688868 0.188013 -0.350994
C30   C     C_3   0.662308 0.401630 0.663272 -0.474205
C31   C     C_3   0.732919 0.401495 0.734104 -0.369603
C32   C     C_3   0.772381 0.544984 0.692217 0.265773
C33   C     C_3   0.694117 0.545785 0.777895 0.393774
C34   C     C_3   0.768420 0.547071 0.846814 -0.552736
C35   C     C_3   0.684904 0.497646 0.687529 -0.050310
C36   C     C_3   0.243810 0.648036 0.289459 0.074028
C37   C     C_3   0.280177 0.730109 0.282508 -0.301493
C38   C     C_3   0.267830 0.801596 0.336076 -0.959475
C39   C     C_3   0.962218 0.552521 0.736744 0.097063
C40   C     C_3   0.955739 0.594004 0.679028 -0.373228
C41   C     C_3   0.044369 0.644500 0.689747 -0.951814
C42   C     C_3   0.588194 0.557565 0.812734 0.110172
C43   C     C_3   0.638628 0.601175 0.911846 -0.389407
C44   C     C_3   0.602647 0.654181 0.952593 -0.935592
C45   C     C_2   0.259760 0.254586 0.578970 0.673975
C46   C     C_2   0.182911 0.193487 0.506419 -0.484629
C47   C     C_2   0.320883 0.326253 0.578014 -0.232763
C48   C     C_2   0.325268 0.311480 0.506231 -0.427254
C49   C     C_2   0.183776 0.429223 0.171466 -0.261392
F1    F     F_    0.794433 0.631026 0.713192 -0.716249
F2    F     F_    0.280014 0.254545 0.654934 -0.645608
H1    H     H_    0.658389 0.367027 0.600536 0.191799
H2    H     H_    0.274516 0.528551 0.341414 0.164996
H3    H     H_    0.722905 0.750236 0.362843 0.169271
H4    H     H_    0.838055 0.798737 0.550565 0.166295
H5    H     H_    0.633920 0.612591 0.362719 0.169169
H6    H     H_    0.712802 0.754156 0.551431 0.161917
H7    H     H_    0.970165 0.249424 0.609588 0.167070
H8    H     H_    0.037397 0.201809 0.749900 0.158976
H9    H     H_    0.017236 0.387282 0.745663 0.160881
H10   H     H_    0.955239 0.245846 0.793850 0.154805
H11   H     H_    0.037333 0.753160 0.387969 0.167010
H12   H     H_    0.820411 0.616285 0.896666 0.130543
H13   H     H_    0.702768 0.368426 0.763622 0.207276
H14   H     H_    0.958578 0.798367 0.249157 0.158745
H15   H     H_    0.986710 0.615287 0.249963 0.163991
H16   H     H_    0.032183 0.753547 0.194419 0.157186
H17   H     H_    0.759428 0.362761 0.704952 0.200547
H18   H     H_    0.765282 0.511432 0.627519 0.148684
H19   H     H_    0.713425 0.615504 0.795568 0.123409
H20   H     H_    0.743905 0.516759 0.881118 0.227245
H21   H     H_    0.278271 0.666704 0.358757 0.152511
H22   H     H_    0.173539 0.624081 0.269078 0.097437
H23   H     H_    0.895860 0.613411 0.811589 0.123661
H24   H     H_    0.350914 0.755892 0.305955 0.228189
H25   H     H_    0.246496 0.713063 0.213705 0.241392
H26   H     H_    0.197461 0.777735 0.313003 0.277214
H27   H     H_    0.294565 0.860003 0.329405 0.266643
H28   H     H_    0.302739 0.821384 0.405651 0.265772
H29   H     H_    0.992046 0.511266 0.722043 0.163685
H30   H     H_    0.007040 0.603734 0.806526 0.141795
H31   H     H_    0.909104 0.541679 0.610036 0.233128
H32   H     H_    0.931416 0.640131 0.696432 0.257969
H33   H     H_    0.091807 0.697776 0.758191 0.264665
H34   H     H_    0.162962 0.200175 0.449124 0.122419
H35   H     H_    0.037685 0.674285 0.647751 0.271791
H36   H     H_    0.069528 0.599608 0.670554 0.262912
H37   H     H_    0.517831 0.517228 0.788701 0.174363
H38   H     H_    0.593275 0.607642 0.792296 0.132582
H39   H     H_    0.633729 0.549852 0.930316 0.243034
H40   H     H_    0.708540 0.645985 0.937955 0.210291
H41   H     H_    0.607782 0.706538 0.935675 0.260383
H42   H     H_    0.640790 0.685370 0.024237 0.268340
H43   H     H_    0.533254 0.610698 0.929496 0.269269
H44   H     H_    0.363883 0.390125 0.636798 0.181451
H45   H     H_    0.289567 0.245509 0.450813 0.157093
H46   H     H_    0.130255 0.366702 0.114722 0.125021
H47   H     H_    0.276007 0.381514 0.207419 0.163477
H48   H     H_    0.597566 0.364357 0.655092 0.225477
O1    O     O_R   0.410160 0.358490 0.449530 -0.628671
O2    O     O_R   0.947260 0.090430 0.537750 -0.621558
O3    O     O_R   0.142120 0.090460 0.551650 -0.554273
O4    O     O_R   0.408940 0.460590 0.550490 -0.628010
O5    O     O_R   0.038780 0.090460 0.448320 -0.638507
O6    O     O_R   0.052740 0.909570 0.462250 -0.620145
O7    O     O_R   0.949410 0.909570 0.358910 -0.629665
O8    O     O_R   0.961220 0.909540 0.551680 -0.627535
O9    O     O_R   0.857880 0.909540 0.448350 -0.616479
O10   O     O_R   0.592130 0.448950 0.541040 -0.647981
O11   O     O_R   0.590910 0.551050 0.642000 -0.619604
O12   O     O_R   0.046300 0.460610 0.904690 -0.616912
O13   O     O_R   0.591060 0.539410 0.449510 -0.617084
O14   O     O_R   0.589840 0.641510 0.550470 -0.613781
O15   O     O_R   0.409090 0.448950 0.358000 -0.624623
O16   O     O_R   0.407870 0.551050 0.458960 -0.630852
O17   O     O_R   0.944170 0.358540 0.904780 -0.624431
O18   O     O_3   0.260959 0.585162 0.242862 -0.627270
O19   O     O_3   0.878609 0.496625 0.718886 -0.670198
O20   O     O_3   0.614590 0.500184 0.774198 -0.638247
O21   O     O_R   0.851630 0.449030 0.902680 -0.630729
O22   O     O_R   0.953760 0.551100 0.902590 -0.640975
O23   O     O_R   0.942140 0.539520 0.083620 -0.611560
O24   O     O_R   0.044270 0.641590 0.083530 -0.629216
O25   O     O_R   0.034680 0.449030 0.085720 -0.646849
O26   O     O_R   0.136800 0.551100 0.085630 -0.602978
O27   O     O_R   0.050590 0.090430 0.641090 -0.610642
Zn1   Zn    Zn3+2 0.500810 0.431830 0.432590 0.953242
Zn2   Zn    Zn3+2 0.499190 0.568170 0.567410 0.953806
Zn3   Zn    Zn3+2 0.926030 0.431910 0.994210 0.948258
Zn4   Zn    Zn3+2 0.062410 0.568220 0.994100 0.936721
Zn5   Zn    Zn3+2 0.069000 0.000000 0.569000 1.002568
Zn6   Zn    Zn3+2 0.931000 1.000000 0.431000 0.952455

loop_
_geom_bond_atom_site_label_1
_geom_bond_atom_site_label_2
_ccdc_geom_bond_type
C4    O10   A    
C24   H10   S    
C13   O23   A    
C27   C29   D    
O1    Zn1   S    
C18   C26   S    
C7    H4    S    
O22   Zn4   S    
C43   C44   S    
C16   O14   A    
C8    H5    S    
C23   O19   S    
C3    C49   S    
O6    Zn5   S    
O14   Zn2   S    
C45   C46   D    
O7    Zn6   S    
C41   H35   S    
C12   C23   S    
C14   O26   A    
C30   C35   S    
C13   C29   S    
C36   C37   S    
C2    C49   D    
C9    C16   S    
C21   H8    S    
C22   H9    S    
C30   C31   S    
C13   O24   A    
C42   O20   S    
C38   H28   S    
C45   F2    S    
O13   Zn1   S    
C30   H1    S    
C44   H42   S    
C29   H16   S    
O26   Zn4   S    
O10   Zn1   S    
O17   Zn3   S    
C8    C9    D    
C15   O27   A    
C1    O4    A    
O23   Zn3   S    
C44   H41   S    
C46   H34   S    
C19   O9    A    
C37   H24   S    
C4    C35   S    
C40   H32   S    
C11   O22   A    
C6    H3    S    
C11   O21   A    
C1    O1    A    
C2    O18   S    
C45   C47   S    
C31   H17   S    
C41   H36   S    
C43   H39   S    
C14   O25   A    
O21   Zn3   S    
C32   C35   S    
C40   H31   S    
O3    Zn5   S    
C39   H30   S    
O8    Zn5   S    
C39   C40   S    
C6    C8    S    
C38   H27   S    
C10   C24   S    
C25   C26   D    
C41   H33   S    
C30   H48   S    
C43   H40   S    
O16   Zn2   S    
C17   O3    A    
C18   O7    A    
C37   C38   S    
C36   O18   S    
C28   O16   A    
C5    C28   S    
O12   Zn4   S    
C47   C48   D    
C11   C12   S    
C33   C34   S    
C10   O12   A    
C15   O2    A    
O4    Zn2   S    
C32   F1    S    
C6    C7    D    
C28   O15   A    
C33   H19   S    
C40   C41   S    
C37   H25   S    
C20   C22   S    
C33   O20   S    
C7    C19   S    
C12   C31   S    
C22   C24   D    
C42   H37   S    
C42   C43   S    
C23   H23   S    
C12   C34   S    
C10   O17   A    
C16   O13   A    
C5    H2    S    
C4    O11   A    
C48   H45   S    
C26   H14   S    
C31   H13   S    
C17   O5    A    
C3    C5    D    
C17   C46   S    
C1    C48   S    
C32   H18   S    
C38   H26   S    
C25   C27   S    
C39   O19   S    
C42   H38   S    
C23   C32   S    
C18   O6    A    
O24   Zn4   S    
C27   H15   S    
C39   H29   S    
O15   Zn1   S    
C3    H47   S    
O27   Zn5   S    
C34   H12   S    
C33   C35   S    
O25   Zn3   S    
C9    H6    S    
C25   H11   S    
C2    C14   S    
O9    Zn6   S    
C44   H43   S    
C36   H22   S    
C49   H46   S    
O2    Zn6   S    
C15   C21   S    
C20   C21   D    
O5    Zn6   S    
C47   H44   S    
C20   H7    S    
C34   H20   S    
C36   H21   S    
O11   Zn2   S    
C19   O8    A    
