data_mof_unit_14281.cif
_audit_creation_date              2012-12-10T17:32:59-0500
_audit_creation_method            fapswitch 2.2
_symmetry_space_group_name_H-M    P1
_symmetry_Int_Tables_number       1
_space_group_crystal_system       triclinic
_cell_length_a                    12.462011
_cell_length_b                    13.378526
_cell_length_c                    14.426747
_cell_angle_alpha                 95.502458
_cell_angle_beta                  108.220183
_cell_angle_gamma                 117.629801
_cell_volume                      1939.44045397

loop_
_atom_site_label
_atom_site_type_symbol
_atom_type_description
_atom_site_fract_x
_atom_site_fract_y
_atom_site_fract_z
_atom_type_partial_charge
C1    C     C_R   0.652811 0.714528 0.511779 0.930571
C2    C     C_R   0.846101 0.495291 0.917844 -0.033454
C3    C     C_R   0.801552 0.515574 0.992312 -0.115889
C4    C     C_R   0.951138 0.472496 0.943965 -0.040320
C5    C     C_R   0.028382 0.497409 0.049002 -0.095958
C6    C     C_R   0.997956 0.544277 0.122705 0.797785
C7    C     C_R   0.878976 0.541046 0.094596 -0.101417
C8    C     C_R   0.980883 0.423757 0.870140 0.377323
C9    C     C_R   0.099864 0.425948 0.899598 -0.083337
C10   C     C_R   0.178909 0.454738 0.002341 -0.084635
C11   C     C_R   0.135639 0.477987 0.076758 -0.025017
C12   C     C_R   0.617237 0.515420 0.686756 0.898529
C13   C     C_R   0.294409 0.449806 0.031165 -0.177233
C14   C     C_R   0.365060 0.464146 0.132886 0.622038
C15   C     C_R   0.194537 0.471361 0.174535 0.615557
C16   C     C_R   0.167248 0.954677 0.407047 0.664736
C17   C     C_R   0.262384 0.161788 0.484564 -0.389260
C18   C     C_R   0.764962 0.920061 0.612273 -0.251480
C19   C     C_R   0.886180 0.023632 0.666813 0.639250
C20   C     C_R   0.992961 0.050363 0.640213 0.323554
C21   C     C_R   0.972012 0.982188 0.547003 -0.045486
C22   C     C_R   0.849753 0.873948 0.494035 -0.169080
C23   C     C_R   0.348312 0.285539 0.489781 0.894063
C24   C     C_R   0.069677 0.014458 0.506459 -0.143014
C25   C     C_R   0.060651 0.927562 0.434766 -0.387133
C26   C     C_R   0.940608 0.820378 0.384849 0.636090
C27   C     C_R   0.832665 0.800169 0.406668 0.549711
C28   C     C_R   0.164647 0.132602 0.523421 0.617248
C29   C     C_R   0.270268 0.071053 0.435221 0.485943
C30   C     C_R   0.750242 0.839729 0.532508 -0.133531
C31   C     C_R   0.272625 0.703359 0.661476 0.203177
C32   C     C_R   0.655981 0.351520 0.351655 0.347942
C33   C     C_R   0.737052 0.349364 0.304692 0.465568
C34   C     C_R   0.380773 0.481948 0.313070 0.900338
C35   C     C_R   0.873145 0.421271 0.354979 0.615945
C36   C     C_R   0.931969 0.485049 0.458060 -0.245195
C37   C     C_R   0.847908 0.503757 0.496345 -0.070595
C38   C     C_R   0.072822 0.542343 0.518987 -0.107831
C39   C     C_R   0.133109 0.639614 0.605466 -0.311402
C40   C     C_R   0.051935 0.669110 0.634402 0.620787
C41   C     C_R   0.914613 0.601775 0.584234 0.654085
C42   C     C_R   0.155181 0.502437 0.501427 0.513065
C43   C     C_R   0.348510 0.665755 0.634316 0.709903
C44   C     C_R   0.677873 0.516403 0.793357 -0.246547
C45   C     C_R   0.313642 0.472438 0.205361 -0.326500
C46   C     C_R   0.687504 0.522242 0.964726 -0.093972
C47   C     C_R   0.621544 0.517119 0.864787 0.231973
C48   C     C_R   0.794670 0.512747 0.823824 0.629652
Cu1   Cu    Cu3+1 0.416420 0.526630 0.522910 1.147468
Cu2   Cu    Cu3+1 0.583580 0.473370 0.477090 1.146707
H1    H     H_    0.853553 0.569177 0.153184 0.242363
H2    H     H_    0.329313 0.433685 0.974843 0.224193
H3    H     H_    0.688779 0.895977 0.641405 0.245817
H4    H     H_    0.124580 0.394579 0.841939 0.207723
H5    H     H_    0.650356 0.532825 0.021321 0.223368
N1    N     N_R   0.290690 0.566960 0.557640 -0.302182
N2    N     N_R   0.709100 0.433710 0.442970 -0.238878
O1    O     O_R   0.545970 0.684450 0.528810 -0.565935
O2    O     O_R   0.687130 0.639470 0.490120 -0.508525
O3    O     O_R   0.519670 0.535100 0.660030 -0.522154
O4    O     O_R   0.660830 0.490120 0.621340 -0.480799
O5    O     O_R   0.312870 0.360530 0.509880 -0.508585
O6    O     O_R   0.454030 0.315550 0.471190 -0.531515
O7    O     O_R   0.339170 0.509880 0.378660 -0.521437
O8    O     O_R   0.480330 0.464900 0.339970 -0.510826
F1    F     F_    0.371352 0.094557 0.406760 -0.552788
F2    F     F_    0.922485 0.740782 0.306716 -0.577421
F3    F     F_    0.168923 0.870120 0.348396 -0.511431
F4    F     F_    0.150986 0.218666 0.565897 -0.594984
Br1   Br    Br    0.166451 0.157329 0.747773 -0.266153
F5    F     F_    0.903929 0.090929 0.753258 -0.583496
F6    F     F_    0.711102 0.709834 0.340140 -0.605383
F7    F     F_    0.481891 0.726918 0.686874 -0.599247
F8    F     F_    0.126183 0.445539 0.234404 -0.533598
F9    F     F_    0.103078 0.762312 0.715259 -0.546486
Br2   Br    Br    0.369770 0.843010 0.775298 -0.170908
Br3   Br    Br    0.074407 0.345127 0.415534 -0.230690
Br4   Br    Br    0.469252 0.246634 0.274843 -0.170010
F10   F     F_    0.945528 0.439273 0.298571 -0.526189
F11   F     F_    0.683633 0.282305 0.207235 -0.544607
F12   F     F_    0.855192 0.644038 0.623923 -0.587292
F13   F     F_    0.479586 0.464190 0.158729 -0.578461
Br5   Br    Br    0.460227 0.517519 0.835585 -0.376573
F14   F     F_    0.869618 0.544056 0.769027 -0.597263
F15   F     F_    0.087251 0.603406 0.220515 -0.524170
Br6   Br    Br    0.853874 0.327098 0.733404 -0.336202

loop_
_geom_bond_atom_site_label_1
_geom_bond_atom_site_label_2
_ccdc_geom_bond_type
C43   F7    S    
C17   C29   A    
C19   F5    S    
C28   F4    S    
C4    C8    A    
C26   C27   A    
C17   C23   S    
C6    F15   S    
C31   C43   A    
C26   F2    S    
C36   C37   A    
C38   C42   A    
C3    C7    A    
C1    O2    A    
C38   C39   A    
C18   C19   A    
C18   H3    S    
C42   N1    A    
C11   C15   A    
C23   O5    A    
C19   C20   A    
C8    C9    A    
C46   H5    S    
C18   C30   A    
C47   Br5   S    
C9    C10   A    
C44   C47   A    
C23   O6    A    
Cu1   O7    S    
C13   C14   A    
Cu2   O6    S    
Cu2   N2    S    
C20   Br1   S    
C32   N2    A    
C34   O8    A    
C14   C45   A    
C24   C25   A    
C39   C40   A    
C2    C48   A    
C25   C26   A    
Cu1   O1    S    
C48   F14   S    
C35   C36   A    
C2    C4    A    
C13   H2    S    
C41   F12   S    
C34   O7    A    
C34   C45   S    
Cu1   O3    S    
C16   F3    S    
C40   C41   A    
C22   C27   A    
Cu2   O2    S    
C16   C25   A    
C46   C47   A    
Cu1   O5    S    
C22   C30   A    
C17   C28   A    
C24   C28   A    
C4    C5    A    
C10   C13   A    
C33   F11   S    
C5    C11   A    
C6    C7    A    
Cu1   N1    S    
C3    C46   A    
C40   F9    S    
C32   C33   A    
C36   C38   A    
C2    C3    A    
C16   C29   A    
C7    H1    S    
C12   C44   S    
C1    O1    A    
C12   O4    A    
C31   Br2   S    
C5    C6    A    
C35   F10   S    
C1    C30   S    
C33   C35   A    
C31   C39   A    
C8    Br6   S    
C37   C41   A    
Cu2   O8    S    
C10   C11   A    
C32   Br4   S    
C29   F1    S    
C12   O3    A    
C43   N1    A    
C15   F8    S    
C20   C21   A    
C42   Br3   S    
Cu1   Cu2   S    
C21   C24   A    
Cu2   O4    S    
C14   F13   S    
C9    H4    S    
C21   C22   A    
C37   N2    A    
C27   F6    S    
C44   C48   A    
C15   C45   A    
