data_mof_unit_34149.cif
_audit_creation_date              2012-12-10T21:37:20-0500
_audit_creation_method            fapswitch 2.2
_symmetry_space_group_name_H-M    P1
_symmetry_Int_Tables_number       1
_space_group_crystal_system       triclinic
_cell_length_a                    16.130871
_cell_length_b                    15.735216
_cell_length_c                    16.793104
_cell_angle_alpha                 90.742474
_cell_angle_beta                  88.073477
_cell_angle_gamma                 92.557271
_cell_volume                      4255.53958113

loop_
_atom_site_label
_atom_site_type_symbol
_atom_type_description
_atom_site_fract_x
_atom_site_fract_y
_atom_site_fract_z
_atom_type_partial_charge
C1    C     C_R   0.510848 0.502551 0.347048 0.941912
C2    C     C_R   0.489150 0.497560 0.652961 0.936919
C3    C     C_R   0.448038 0.538061 0.221294 -0.346219
C4    C     C_R   0.552074 0.463272 0.778982 -0.339554
C5    C     C_R   0.451103 0.544079 0.138561 0.473759
C6    C     C_R   0.549010 0.457840 0.861755 0.469914
C7    C     C_R   0.525995 0.527378 0.096796 0.115716
C8    C     C_R   0.474076 0.474665 0.903400 0.116249
C9    C     C_R   0.597479 0.509444 0.137396 0.485951
C10   C     C_R   0.402546 0.492132 0.862670 0.485625
C11   C     C_R   0.592237 0.499719 0.219742 -0.325220
C12   C     C_R   0.407742 0.501162 0.780240 -0.327818
C13   C     C_R   0.247943 0.541870 0.545795 -0.172025
C14   C     C_R   0.751646 0.452568 0.459200 -0.171370
C15   C     C_R   0.161267 0.545498 0.556280 0.387515
C16   C     C_R   0.838294 0.447976 0.448837 0.387912
C17   C     C_R   0.109082 0.490968 0.511719 0.171796
C18   C     C_R   0.890962 0.506475 0.488618 0.173662
C19   C     C_R   0.145759 0.434303 0.455405 0.033149
C20   C     C_R   0.854767 0.568245 0.539872 0.031993
C21   C     C_R   0.234268 0.437825 0.442937 0.265270
C22   C     C_R   0.766406 0.567314 0.551308 0.269695
C23   C     C_R   0.500021 0.337839 0.499899 0.900489
C24   C     C_R   0.499987 0.662161 0.500103 0.896606
C25   C     C_3   0.521236 0.972258 0.426736 0.427981
C26   C     C_3   0.479092 0.027752 0.573324 0.427770
C27   C     C_3   0.443981 0.023858 0.446862 -0.050704
C28   C     C_3   0.556345 0.976146 0.553197 -0.050444
C29   C     C_1   0.500016 0.249082 0.499849 -0.184115
C30   C     C_1   0.500053 0.750919 0.500174 -0.177837
C31   C     C_3   0.576239 0.031060 0.478921 0.430658
C32   C     C_3   0.424088 0.968958 0.521139 0.430231
C33   C     C_3   0.499325 0.083058 0.499374 -0.139149
C34   C     C_3   0.500992 0.916953 0.500684 -0.139591
C35   C     C_1   0.499780 0.173898 0.499729 0.122533
C36   C     C_1   0.500414 0.826108 0.500315 0.122150
C37   C     C_R   0.517199 0.512534 0.261373 -0.172468
C38   C     C_R   0.482804 0.488173 0.738702 -0.171162
H1    H     H_    0.608276 0.447548 0.746058 0.191297
H2    H     H_    0.391925 0.553821 0.254337 0.185967
H3    H     H_    0.646282 0.480853 0.250608 0.193534
H4    H     H_    0.353653 0.519655 0.749227 0.192691
H5    H     H_    0.711324 0.410856 0.424654 0.180412
H6    H     H_    0.288020 0.580228 0.583580 0.178209
N1    N     N_2   0.529405 0.523368 0.013336 -0.097060
N2    N     N_2   0.470579 0.478887 0.986854 -0.096911
N3    N     N_R   0.283080 0.489710 0.490280 -0.126382
N4    N     N_R   0.716920 0.510290 0.509720 -0.128548
N5    N     N_2   0.021243 0.490830 0.529284 -0.126387
N6    N     N_2   0.978617 0.506031 0.470571 -0.127910
O1    O     O_R   0.577460 0.503680 0.387340 -0.622214
O2    O     O_R   0.422540 0.496320 0.612660 -0.624282
O3    O     O_R   0.438150 0.497080 0.381100 -0.623024
O4    O     O_R   0.561850 0.502920 0.618900 -0.630697
O5    O     O_R   0.569640 0.380080 0.503110 -0.615025
O6    O     O_R   0.430360 0.619920 0.496890 -0.612880
O7    O     O_R   0.430330 0.373470 0.496870 -0.614994
O8    O     O_R   0.569670 0.626530 0.503130 -0.616192
Zn1   Zn    Zn3+2 0.593020 0.504410 0.504170 0.944535
Zn2   Zn    Zn3+2 0.406980 0.495590 0.495830 0.944805
C39   C     C_3   0.382584 0.056624 0.388837 -0.865336
H7    H     H_    0.350446 0.002187 0.358385 0.260386
H8    H     H_    0.336374 0.095337 0.421363 0.232634
H9    H     H_    0.415787 0.097989 0.344101 0.232198
C40   C     C_3   0.617742 0.943327 0.611197 -0.865229
H10   H     H_    0.649919 0.997738 0.641652 0.260093
H11   H     H_    0.584531 0.901969 0.655933 0.232407
H12   H     H_    0.663920 0.904590 0.578650 0.231992
C41   C     C_3   0.092631 0.366938 0.413721 -0.828142
H13   H     H_    0.119076 0.303600 0.420599 0.222402
H14   H     H_    0.028749 0.360489 0.439526 0.279175
H15   H     H_    0.089507 0.382004 0.349525 0.250215
C42   C     C_3   0.908196 0.637281 0.579027 -0.824933
H16   H     H_    0.884999 0.700743 0.565822 0.223215
H17   H     H_    0.906716 0.628135 0.644487 0.248386
H18   H     H_    0.973590 0.638706 0.556982 0.274894
C43   C     C_3   0.275893 0.385031 0.378859 -0.820231
H19   H     H_    0.232100 0.346424 0.342470 0.210685
H20   H     H_    0.310889 0.427507 0.336476 0.239971
H21   H     H_    0.318060 0.340678 0.405615 0.252934
C44   C     C_3   0.727558 0.631009 0.607091 -0.830944
H22   H     H_    0.738846 0.696265 0.583636 0.221075
H23   H     H_    0.660140 0.619531 0.615005 0.277058
H24   H     H_    0.754236 0.627105 0.666942 0.212175
O9    O     O_3   0.545328 0.933583 0.353756 -0.596093
C45   C     C_3   0.554784 0.994937 0.293398 -0.263338
H25   H     H_    0.581300 0.057480 0.314432 0.180075
H26   H     H_    0.494384 0.003113 0.265416 0.176043
H27   H     H_    0.598120 0.971058 0.246452 0.182229
O10   O     O_3   0.455005 0.066422 0.646308 -0.595954
C46   C     C_3   0.445575 0.005066 0.706666 -0.264145
H28   H     H_    0.505987 0.996891 0.734625 0.176117
H29   H     H_    0.419053 0.942523 0.685637 0.179634
H30   H     H_    0.402256 0.028942 0.753629 0.182200
O11   O     O_3   0.348429 0.926766 0.545081 -0.600255
C47   C     C_3   0.285419 0.985524 0.555005 -0.285307
H31   H     H_    0.255565 0.994809 0.497406 0.174822
H32   H     H_    0.307448 0.047888 0.580431 0.186110
H33   H     H_    0.237029 0.958341 0.596983 0.177160
O12   O     O_3   0.651881 0.073292 0.454988 -0.600743
C48   C     C_3   0.714932 0.014576 0.445105 -0.287965
H34   H     H_    0.692959 0.952228 0.419605 0.186509
H35   H     H_    0.744713 0.005259 0.502736 0.174462
H36   H     H_    0.763367 0.041821 0.403208 0.177493
O13   O     O_3   0.615684 0.429943 0.902928 -0.564979
C49   C     C_3   0.686637 0.484095 0.888460 -0.216989
H37   H     H_    0.733107 0.470937 0.933365 0.211817
H38   H     H_    0.672380 0.552562 0.894688 0.144204
H39   H     H_    0.715830 0.470938 0.829015 0.137423
O14   O     O_3   0.384450 0.572288 0.097553 -0.565223
C50   C     C_3   0.313375 0.518284 0.111959 -0.218509
H40   H     H_    0.327473 0.449776 0.105717 0.144513
H41   H     H_    0.266972 0.531570 0.067026 0.212072
H42   H     H_    0.284189 0.531478 0.171400 0.136752
O15   O     O_3   0.669773 0.491579 0.095263 -0.569365
C51   C     C_3   0.725613 0.562715 0.100968 -0.316188
H43   H     H_    0.743904 0.574759 0.163567 0.170145
H44   H     H_    0.699148 0.620488 0.076021 0.156249
H45   H     H_    0.782834 0.549523 0.065312 0.186028
O16   O     O_3   0.330237 0.510180 0.904707 -0.570001
C52   C     C_3   0.274294 0.439114 0.899116 -0.314364
H46   H     H_    0.300725 0.381300 0.924020 0.155946
H47   H     H_    0.255862 0.427089 0.836558 0.170935
H48   H     H_    0.217163 0.452397 0.934875 0.186090
O17   O     O_3   0.872356 0.391587 0.394253 -0.593456
C53   C     C_3   0.853292 0.307351 0.418913 -0.313856
H49   H     H_    0.868544 0.297949 0.482348 0.158785
H50   H     H_    0.891619 0.263941 0.382177 0.193670
H51   H     H_    0.787154 0.288661 0.409087 0.180688
O18   O     O_3   0.126460 0.596547 0.615143 -0.591746
C54   C     C_3   0.147373 0.682859 0.599193 -0.312277
H52   H     H_    0.107272 0.722766 0.637798 0.194197
H53   H     H_    0.136026 0.699297 0.536238 0.157874
H54   H     H_    0.212773 0.699423 0.613988 0.176707

loop_
_geom_bond_atom_site_label_1
_geom_bond_atom_site_label_2
_ccdc_geom_bond_type
C25   C31   S    
C22   N4    A    
C26   C32   S    
C53   H49   S    
O5    Zn1   S    
C41   H15   S    
C42   H16   S    
O11   C47   S    
C24   O6    A    
C54   H54   S    
C44   H22   S    
C43   H19   S    
C27   C33   S    
C48   H34   S    
C23   C29   S    
C19   C21   A    
O9    C45   S    
C45   H26   S    
C49   H37   S    
O15   C51   S    
C47   H33   S    
C51   H43   S    
C41   H14   S    
C11   C37   A    
C1    O3    A    
O14   C50   S    
C52   H48   S    
C12   H4    S    
O2    Zn2   S    
C17   C19   A    
N3    Zn2   S    
C50   H40   S    
C40   H11   S    
C47   H32   S    
C31   C33   S    
C27   C39   S    
C16   O17   S    
C18   C20   A    
C1    C37   S    
C25   C34   S    
C28   C34   S    
C24   O8    A    
C48   H35   S    
C42   H17   S    
C39   H7    S    
C10   C12   A    
C44   H23   S    
O3    Zn2   S    
C24   C30   S    
O4    Zn1   S    
C43   H20   S    
C9    O15   S    
C22   C44   S    
C4    C6    A    
C2    O4    A    
C17   N5    S    
C46   H28   S    
C5    C7    A    
C45   H25   S    
O7    Zn2   S    
C6    C8    A    
C53   H51   S    
C3    C5    A    
O8    Zn1   S    
N1    N2    D    
O6    Zn2   S    
C32   C34   S    
C39   H9    S    
C28   C31   S    
C46   H29   S    
C1    O1    A    
C2    C38   S    
C26   C33   S    
O18   C54   S    
C4    H1    S    
C40   H12   S    
C47   H31   S    
C25   O9    S    
C50   H41   S    
C31   O12   S    
C9    C11   A    
C52   H46   S    
C2    O2    A    
C8    C10   A    
C4    C38   A    
C3    H2    S    
C40   H10   S    
C48   H36   S    
C13   C15   A    
O17   C53   S    
C42   H18   S    
C14   C16   A    
C19   C41   S    
C26   O10   S    
C54   H52   S    
C7    N1    S    
C44   H24   S    
O16   C52   S    
C18   N6    S    
N4    Zn1   S    
C13   N3    A    
C43   H21   S    
C23   O7    A    
C53   H50   S    
C27   C32   S    
C39   H8    S    
C20   C22   A    
C54   H53   S    
C45   H27   S    
C14   N4    A    
C23   O5    A    
C25   C27   S    
O13   C49   S    
C29   C35   T    
C26   C28   S    
C51   H45   S    
C30   C36   T    
C28   C40   S    
C46   H30   S    
O10   C46   S    
C15   O18   S    
C49   H38   S    
O12   C48   S    
C33   C35   S    
C6    O13   S    
C51   H44   S    
C20   C42   S    
C11   H3    S    
C50   H42   S    
C34   C36   S    
C12   C38   A    
C41   H13   S    
C8    N2    S    
C52   H47   S    
C10   O16   S    
C7    C9    A    
C32   O11   S    
O1    Zn1   S    
C3    C37   A    
C16   C18   A    
N5    N6    D    
C5    O14   S    
C21   C43   S    
C15   C17   A    
C13   H6    S    
C14   H5    S    
C21   N3    A    
C49   H39   S    
