data_mof_unit_22744.cif
_audit_creation_date              2013-03-05T15:56:40-0500
_audit_creation_method            fapswitch 2.2
_symmetry_space_group_name_H-M    P1
_symmetry_Int_Tables_number       1
_space_group_crystal_system       triclinic
_cell_length_a                    8.365289
_cell_length_b                    16.842234
_cell_length_c                    18.99097
_cell_angle_alpha                 101.986834
_cell_angle_beta                  91.47479
_cell_angle_gamma                 95.347793
_cell_volume                      2603.11229941

loop_
_atom_site_label
_atom_site_type_symbol
_atom_site_description
_atom_site_fract_x
_atom_site_fract_y
_atom_site_fract_z
_atom_type_partial_charge
P1    P     P_3+3 0.056550 0.421630 0.336220 0.464674
O1    O     O_2   0.884010 0.444810 0.325060 -0.367816
O2    O     O_3   0.132090 0.451130 0.414310 -0.412246
O3    O     O_3   0.640770 0.594650 0.368950 -0.375572
O4    O     O_2   0.755358 0.525863 0.245418 -0.399036
O5    O     O_3   0.025472 0.314906 0.315251 -0.550180
O6    O     O_3   0.683981 0.674317 0.254855 -0.499699
H1    H     H_    0.516092 0.722401 0.327799 0.057149
C1    C     C_3   0.630715 0.813795 0.277873 -0.851800
H2    H     H_    0.729786 0.831414 0.319927 0.278548
H3    H     H_    0.677534 0.820571 0.225016 0.263348
P2    P     P_3+3 0.635450 0.689180 0.556380 0.600896
P3    P     P_3+3 0.086143 0.742111 0.407305 0.536786
O7    O     O_2   0.808690 0.699720 0.534830 -0.241245
O8    O     O_3   0.053760 0.638480 0.405010 -0.369094
O9    O     O_2   0.957403 0.784647 0.454238 -0.333173
O10   O     O_3   0.671384 0.746058 0.644568 -0.530921
O11   O     O_3   0.046001 0.757322 0.320447 -0.516014
C2    C     C_3   0.096116 0.691299 0.270585 0.495538
H4    H     H_    0.013345 0.635415 0.269197 0.150496
H5    H     H_    0.220383 0.679322 0.284183 -0.048724
C3    C     C_3   0.092710 0.710491 0.195831 -0.930784
H6    H     H_    0.131661 0.658605 0.156060 0.216521
H7    H     H_    0.968923 0.720971 0.180025 0.284082
C4    C     C_3   0.124815 0.745724 0.688135 1.124297
C5    C     C_3   0.031552 0.768108 0.757585 -0.883504
H8    H     H_    0.107749 0.804633 0.803640 0.306150
H9    H     H_    0.939055 0.807850 0.747885 0.233086
H10   H     H_    0.972523 0.713135 0.773485 0.199759
Ba1   Ba    Ba6+2 0.845660 0.536000 0.465120 1.627482
C6    C     C_3   0.991956 0.285293 0.377460 0.249527
H11   H     H_    0.882345 0.309814 0.400788 0.054142
H12   H     H_    0.093474 0.302788 0.418196 0.127447
C7    C     C_3   0.963787 0.192234 0.357226 -0.112347
H13   H     H_    0.867480 0.172967 0.313972 0.147050
H14   H     H_    0.922974 0.168638 0.404612 0.079912
C8    C     C_3   0.608838 0.709545 0.697998 0.501040
H15   H     H_    0.681923 0.661146 0.707592 0.089186
H16   H     H_    0.487620 0.681403 0.682426 0.168668
C9    C     C_3   0.613917 0.777217 0.766363 -0.686010
H17   H     H_    0.682493 0.834507 0.759252 0.240969
H18   H     H_    0.671171 0.758859 0.813028 0.228359
H19   H     H_    0.492486 0.793699 0.779187 0.304001
P4    P     P_3+3 0.133150 0.578440 0.663790 0.584053
O12   O     O_2   0.305690 0.555220 0.674980 -0.322049
O13   O     O_3   0.057610 0.548940 0.585700 -0.325610
O14   O     O_3   0.548930 0.405410 0.631060 -0.390149
O15   O     O_3   0.222003 0.682312 0.686890 -0.583358
P5    P     P_3+3 0.111030 0.255313 0.590985 0.487306
O16   O     O_3   0.631040 0.400420 0.463490 -0.404889
O17   O     O_3   0.135930 0.361590 0.595000 -0.359010
O18   O     O_2   0.229461 0.217302 0.535908 -0.363870
O19   O     O_3   0.184220 0.230869 0.671333 -0.563486
Ba2   Ba    Ba6+2 0.344160 0.464070 0.534880 1.672655
P6    P     P_3+3 0.623425 0.579876 0.275431 0.437398
C10   C     C_3   0.562700 0.726046 0.274072 0.369423
H20   H     H_    0.462989 0.710165 0.232276 0.065460
H21   H     H_    0.534889 0.855038 0.291846 0.211246
O20   O     O_3   0.558660 0.599640 0.536520 -0.403427
C11   C     C_3   0.491763 0.326431 0.317352 0.460686
H22   H     H_    0.368139 0.338363 0.333562 0.093388
H23   H     H_    0.574295 0.383394 0.333527 0.105702
C12   C     C_3   0.490587 0.301129 0.235639 -0.925253
H24   H     H_    0.409503 0.244289 0.216443 0.303051
H25   H     H_    0.447875 0.350027 0.210963 0.207119
H26   H     H_    0.613958 0.290545 0.218204 0.248815
P7    P     P_3+3 0.559042 0.295946 0.441757 0.462791
O21   O     O_2   0.381010 0.300300 0.465220 -0.340398
O22   O     O_3   0.544015 0.263406 0.347750 -0.543834
H27   H     H_    0.175423 0.765929 0.195428 0.260854
C13   C     C_3   0.059187 0.217805 0.717753 0.756068
H28   H     H_    0.941123 0.196645 0.688986 -0.053092
C14   C     C_3   0.099826 0.155927 0.762365 0.005719
H29   H     H_    0.224808 0.170493 0.785704 0.138336
H30   H     H_    0.017582 0.157646 0.807601 0.130038
P8    P     P_3+3 0.566304 0.419918 0.724447 0.513845
C15   C     C_3   0.599114 0.266442 0.690521 0.457739
H31   H     H_    0.726453 0.286137 0.682038 0.076335
O23   O     O_2   0.414958 0.459321 0.751732 -0.372655
O24   O     O_3   0.536392 0.323107 0.745270 -0.476629
H32   H     H_    0.526002 0.258584 0.639361 0.127445
H33   H     H_    0.662966 0.188619 0.762659 0.277267
C16   C     C_3   0.591769 0.183905 0.711587 -0.850694
H34   H     H_    0.641151 0.138903 0.668536 0.229464
H35   H     H_    0.465420 0.161924 0.718765 0.281183
C17   C     C_R   0.987295 0.454627 0.048860 0.031891
C18   C     C_R   0.896121 0.417357 0.097112 -0.176837
C19   C     C_R   0.762439 0.440397 0.955229 -0.162420
C20   C     C_R   0.924351 0.462893 0.979294 0.086333
C21   C     C_R   0.707728 0.446323 0.886329 -0.113321
C22   C     C_R   0.808732 0.479138 0.838926 0.058441
C23   C     C_R   0.970147 0.506830 0.862151 0.066453
C24   C     C_R   0.028136 0.494445 0.931343 0.073246
C25   C     C_R   0.755004 0.480563 0.767794 0.215255
C26   C     C_R   0.856639 0.517114 0.723279 -0.373569
C27   C     C_R   0.017985 0.547112 0.742971 0.203373
C28   C     C_R   0.076994 0.542988 0.815830 -0.230253
C29   C     C_R   0.149435 0.484137 0.071092 0.039036
C30   C     C_R   0.208842 0.487173 0.143338 0.004182
C31   C     C_R   0.110285 0.454761 0.192482 -0.050951
C32   C     C_R   0.958588 0.414850 0.165969 -0.032524
H36   H     H_    0.811889 0.516197 0.669092 0.166212
H37   H     H_    0.583949 0.424400 0.870671 0.175157
H38   H     H_    0.883640 0.382845 0.198613 0.164209
C33   C     C_R   0.239636 0.560412 0.843345 0.600571
C34   C     C_R   0.294670 0.524147 0.897127 -0.150470
C35   C     C_R   0.193242 0.508930 0.950157 -0.018654
C36   C     C_R   0.253031 0.510953 0.021376 0.089012
C37   C     C_R   0.411694 0.543726 0.045597 -0.180447
C38   C     C_R   0.367558 0.522624 0.166199 -0.012470
C39   C     C_R   0.467065 0.549349 0.116073 -0.184902
C40   C     C_R   0.421619 0.531530 0.238854 0.147241
C41   C     C_R   0.320201 0.503502 0.287402 -0.523387
C42   C     C_R   0.168079 0.463544 0.265861 0.242966
H39   H     H_    0.589101 0.575898 0.130675 0.178835
H40   H     H_    0.362884 0.510369 0.342832 0.174799
H41   H     H_    0.674917 0.416865 0.988378 0.132432
H42   H     H_    0.776063 0.388255 0.082574 0.132252
H43   H     H_    0.422773 0.525987 0.905509 0.116868
H44   H     H_    0.495037 0.569837 0.012263 0.155453
C43   C     C_R   0.386668 0.726909 0.469330 -0.388975
C44   C     C_R   0.538324 0.755475 0.502471 0.305930
C45   C     C_R   0.596053 0.839055 0.506704 -0.169522
C46   C     C_R   0.500212 0.892005 0.477730 0.169638
C47   C     C_R   0.348129 0.860517 0.446906 -0.257494
C48   C     C_R   0.290750 0.779560 0.443468 0.255889
C49   C     C_R   0.616391 0.143070 0.481595 -0.267264
C50   C     C_R   0.663981 0.227964 0.489977 0.235322
C51   C     C_R   0.717695 0.091962 0.509885 0.179018
N1    N     N_2   0.542208 0.977624 0.481377 -0.054344
N2    N     N_2   0.680714 0.005718 0.505423 -0.040048
C52   C     C_R   0.806339 0.261264 0.529481 -0.499699
H45   H     H_    0.505201 0.117314 0.451707 0.195638
H46   H     H_    0.272116 0.900169 0.426498 0.169688
C53   C     C_R   0.909392 0.211141 0.553986 0.192812
C54   C     C_R   0.866361 0.127242 0.542830 -0.254190
H47   H     H_    0.710040 0.862934 0.534929 0.186581
H48   H     H_    0.950397 0.088782 0.558989 0.184367
H49   H     H_    0.338919 0.664579 0.467779 0.166749
H50   H     H_    0.843343 0.325800 0.536084 0.170586
N3    N     N_R   0.111116 0.157181 0.333127 0.283135
O25   O     O_R   0.165682 0.164135 0.270957 -0.350477
O26   O     O_R   0.182736 0.114152 0.371483 -0.370633
S1    S     S_3+6 0.041621 0.310108 0.779528 -0.073737
O27   O     O_2   0.897829 0.301719 0.824146 -0.328433
O28   O     O_2   0.190616 0.334886 0.828138 -0.298121
O29   O     O_3   0.018526 0.378682 0.729703 -0.591132
H51   H     H_    0.129598 0.401250 0.724110 0.395777
S2    S     S_3+6 0.076898 0.054707 0.711373 0.005335
O30   O     O_2   0.084658 0.998920 0.763258 -0.178378
O31   O     O_2   0.916641 0.035755 0.670823 -0.314155
O32   O     O_3   0.227401 0.041758 0.654266 -0.467124
H52   H     H_    0.201364 0.070805 0.615845 0.350470
S3    S     S_3+6 0.366843 0.649133 0.846718 -0.064050
O33   O     O_2   0.287099 0.710896 0.817613 -0.301775
O34   O     O_2   0.419286 0.687054 0.923799 -0.316424
O35   O     O_3   0.529014 0.620650 0.802291 -0.596538
H53   H     H_    0.611865 0.618869 0.839979 0.328493
S4    S     S_3+6 0.244610 0.835857 0.676313 0.014536
O36   O     O_2   0.385724 0.812458 0.632897 -0.352892
O37   O     O_2   0.142878 0.881439 0.635420 -0.190884
O38   O     O_3   0.311997 0.895807 0.755703 -0.509073
H54   H     H_    0.392088 0.937196 0.743167 0.402112
N4    N     N_R   0.018741 0.719297 0.628036 0.215963
O39   O     O_R   0.086889 0.706931 0.566088 -0.346645
O40   O     O_R   0.902565 0.667132 0.638851 -0.475973

loop_
_geom_bond_atom_site_label_1
_geom_bond_atom_site_label_2
_geom_bond_distance
_ccdc_geom_bond_type
C47   H46   1.083756 S    
C12   H25   1.109972 S    
C7    N3    1.459225 S    
O35   H53   0.990344 S    
P6    C40   1.855773 S    
C26   C27   1.408988 A    
C14   H29   1.110367 S    
C2    H4    1.110533 S    
P8    O23   1.536019 D    
O6    P6    1.748557 S    
H1    C10   1.113051 S    
C53   C54   1.395737 A    
C15   H31   1.111694 S    
C10   H20   1.110613 S    
Ba1   Ba2   4.683635 S    
C5    H8    1.106532 S    
O16   Ba2   2.964764 S    
P3    O11   1.749949 S    
C11   C12   1.521045 S    
C23   C24   1.451007 A    
N4    O39   1.306626 A    
C2    H5    1.111265 S    
O14   P8    1.739627 S    
C7    H13   1.111561 S    
C8    C9    1.536214 S    
S2    O31   1.502375 D    
S4    O36   1.493464 D    
C34   H43   1.075944 S    
O2    Ba2   2.819423 S    
Ba2   O21   2.849016 S    
C34   C35   1.382194 A    
C15   C16   1.520709 S    
C4    N4    1.396924 S    
C29   C36   1.411636 A    
C36   C37   1.415784 A    
C11   H23   1.111140 S    
P1    O1    1.550562 D    
C38   C39   1.396645 A    
C31   C32   1.408269 A    
P8    C25   1.869757 S    
C18   C32   1.405948 A    
P2    O20   1.549134 S    
C9    H19   1.097922 S    
O29   H51   0.987463 S    
P5    O17   1.768075 S    
P2    O10   1.751269 S    
C4    S4    1.796848 S    
C35   C36   1.422498 A    
C6    H12   1.109661 S    
C1    H2    1.111016 S    
S3    O34   1.506502 D    
C26   H36   1.082518 S    
C41   H40   1.082307 S    
C14   S2    1.767644 S    
C9    H18   1.109016 S    
C33   S3    1.740588 S    
P5    C53   1.838544 S    
C12   H26   1.110794 S    
Ba1   O20   2.965641 S    
C14   H30   1.111763 S    
O6    C10   1.404739 S    
O7    Ba1   2.848738 S    
S1    O29   1.659109 S    
C50   C52   1.396533 A    
C40   C41   1.392483 A    
P4    O13   1.559695 S    
C23   C28   1.450909 A    
Ba2   O20   2.763697 S    
Ba1   O16   2.764433 S    
C6    C7    1.528389 S    
P7    O21   1.569342 D    
P8    O24   1.753411 S    
C45   C46   1.433613 A    
C2    C3    1.520172 S    
C31   C42   1.436641 A    
C18   H42   1.078368 S    
S1    O28   1.504545 D    
S2    O32   1.682862 S    
C22   C23   1.414857 A    
C13   C14   1.528853 S    
C17   C18   1.414612 A    
O11   C2    1.406726 S    
C4    C5    1.546481 S    
C30   C38   1.422202 A    
P1    O5    1.751370 S    
C11   H22   1.110874 S    
P1    O2    1.559695 S    
N3    O26   1.300946 A    
O2    Ba1   2.983277 S    
C49   C51   1.432606 A    
C8    H15   1.104670 S    
P4    C27   1.943472 S    
C51   C54   1.399623 A    
C16   H34   1.109922 S    
C15   H32   1.111953 S    
P5    O18   1.542346 D    
C27   C28   1.474506 A    
O13   Ba2   2.984184 S    
S4    O37   1.500706 D    
S3    O33   1.477082 D    
S4    O38   1.681732 S    
C46   N1    1.438908 S    
C1    C10   1.519848 S    
O10   C8    1.381318 S    
C19   C20   1.409784 A    
C1    H3    1.110652 S    
C4    O15   1.398038 S    
C43   C44   1.398715 A    
S3    O35   1.671659 S    
O14   Ba2   2.854922 S    
P3    C48   1.832312 S    
C54   H48   1.079015 S    
C9    H17   1.110526 S    
C16   H35   1.108244 S    
P2    O7    1.520508 D    
O12   Ba2   2.824685 S    
H33   C16   1.109602 S    
C32   H38   1.078793 S    
P3    O8    1.732430 S    
O3    P6    1.741742 S    
C47   C48   1.390401 A    
C3    H7    1.110682 S    
C52   H50   1.082420 S    
P1    C42   1.867442 S    
C49   C50   1.422770 A    
O19   C13   1.415878 S    
P4    O12   1.550904 D    
O8    Ba1   2.770066 S    
C41   C42   1.392421 A    
O16   P7    1.765567 S    
C15   O24   1.405854 S    
C1    H21   1.110706 S    
P2    Ba1   3.449206 S    
O4    P6    1.540985 D    
C6    H11   1.105936 S    
C49   H45   1.082044 S    
C19   C21   1.401233 A    
S1    O27   1.501780 D    
C17   C20   1.447840 A    
O38   H54   0.990736 S    
C33   C34   1.384037 A    
C45   H47   1.082104 S    
C5    H9    1.105025 S    
C30   C31   1.419900 A    
Ba1   O13   2.818967 S    
O1    Ba1   2.824107 S    
O17   Ba2   2.770803 S    
C43   H49   1.082042 S    
C37   C39   1.386388 A    
N1    N2    1.247271 D    
C19   H41   1.078292 S    
C28   C33   1.426715 A    
C13   H28   1.107539 S    
C8    H16   1.084947 S    
S2    O30   1.500171 D    
C24   C35   1.403692 A    
C22   C25   1.418326 A    
C21   C22   1.410150 A    
C11   O22   1.406802 S    
C52   C53   1.396626 A    
P5    O19   1.769889 S    
N4    O40   1.297929 A    
P1    Ba1   3.422303 S    
O5    C6    1.399585 S    
C7    H14   1.106079 S    
C20   C24   1.421651 A    
C25   C26   1.404306 A    
C17   C29   1.422202 A    
C38   C40   1.414266 A    
C21   H37   1.078974 S    
P7    C50   1.871261 S    
C12   H24   1.109358 S    
P4    Ba2   3.423009 S    
C43   C48   1.401652 A    
P2    C44   1.885755 S    
O32   H52   0.989514 S    
C5    H10   1.109419 S    
C29   C30   1.436321 A    
P3    O9    1.547724 D    
C3    H6    1.109908 S    
C13   S1    1.763112 S    
C39   H39   1.080662 S    
P7    O22   1.752892 S    
C44   C45   1.430210 A    
N3    O25   1.300491 A    
C3    H27   1.110595 S    
O3    Ba1   2.855317 S    
P4    O15   1.796523 S    
C37   H44   1.077697 S    
C46   C47   1.396210 A    
C51   N2    1.441010 S    
