data_mof_unit_11894.cif
_audit_creation_date              2012-12-10T16:52:04-0500
_audit_creation_method            fapswitch 2.2
_symmetry_space_group_name_H-M    P1
_symmetry_Int_Tables_number       1
_space_group_crystal_system       triclinic
_cell_length_a                    7.769492
_cell_length_b                    8.578536
_cell_length_c                    14.858291
_cell_angle_alpha                 91.065191
_cell_angle_beta                  86.112947
_cell_angle_gamma                 93.126318
_cell_volume                      986.459144789

loop_
_atom_site_label
_atom_site_type_symbol
_atom_type_description
_atom_site_fract_x
_atom_site_fract_y
_atom_site_fract_z
_atom_type_partial_charge
C1    C     C_R   0.544526 0.794371 0.497773 0.931338
C2    C     C_R   0.574525 0.628626 0.811852 -0.172785
C3    C     C_R   0.492276 0.502748 0.232313 -0.061332
C4    C     C_R   0.507724 0.497251 0.767687 -0.061332
C5    C     C_R   0.559992 0.634395 0.186470 -0.159515
C6    C     C_R   0.440008 0.365605 0.813530 -0.159516
C7    C     C_R   0.562483 0.636386 0.092913 0.031830
C8    C     C_R   0.437517 0.363613 0.907086 0.031830
C9    C     C_R   0.497870 0.501419 0.046923 0.010429
C10   C     C_R   0.502130 0.498581 0.953077 0.010429
C11   C     C_R   0.429255 0.368911 0.094960 0.073818
C12   C     C_R   0.455474 0.205629 0.502227 0.931338
C13   C     C_R   0.570745 0.631089 0.905040 0.073818
C14   C     C_R   0.628644 0.768364 0.044176 0.384719
C15   C     C_R   0.371356 0.231636 0.955824 0.384719
C16   C     C_R   0.632619 0.764496 0.950516 -0.170765
C17   C     C_R   0.367381 0.235504 0.049483 -0.170765
C18   C     C_2   0.563816 0.955723 0.511804 0.095981
C19   C     C_2   0.436184 0.044277 0.488196 0.095981
C20   C     C_R   0.502496 0.499598 0.672739 0.879249
C21   C     C_R   0.497504 0.500402 0.327261 0.879248
C22   C     C_R   0.425475 0.371374 0.188148 -0.172785
Cl1   Cl    Cl    0.706762 0.941452 0.097054 -0.586459
Cl2   Cl    Cl    0.293238 0.058548 0.902946 -0.586459
Cl3   Cl    Cl    0.733731 0.018705 0.580855 -0.554235
Cl4   Cl    Cl    0.266269 0.981295 0.419145 -0.554235
H1    H     H_    0.374611 0.270513 0.226452 0.166549
H2    H     H_    0.625388 0.729487 0.773548 0.166549
H3    H     H_    0.610384 0.733577 0.224623 0.194667
H4    H     H_    0.389616 0.266423 0.775377 0.194667
H5    H     H_    0.683600 0.866196 0.913189 0.207300
H6    H     H_    0.316400 0.133804 0.086811 0.207300
H7    H     H_    0.013928 0.382317 0.432128 0.221020
H8    H     H_    0.986072 0.617683 0.567872 0.221020
N1    N     N_2   0.950330 0.457950 0.475660 -0.141063
N2    N     N_2   0.049670 0.542050 0.524340 -0.141064
O1    O     O_R   0.389250 0.738570 0.505970 -0.582060
O2    O     O_R   0.610750 0.261430 0.494030 -0.582060
O3    O     O_R   0.678390 0.711620 0.490370 -0.595086
O4    O     O_R   0.321610 0.288380 0.509630 -0.595086
O5    O     O_R   0.355420 0.513510 0.639950 -0.610166
O6    O     O_R   0.644580 0.486490 0.360050 -0.610166
O7    O     O_R   0.644560 0.486560 0.624350 -0.609383
O8    O     O_R   0.355440 0.513440 0.375650 -0.609383
Zn1   Zn    Zn3+2 0.306940 0.517990 0.510420 1.045949
Zn2   Zn    Zn3+2 0.693060 0.482010 0.489580 1.045949

loop_
_geom_bond_atom_site_label_1
_geom_bond_atom_site_label_2
_ccdc_geom_bond_type
C14   Cl1   S    
C12   O4    A    
C2    C4    A    
C15   C17   A    
C21   O8    A    
C2    H2    S    
C9    C10   A    
C11   C22   A    
C5    H3    S    
N1    N2    D    
C1    O1    A    
C20   O5    A    
N2    Zn1   S    
C16   H5    S    
C9    C11   A    
C1    C18   S    
C18   Cl3   S    
O3    Zn2   S    
C12   C19   S    
C4    C6    A    
C15   Cl2   S    
C6    H4    S    
C8    C15   A    
H8    N2    S    
C22   H1    S    
C12   O2    A    
O4    Zn1   S    
C17   H6    S    
O7    Zn2   S    
C14   C16   A    
O2    Zn2   S    
C3    C21   S    
C1    O3    A    
O1    Zn1   S    
C21   O6    A    
C4    C20   S    
C7    C9    A    
C20   O7    A    
O8    Zn1   S    
C19   Cl4   S    
C8    C10   A    
C18   C19   D    
O6    Zn2   S    
C13   C16   A    
C5    C7    A    
C2    C13   A    
O5    Zn1   S    
C11   C17   A    
C3    C22   A    
C6    C8    A    
H7    N1    S    
N1    Zn2   S    
C7    C14   A    
C3    C5    A    
C10   C13   A    
