data_mof_unit_49001.cif
_audit_creation_date              2013-03-05T16:31:28-0500
_audit_creation_method            fapswitch 2.2
_symmetry_space_group_name_H-M    P1
_symmetry_Int_Tables_number       1
_space_group_crystal_system       triclinic
_cell_length_a                    14.994877
_cell_length_b                    10.863074
_cell_length_c                    9.645158
_cell_angle_alpha                 89.414832
_cell_angle_beta                  89.625277
_cell_angle_gamma                 92.060349
_cell_volume                      1569.96911975

loop_
_atom_site_label
_atom_site_type_symbol
_atom_site_description
_atom_site_fract_x
_atom_site_fract_y
_atom_site_fract_z
_atom_type_partial_charge
O1    O     O_R   0.500000 0.319640 0.618810 -0.532670
O2    O     O_R   0.500010 0.319680 0.381230 -0.508603
C1    C     C_R   0.503540 0.262967 0.500335 0.869691
O3    O     O_R   0.370250 0.499950 0.618800 -0.542282
O4    O     O_R   0.370260 0.499990 0.381220 -0.539255
C2    C     C_R   0.329426 0.499366 0.500483 0.849371
Cu1   Cu    Cu3+1 0.500000 0.499980 0.640670 1.044182
Cu2   Cu    Cu3+1 0.500000 0.500020 0.359330 1.036729
O5    O     O_R   0.499990 0.680320 0.618770 -0.595061
O6    O     O_R   0.500000 0.680360 0.381190 -0.613821
O7    O     O_R   0.629740 0.500010 0.618780 -0.543532
O8    O     O_R   0.629750 0.500050 0.381200 -0.580163
C3    C     C_R   0.499341 0.737202 0.499419 0.770075
C4    C     C_R   0.670570 0.501598 0.499611 0.803011
C5    C     C_R   0.814769 0.612776 0.518941 -0.183618
C6    C     C_R   0.766517 0.502670 0.498833 -0.065921
C7    C     C_R   0.809451 0.393203 0.478804 -0.171797
C8    C     C_R   0.902220 0.392725 0.479370 0.105041
C9    C     C_R   0.952716 0.503326 0.498869 0.030191
C10   C     C_R   0.908310 0.614706 0.518174 0.079811
C11   C     C_R   0.944344 0.282455 0.461041 -0.212600
C12   C     C_R   0.036964 0.278139 0.461769 0.132763
C13   C     C_R   0.090190 0.388050 0.480580 0.112811
C14   C     C_R   0.046812 0.502041 0.499155 -0.098599
C15   C     C_R   0.096838 0.614586 0.518368 -0.005922
C16   C     C_R   0.051121 0.726468 0.533234 0.343178
C17   C     C_R   0.957481 0.725715 0.534646 0.018983
C18   C     C_R   0.184760 0.389299 0.481367 0.134445
C19   C     C_R   0.232816 0.500108 0.501611 -0.060995
C20   C     C_R   0.190824 0.611505 0.522844 0.101250
H1    H     H_    0.778655 0.696313 0.534245 0.171619
H2    H     H_    0.770362 0.308358 0.464279 0.181686
H3    H     H_    0.905011 0.197789 0.446563 0.162503
C21   C     C_R   0.471456 0.062020 0.613425 0.009286
C22   C     C_R   0.505775 0.129364 0.499383 -0.182172
C23   C     C_R   0.531650 0.065134 0.378976 0.348521
C24   C     C_R   0.521441 0.936792 0.377256 -0.259552
H4    H     H_    0.541397 0.889067 0.285575 0.188475
C25   C     C_R   0.495842 0.870345 0.497042 -0.098167
C26   C     C_R   0.468546 0.934598 0.613048 0.040709
C27   C     C_3   0.495920 0.922239 0.761000 -0.520051
C28   C     C_3   0.499378 0.062716 0.763122 0.444305
H5    H     H_    0.441906 0.878320 0.826017 0.185470
H6    H     H_    0.561948 0.880156 0.772268 0.222808
C29   C     C_R   0.577660 0.514427 0.071266 0.151811
N1    N     N_R   0.500570 0.500930 0.147930 -0.269991
C30   C     C_R   0.426320 0.461616 0.075767 0.332577
C31   C     C_R   0.424920 0.467147 0.928244 0.315209
N2    N     N_R   0.500570 0.500890 0.852020 -0.278143
C32   C     C_R   0.577892 0.512040 0.925480 0.213860
C33   C     C_3   0.649720 0.610653 0.914502 -0.065527
C34   C     C_3   0.650409 0.613214 0.073252 -0.134994
H7    H     H_    0.627558 0.695819 0.862212 0.183487
H8    H     H_    0.713214 0.582009 0.121095 0.185120
N3    N     N_3   0.432039 0.114203 0.854531 -0.479812
H9    H     H_    0.444890 0.086241 0.956150 0.271864
H10   H     H_    0.368793 0.076958 0.830035 0.235628
N4    N     N_R   0.589203 0.117682 0.784665 0.169985
O9    O     O_R   0.657126 0.079716 0.714238 -0.371582
O10   O     O_R   0.601117 0.209751 0.868623 -0.284519
N5    N     N_R   0.353070 0.399902 0.145928 0.167179
O11   O     O_R   0.274210 0.446110 0.143847 -0.315224
O12   O     O_R   0.361591 0.287466 0.190038 -0.332493
N6    N     N_R   0.343083 0.432918 0.862052 0.173514
O13   O     O_R   0.330062 0.321804 0.815916 -0.319636
O14   O     O_R   0.276771 0.506938 0.865586 -0.330964
N7    N     N_3   0.732233 0.565161 0.855041 -0.536229
H11   H     H_    0.782944 0.632038 0.870769 0.238929
H12   H     H_    0.750609 0.484863 0.906793 0.250928
N8    N     N_3   0.622876 0.731647 0.125629 -0.545751
H13   H     H_    0.554823 0.742605 0.107850 0.233232
H14   H     H_    0.633907 0.731438 0.232376 0.250534
N9    N     N_3   0.074914 0.160319 0.444280 -0.562881
H15   H     H_    0.053386 0.124486 0.349480 0.258430
H16   H     H_    0.050007 0.101943 0.523341 0.276831
N10   N     N_3   0.235080 0.280280 0.464163 -0.536599
H17   H     H_    0.221451 0.241623 0.367524 0.301359
H18   H     H_    0.220403 0.218134 0.545251 0.279408
N11   N     N_3   0.244427 0.720752 0.550891 -0.485980
H19   H     H_    0.288690 0.737825 0.468104 0.220299
H20   H     H_    0.281026 0.706746 0.641219 0.245286
N12   N     N_R   0.098381 0.843051 0.540698 0.125911
O15   O     O_R   0.106843 0.898717 0.658920 -0.353556
O16   O     O_R   0.131369 0.894707 0.428436 -0.351991
N13   N     N_3   0.911821 0.838951 0.549433 -0.574143
H21   H     H_    0.932356 0.899215 0.469243 0.245774
H22   H     H_    0.929854 0.878542 0.643993 0.267407
N14   N     N_R   0.577193 0.126039 0.264314 0.154653
O17   O     O_R   0.642209 0.205599 0.287545 -0.358063
O18   O     O_R   0.567971 0.082806 0.139801 -0.333270

loop_
_geom_bond_atom_site_label_1
_geom_bond_atom_site_label_2
_geom_bond_distance
_ccdc_geom_bond_type
N3    H9    1.044347 S    
C26   C27   1.493518 S    
C8    C11   1.386511 A    
N9    H16   1.045220 S    
N9    H15   1.045888 S    
C9    C10   1.415231 A    
C21   C28   1.505978 S    
C28   N4    1.470447 S    
Cu1   Cu2   2.713564 S    
C29   N1    1.370739 A    
C23   N14   1.438703 S    
Cu1   O7    1.955472 S    
C16   C17   1.403814 A    
C19   C20   1.400347 A    
C21   C26   1.383354 A    
C23   C24   1.397367 A    
N10   H18   1.045067 S    
C21   C22   1.399639 A    
O4    C2    1.299423 A    
O7    C4    1.298426 A    
C31   N6    1.426188 S    
C11   H3    1.085342 S    
N4    O10   1.301375 A    
C5    C6    1.391442 A    
C17   N13   1.437049 S    
C8    C9    1.411838 A    
C27   C28   1.525382 S    
N5    O12   1.300184 A    
O5    C3    1.301204 A    
C22   C23   1.419937 A    
C6    C7    1.387077 A    
C13   C14   1.431600 A    
N8    H13   1.046658 S    
C16   N12   1.431536 S    
C11   C12   1.391372 A    
C27   H5    1.111902 S    
O3    Cu1   1.958348 S    
C34   H8    1.113646 S    
C32   C33   1.493995 S    
N13   H22   1.045362 S    
C5    C10   1.402010 A    
N7    H11   1.045489 S    
N10   H17   1.044627 S    
Cu1   N2    2.038701 S    
O3    C2    1.298488 A    
C25   C26   1.391815 A    
N11   H20   1.045428 S    
C29   C34   1.502812 S    
C15   C16   1.424724 A    
N13   H21   1.045777 S    
C33   C34   1.531796 S    
C33   H7    1.111541 S    
N6    O14   1.301553 A    
C24   H4    1.075793 S    
C28   N3    1.465867 S    
C30   C31   1.423861 A    
C1    C22   1.453053 S    
Cu2   O8    1.958347 S    
C7    C8    1.391289 A    
C33   N7    1.464396 S    
C13   C18   1.417713 A    
C14   C15   1.425567 A    
C20   N11   1.438204 S    
C31   N2    1.383955 A    
N14   O18   1.300382 A    
N2    C32   1.365058 A    
N12   O16   1.300992 A    
N3    H10   1.047000 S    
C27   H6    1.110855 S    
C4    C6    1.438313 S    
C18   N10   1.437354 S    
N7    H12   1.046964 S    
C15   C20   1.411847 A    
Cu1   O5    1.968260 S    
N1    C30   1.374210 A    
C18   C19   1.396639 A    
O1    Cu1   1.972500 S    
O2    Cu2   1.968260 S    
O8    C4    1.299270 A    
O6    C3    1.302467 A    
C30   N5    1.428940 S    
O4    Cu2   1.955475 S    
C5    H1    1.084226 S    
C10   C17   1.401639 A    
N6    O13   1.299318 A    
O2    C1    1.300289 A    
N4    O9    1.302209 A    
C24   C25   1.400161 A    
C29   C32   1.406623 A    
C9    C14   1.411537 A    
N5    O11   1.301327 A    
Cu2   N1    2.038870 S    
C3    C25   1.449130 S    
C34   N8    1.459316 S    
N11   H19   1.045803 S    
C2    C19   1.448945 S    
N14   O17   1.301479 A    
Cu2   O6    1.972500 S    
N12   O15   1.300938 A    
C7    H2    1.085146 S    
C12   C13   1.425935 A    
N8    H14   1.043858 S    
C12   N9    1.430353 S    
O1    C1    1.305194 A    
