data_mof_unit_62046.cif
_audit_creation_date              2013-03-05T15:48:30-0500
_audit_creation_method            fapswitch 2.2
_symmetry_space_group_name_H-M    P1
_symmetry_Int_Tables_number       1
_space_group_crystal_system       triclinic
_cell_length_a                    10.157896
_cell_length_b                    10.840059
_cell_length_c                    19.166309
_cell_angle_alpha                 89.934908
_cell_angle_beta                  80.768655
_cell_angle_gamma                 96.349896
_cell_volume                      2069.94793519

loop_
_atom_site_label
_atom_site_type_symbol
_atom_site_description
_atom_site_fract_x
_atom_site_fract_y
_atom_site_fract_z
_atom_type_partial_charge
O1    O     O_R   0.431050 0.692470 0.505750 -0.530965
O2    O     O_R   0.568950 0.307530 0.494250 -0.528412
O3    O     O_R   0.651120 0.659650 0.487410 -0.577666
O4    O     O_R   0.348880 0.340350 0.512590 -0.579862
C1    C     C_R   0.557793 0.732672 0.496022 0.889007
C2    C     C_R   0.442208 0.267326 0.503976 0.888664
O5    O     O_R   0.389930 0.516430 0.611030 -0.557952
O6    O     O_R   0.610070 0.483570 0.388970 -0.560424
O7    O     O_R   0.610000 0.483610 0.592700 -0.586339
O8    O     O_R   0.390000 0.516390 0.407300 -0.583725
C3    C     C_R   0.499934 0.500679 0.634126 0.980120
C4    C     C_R   0.500060 0.499306 0.365876 0.980601
Zn1   Zn    Zn3+2 0.353060 0.521920 0.512240 1.230662
Zn2   Zn    Zn3+2 0.646940 0.478080 0.487760 1.230397
C5    C     C_R   0.461789 0.607096 0.748007 0.172080
C6    C     C_R   0.538022 0.392603 0.252081 0.171806
C7    C     C_R   0.470374 0.613365 0.820146 0.183940
C8    C     C_R   0.529182 0.386087 0.179979 0.183966
C9    C     C_R   0.516109 0.513771 0.853183 -0.282889
C10   C     C_R   0.483296 0.485541 0.146896 -0.282870
C11   C     C_R   0.557593 0.411652 0.814312 0.627702
C12   C     C_R   0.441940 0.587784 0.185692 0.627433
C13   C     C_R   0.549421 0.404741 0.742600 0.171544
C14   C     C_R   0.450371 0.594948 0.257368 0.172313
C15   C     C_R   0.500408 0.502544 0.709663 -0.364105
C16   C     C_R   0.499509 0.497269 0.290347 -0.363497
N1    N     N_R   0.611818 0.472055 0.958242 -0.039136
N2    N     N_R   0.387456 0.527033 0.041841 -0.039077
N3    N     N_R   0.602778 0.463253 0.027920 -0.085955
N4    N     N_R   0.396496 0.535834 0.972161 -0.085857
C17   C     C_R   0.490237 0.490013 0.070667 0.437312
C18   C     C_R   0.509048 0.509096 0.929416 0.437357
C19   C     C_2   0.594942 0.865416 0.488945 0.039725
C20   C     C_2   0.405070 0.134580 0.511057 0.039116
C21   C     C_2   0.500908 0.938184 0.514789 0.474707
C22   C     C_2   0.499119 0.061817 0.485224 0.475797
N5    N     N_2   0.842710 0.448880 0.471430 0.113759
N6    N     N_2   0.157290 0.551120 0.528570 0.114490
C23   C     C_2   0.928232 0.512413 0.503937 0.665973
C24   C     C_2   0.072790 0.490927 0.494050 0.666732
N7    N     N_R   0.423693 0.710984 0.712642 0.248743
O9    O     O_R   0.501903 0.815192 0.705492 -0.242264
O10   O     O_R   0.303523 0.706999 0.696770 -0.183112
N8    N     N_R   0.576267 0.288844 0.287498 0.248901
O11   O     O_R   0.498175 0.184569 0.294709 -0.242210
O12   O     O_R   0.696459 0.293006 0.303361 -0.185125
N9    N     N_R   0.435296 0.721518 0.859205 0.263988
O13   O     O_R   0.514808 0.774786 0.899889 -0.256915
O14   O     O_R   0.325622 0.769160 0.852854 -0.217229
N10   N     N_R   0.564204 0.277842 0.140998 0.264036
O15   O     O_R   0.484556 0.224379 0.100443 -0.256821
O16   O     O_R   0.674012 0.230362 0.147262 -0.217411
F1    F     F_    0.596747 0.314192 0.847416 -0.538066
F2    F     F_    0.402677 0.685127 0.152532 -0.538122
N11   N     N_R   0.586104 0.296133 0.704450 0.263770
O17   O     O_R   0.508355 0.241681 0.663276 -0.352417
O18   O     O_R   0.690641 0.244514 0.715813 -0.204485
N12   N     N_R   0.413806 0.703673 0.295438 0.263726
O19   O     O_R   0.491621 0.758187 0.336560 -0.352962
O20   O     O_R   0.309271 0.755296 0.284072 -0.204776
F3    F     F_    0.599275 0.106828 0.432244 -0.545937
F4    F     F_    0.400765 0.893176 0.567777 -0.546644
N13   N     N_R   0.276261 0.086578 0.550012 0.264117
O21   O     O_R   0.221695 0.145887 0.604159 -0.242306
O22   O     O_R   0.204449 0.995756 0.524617 -0.193006
N14   N     N_R   0.723754 0.913410 0.449990 0.264676
O23   O     O_R   0.778315 0.854094 0.395845 -0.242415
O24   O     O_R   0.795578 0.004217 0.475389 -0.190903
F5    F     F_    0.119202 0.405846 0.447026 -0.588157
F6    F     F_    0.883233 0.602037 0.548158 -0.586522
F7    F     F_    0.113639 0.635272 0.575156 -0.441144
F8    F     F_    0.884207 0.358004 0.429097 -0.439482

loop_
_geom_bond_atom_site_label_1
_geom_bond_atom_site_label_2
_geom_bond_distance
_ccdc_geom_bond_type
N14   O24   1.301699 A    
O7    Zn2   1.988182 S    
N13   O22   1.301700 A    
C13   N11   1.439150 S    
N1    N3    1.326445 A    
N7    O10   1.300755 A    
N7    O9    1.300829 A    
C6    N8    1.433980 S    
N10   O16   1.301258 A    
N9    O13   1.301425 A    
O6    C4    1.294003 A    
O3    C1    1.291750 A    
N11   O17   1.301067 A    
N2    N4    1.326474 A    
N14   O23   1.301290 A    
N1    C18   1.354069 A    
O2    Zn2   1.924817 S    
N9    O14   1.301254 A    
Zn2   N5    2.022992 S    
N4    C18   1.354858 A    
O7    C3    1.294578 A    
C14   C16   1.409415 A    
C5    N7    1.433954 S    
Zn1   N6    2.022991 S    
O2    C2    1.296478 A    
O3    Zn2   1.963967 S    
O8    C4    1.294557 A    
O1    C1    1.296487 A    
C9    C18   1.451873 S    
C11   F1    1.359890 S    
O4    C2    1.291773 A    
C20   N13   1.440584 S    
N6    C24   1.288226 D    
C23   F6    1.359030 S    
C10   C12   1.400857 A    
C19   N14   1.440587 S    
N10   O15   1.301422 A    
C21   F4    1.364496 S    
C20   C22   1.340052 D    
C12   F2    1.359898 S    
N11   O18   1.301338 A    
C11   C13   1.391795 A    
C6    C16   1.409348 A    
N5    C23   1.288192 D    
C12   C14   1.391813 A    
C5    C15   1.409327 A    
O1    Zn1   1.924817 S    
C24   F5    1.359011 S    
C3    C15   1.448719 S    
N12   O20   1.301350 A    
C22   F3    1.364489 S    
C14   N12   1.439181 S    
C2    C20   1.447222 S    
O5    Zn1   1.990256 S    
C13   C15   1.409407 A    
N8    O11   1.300832 A    
C8    N10   1.438971 S    
C8    C10   1.409267 A    
C6    C8    1.400503 A    
N5    F8    1.338043 S    
C23   C24   1.494279 S    
C5    C7    1.400531 A    
N6    F7    1.338006 S    
C7    C9    1.409293 A    
O5    C3    1.293995 A    
O6    Zn2   1.990257 S    
C21   C22   1.457577 S    
N8    O12   1.300769 A    
O4    Zn1   1.963968 S    
C19   C21   1.340041 D    
N12   O19   1.301080 A    
N3    C17   1.354851 A    
C10   C17   1.451872 S    
N2    C17   1.354087 A    
N13   O21   1.301290 A    
C7    N9    1.438995 S    
C4    C16   1.448689 S    
C9    C11   1.400835 A    
O8    Zn1   1.988183 S    
C1    C19   1.447197 S    
