data_mof_unit_62121.cif
_audit_creation_date              2013-03-05T16:34:40-0500
_audit_creation_method            fapswitch 2.2
_symmetry_space_group_name_H-M    P1
_symmetry_Int_Tables_number       1
_space_group_crystal_system       triclinic
_cell_length_a                    35.567016
_cell_length_b                    35.567015
_cell_length_c                    23.533579
_cell_angle_alpha                 89.999983
_cell_angle_beta                  89.99998
_cell_angle_gamma                 90.000034
_cell_volume                      29770.2737599

loop_
_atom_site_label
_atom_site_type_symbol
_atom_site_description
_atom_site_fract_x
_atom_site_fract_y
_atom_site_fract_z
_atom_type_partial_charge
O1    O     O_R   0.031300 0.444560 0.499980 -0.605016
O2    O     O_R   0.444560 0.968700 0.499980 -0.605016
O3    O     O_R   0.968700 0.555440 0.499980 -0.605015
O4    O     O_R   0.555440 0.031300 0.499980 -0.605016
O5    O     O_R   0.968700 0.444560 0.500020 -0.605016
O6    O     O_R   0.555440 0.968700 0.500020 -0.605015
O7    O     O_R   0.031300 0.555440 0.500020 -0.605016
O8    O     O_R   0.444560 0.031300 0.500020 -0.605016
O9    O     O_R   0.531300 0.944560 0.999980 -0.605015
O10   O     O_R   0.944560 0.468700 0.999980 -0.605016
O11   O     O_R   0.468700 0.055440 0.999980 -0.605015
O12   O     O_R   0.055440 0.531300 0.999980 -0.605017
O13   O     O_R   0.468700 0.944560 0.000020 -0.605016
O14   O     O_R   0.055440 0.468700 0.000020 -0.605014
O15   O     O_R   0.531300 0.055440 0.000020 -0.605016
O16   O     O_R   0.944560 0.531300 0.000020 -0.605016
C1    C     C_R   1.000000 0.426749 0.500000 1.004971
C2    C     C_R   0.426749 1.000000 0.500000 1.004970
C3    C     C_R   0.000000 0.573251 0.500000 1.004970
C4    C     C_R   0.573251 0.000000 0.500000 1.004971
C5    C     C_R   0.500000 0.926749 0.000000 1.004971
C6    C     C_R   0.926749 0.500000 0.000000 1.004970
C7    C     C_R   0.500000 0.073251 0.000000 1.004971
C8    C     C_R   0.073251 0.500000 1.000000 1.004970
O17   O     O_R   0.031300 0.500000 0.582760 -0.602814
O18   O     O_R   0.500000 0.968700 0.582760 -0.602813
O19   O     O_R   0.968700 0.500000 0.582760 -0.602813
O20   O     O_R   0.500000 0.031300 0.582760 -0.602814
O21   O     O_R   0.968700 0.500000 0.417240 -0.602813
O22   O     O_R   0.500000 0.968700 0.417240 -0.602813
O23   O     O_R   0.031300 0.500000 0.417240 -0.602814
O24   O     O_R   0.500000 0.031300 0.417240 -0.602814
O25   O     O_R   0.531300 0.000000 0.082760 -0.602814
O26   O     O_R   0.000000 0.468700 0.082760 -0.602813
O27   O     O_R   0.468700 0.000000 0.082760 -0.602813
O28   O     O_R   0.000000 0.531300 0.082760 -0.602814
O29   O     O_R   0.468700 0.000000 0.917240 -0.602813
O30   O     O_R   1.000000 0.468700 0.917240 -0.602812
O31   O     O_R   0.531300 0.000000 0.917240 -0.602814
O32   O     O_R   0.000000 0.531300 0.917240 -0.602814
C9    C     C_R   0.000000 0.500000 0.609429 1.010416
C10   C     C_R   0.500000 1.000000 0.609429 1.010416
C11   C     C_R   0.000000 0.500000 0.390571 1.010416
C12   C     C_R   0.500000 0.000000 0.390571 1.010416
C13   C     C_R   0.500000 0.000000 0.109429 1.010416
C14   C     C_R   0.000000 0.500000 0.109429 1.010416
C15   C     C_R   0.500000 0.000000 0.890571 1.010416
C16   C     C_R   1.000000 0.500000 0.890571 1.010416
Zn1   Zn    Zn3+2 0.041800 0.500000 0.500000 1.064661
Zn2   Zn    Zn3+2 0.500000 0.958200 0.500000 1.064662
Zn3   Zn    Zn3+2 0.958200 0.500000 0.500000 1.064662
Zn4   Zn    Zn3+2 0.500000 0.041800 0.500000 1.064661
Zn5   Zn    Zn3+2 0.541800 0.000000 0.000000 1.064662
Zn6   Zn    Zn3+2 0.000000 0.458200 0.000000 1.064663
Zn7   Zn    Zn3+2 0.458200 0.000000 0.000000 1.064662
Zn8   Zn    Zn3+2 0.000000 0.541800 0.000000 1.064661
C17   C     C_1   1.000000 0.500000 0.669617 -0.083574
C18   C     C_1   0.500000 1.000000 0.669617 -0.083574
C19   C     C_1   0.000000 0.500000 0.330383 -0.083574
C20   C     C_1   0.500000 0.000000 0.330383 -0.083574
C21   C     C_1   0.500000 0.000000 0.169617 -0.083574
C22   C     C_1   0.000000 0.500000 0.169617 -0.083574
C23   C     C_1   0.500000 0.000000 0.830383 -0.083574
C24   C     C_1   0.000000 0.500000 0.830383 -0.083574
C25   C     C_1   1.000000 0.500000 0.720378 0.038066
C26   C     C_1   0.500000 1.000000 0.720378 0.038066
C27   C     C_1   1.000000 0.500000 0.279622 0.038066
C28   C     C_1   0.500000 0.000000 0.279622 0.038066
C29   C     C_1   0.500000 0.000000 0.220378 0.038066
C30   C     C_1   0.000000 0.500000 0.220378 0.038066
C31   C     C_1   0.500000 1.000000 0.779622 0.038066
C32   C     C_1   1.000000 0.500000 0.779622 0.038066
C33   C     C_R   0.977510 0.173776 0.460123 -0.121105
C34   C     C_R   0.173776 0.022490 0.460123 -0.121105
C35   C     C_R   0.022490 0.826224 0.460123 -0.121105
C36   C     C_R   0.826224 0.977510 0.460123 -0.121105
C37   C     C_R   0.022490 0.173776 0.539877 -0.121105
C38   C     C_R   0.826224 0.022490 0.539877 -0.121105
C39   C     C_R   0.977510 0.826224 0.539877 -0.121105
C40   C     C_R   0.173776 0.977510 0.539877 -0.121105
C41   C     C_R   0.477510 0.673776 0.960123 -0.121105
C42   C     C_R   0.673776 0.522490 0.960123 -0.121105
C43   C     C_R   0.522490 0.326224 0.960123 -0.121105
C44   C     C_R   0.326224 0.477512 0.960122 -0.121108
C45   C     C_R   0.522490 0.673776 0.039877 -0.121105
C46   C     C_R   0.326224 0.522492 0.039876 -0.121105
C47   C     C_R   0.477510 0.326224 0.039877 -0.121104
C48   C     C_R   0.673776 0.477510 0.039877 -0.121105
C49   C     C_R   0.977501 0.134248 0.460569 0.202002
C50   C     C_R   0.134248 0.022499 0.460569 0.202001
C51   C     C_R   0.022499 0.865752 0.460569 0.202002
C52   C     C_R   0.865752 0.977501 0.460569 0.202001
C53   C     C_R   0.022499 0.134248 0.539431 0.202001
C54   C     C_R   0.865752 0.022499 0.539431 0.202002
C55   C     C_R   0.977501 0.865752 0.539431 0.202002
C56   C     C_R   0.134248 0.977501 0.539431 0.202002
C57   C     C_R   0.477501 0.634248 0.960569 0.202002
C58   C     C_R   0.634248 0.522499 0.960569 0.202001
C59   C     C_R   0.522499 0.365752 0.960569 0.202002
C60   C     C_R   0.365752 0.477502 0.960569 0.202003
C61   C     C_R   0.522499 0.634248 0.039431 0.202001
C62   C     C_R   0.365752 0.522500 0.039431 0.201998
C63   C     C_R   0.477501 0.365752 0.039431 0.202002
C64   C     C_R   0.634248 0.477501 0.039431 0.202002
C65   C     C_R   1.000000 0.114598 0.500000 -0.209173
C66   C     C_R   0.114598 1.000000 0.500000 -0.209173
C67   C     C_R   0.000000 0.885402 0.500000 -0.209173
C68   C     C_R   0.885402 0.000000 0.500000 -0.209173
C69   C     C_R   0.500000 0.614598 1.000000 -0.209173
C70   C     C_R   0.614598 0.500000 1.000000 -0.209173
C71   C     C_R   0.500000 0.385402 0.000000 -0.209174
C72   C     C_R   0.385402 0.500001 1.000000 -0.209172
C73   C     C_R   1.000000 0.193347 0.500000 -0.010635
C74   C     C_R   0.193348 1.000000 0.500000 -0.010635
C75   C     C_R   1.000000 0.806652 0.500000 -0.010635
C76   C     C_R   0.806652 0.000000 0.500000 -0.010635
C77   C     C_R   0.500000 0.693348 0.000000 -0.010635
C78   C     C_R   0.693347 0.500000 1.000000 -0.010635
C79   C     C_R   0.500000 0.306652 0.000000 -0.010635
C80   C     C_R   0.306652 0.500002 0.999998 -0.010634
C81   C     C_1   1.000000 0.233588 0.500000 0.170546
C82   C     C_1   0.233588 1.000000 0.500000 0.170546
C83   C     C_1   0.000000 0.766412 0.500000 0.170546
C84   C     C_1   0.766412 0.000000 0.500000 0.170546
C85   C     C_1   0.500000 0.733588 0.000000 0.170546
C86   C     C_1   0.733588 0.500000 1.000000 0.170546
C87   C     C_1   0.500000 0.266412 0.000000 0.170546
C88   C     C_1   0.266412 0.500002 0.999998 0.170553
C89   C     C_1   1.000000 0.267193 0.500000 0.054732
C90   C     C_1   0.267193 1.000000 0.500000 0.054731
C91   C     C_1   0.000000 0.732807 0.500000 0.054731
C92   C     C_1   0.732807 0.000000 0.500000 0.054732
C93   C     C_1   0.500000 0.767193 0.000000 0.054731
C94   C     C_1   0.767193 0.500000 1.000000 0.054731
C95   C     C_1   0.500000 0.232807 0.000000 0.054731
C96   C     C_1   0.232807 0.500002 0.999998 0.054736
C97   C     C_R   0.982186 0.326399 0.456227 -0.216494
C98   C     C_R   0.326399 0.017814 0.456227 -0.216493
C99   C     C_R   0.017814 0.673601 0.456227 -0.216493
C100  C     C_R   0.673601 0.982186 0.456227 -0.216494
C101  C     C_R   0.017814 0.326399 0.543773 -0.216494
C102  C     C_R   0.673601 0.017814 0.543773 -0.216494
C103  C     C_R   0.982186 0.673601 0.543773 -0.216493
C104  C     C_R   0.326399 0.982186 0.543773 -0.216493
C105  C     C_R   0.482186 0.826399 0.956227 -0.216494
C106  C     C_R   0.826399 0.517814 0.956227 -0.216494
C107  C     C_R   0.517814 0.173600 0.956227 -0.216494
C108  C     C_R   0.173601 0.482187 0.956226 -0.216496
C109  C     C_R   0.517814 0.826399 0.043773 -0.216494
C110  C     C_R   0.173600 0.517815 0.043772 -0.216490
C111  C     C_R   0.482186 0.173600 0.043773 -0.216494
C112  C     C_R   0.826399 0.482186 0.043773 -0.216494
H1    H     H_    0.968779 0.310663 0.422309 0.172991
H2    H     H_    0.310663 0.031221 0.422308 0.172991
H3    H     H_    0.031221 0.689337 0.422309 0.172991
H4    H     H_    0.689337 0.968779 0.422309 0.172992
H5    H     H_    0.031221 0.310663 0.577691 0.172991
H6    H     H_    0.689337 0.031221 0.577691 0.172991
H7    H     H_    0.968779 0.689337 0.577691 0.172991
H8    H     H_    0.310663 0.968779 0.577691 0.172991
H9    H     H_    0.468779 0.810663 0.922309 0.172991
H10   H     H_    0.810663 0.531221 0.922308 0.172991
H11   H     H_    0.531221 0.189337 0.922309 0.172991
H12   H     H_    0.189337 0.468781 0.922308 0.172991
H13   H     H_    0.531221 0.810663 0.077691 0.172991
H14   H     H_    0.189336 0.531222 0.077690 0.172994
H15   H     H_    0.468779 0.189337 0.077691 0.172991
H16   H     H_    0.810663 0.468779 0.077691 0.172991
C113  C     C_R   0.982421 0.365631 0.454880 -0.057411
C114  C     C_R   0.365631 0.017579 0.454880 -0.057411
C115  C     C_R   0.017579 0.634369 0.454880 -0.057412
C116  C     C_R   0.634369 0.982421 0.454880 -0.057411
C117  C     C_R   0.017579 0.365631 0.545120 -0.057411
C118  C     C_R   0.634369 0.017579 0.545120 -0.057411
C119  C     C_R   0.982421 0.634369 0.545120 -0.057411
C120  C     C_R   0.365631 0.982421 0.545120 -0.057412
C121  C     C_R   0.482421 0.865631 0.954880 -0.057411
C122  C     C_R   0.865631 0.517579 0.954880 -0.057411
C123  C     C_R   0.517579 0.134369 0.954880 -0.057411
C124  C     C_R   0.134369 0.482421 0.954879 -0.057411
C125  C     C_R   0.517579 0.865631 0.045120 -0.057411
C126  C     C_R   0.134369 0.517580 0.045120 -0.057413
C127  C     C_R   0.482421 0.134369 0.045120 -0.057411
C128  C     C_R   0.865631 0.482421 0.045120 -0.057412
C129  C     C_R   1.000000 0.385655 0.500000 -0.071581
C130  C     C_R   0.385655 1.000000 0.500000 -0.071581
C131  C     C_R   1.000000 0.614344 0.500000 -0.071581
C132  C     C_R   0.614344 0.000000 0.500000 -0.071581
C133  C     C_R   0.500000 0.885655 0.000000 -0.071581
C134  C     C_R   0.885655 0.500000 1.000000 -0.071581
C135  C     C_R   0.500000 0.114345 0.000000 -0.071581
C136  C     C_R   0.114344 0.500000 1.000000 -0.071581
C137  C     C_R   1.000000 0.307138 0.500000 0.124705
C138  C     C_R   0.307138 1.000000 0.500000 0.124705
C139  C     C_R   0.000000 0.692862 0.500000 0.124705
C140  C     C_R   0.692862 0.000000 0.500000 0.124706
C141  C     C_R   0.500000 0.807138 0.000000 0.124705
C142  C     C_R   0.807138 0.500000 1.000000 0.124706
C143  C     C_R   0.500000 0.192862 0.000000 0.124706
C144  C     C_R   0.192862 0.500001 0.999999 0.124704
O33   O     O_R   0.944690 0.999980 0.546690 -0.577478
O34   O     O_R   0.999980 0.055310 0.546690 -0.577478
O35   O     O_R   0.055310 0.000020 0.546690 -0.577478
O36   O     O_R   0.000020 0.944690 0.546690 -0.577478
O37   O     O_R   0.055310 0.999980 0.453310 -0.577477
O38   O     O_R   0.000020 0.055310 0.453310 -0.577478
O39   O     O_R   0.944690 0.000020 0.453310 -0.577477
O40   O     O_R   0.999980 0.944690 0.453310 -0.577477
O41   O     O_R   0.444690 0.499980 0.046690 -0.577477
O42   O     O_R   0.499980 0.555310 0.046690 -0.577478
O43   O     O_R   0.555310 0.500020 0.046690 -0.577478
O44   O     O_R   0.500020 0.444690 0.046690 -0.577478
O45   O     O_R   0.555310 0.499980 0.953310 -0.577477
O46   O     O_R   0.500020 0.555310 0.953310 -0.577478
O47   O     O_R   0.444690 0.500020 0.953310 -0.577478
O48   O     O_R   0.499980 0.444690 0.953310 -0.577478
C145  C     C_R   0.926645 0.000000 0.500000 1.008405
C146  C     C_R   0.000000 0.073355 0.500000 1.008404
C147  C     C_R   0.073355 0.000000 0.500000 1.008404
C148  C     C_R   0.000000 0.926645 0.500000 1.008405
C149  C     C_R   0.426645 0.500000 0.000000 1.008405
C150  C     C_R   0.500000 0.573355 0.000000 1.008404
C151  C     C_R   0.573355 0.500000 0.000000 1.008404
C152  C     C_R   0.500000 0.426645 0.000000 1.008405
Zn9   Zn    Zn3+2 0.000000 0.000000 0.562390 1.222795
Zn10  Zn    Zn3+2 0.000000 0.000000 0.437610 1.222795
Zn11  Zn    Zn3+2 0.500000 0.500000 0.062390 1.222796
Zn12  Zn    Zn3+2 0.500000 0.500000 0.937610 1.222795
C153  C     C_2   0.952626 0.193740 0.418804 0.499202
H17   H     H_    0.927536 0.180032 0.402744 0.122022
O49   O     O_2   0.960143 0.225088 0.401009 -0.576462
C154  C     C_2   0.193740 0.047373 0.418804 0.499204
H18   H     H_    0.180032 0.072464 0.402744 0.122022
O50   O     O_2   0.225088 0.039857 0.401009 -0.576463
C155  C     C_2   0.047374 0.806260 0.418804 0.499203
H19   H     H_    0.072464 0.819968 0.402744 0.122022
O51   O     O_2   0.039857 0.774911 0.401010 -0.576463
C156  C     C_2   0.806260 0.952626 0.418804 0.499203
H20   H     H_    0.819968 0.927536 0.402744 0.122022
O52   O     O_2   0.774911 0.960143 0.401009 -0.576463
C157  C     C_2   0.047373 0.193740 0.581196 0.499203
H21   H     H_    0.072464 0.180032 0.597256 0.122022
O53   O     O_2   0.039857 0.225088 0.598990 -0.576463
C158  C     C_2   0.806260 0.047374 0.581196 0.499203
H22   H     H_    0.819968 0.072464 0.597256 0.122022
O54   O     O_2   0.774911 0.039857 0.598990 -0.576463
C159  C     C_2   0.952627 0.806260 0.581196 0.499204
H23   H     H_    0.927536 0.819968 0.597256 0.122022
O55   O     O_2   0.960143 0.774911 0.598991 -0.576463
C160  C     C_2   0.193740 0.952626 0.581196 0.499203
H24   H     H_    0.180032 0.927536 0.597256 0.122022
O56   O     O_2   0.225088 0.960143 0.598990 -0.576463
C161  C     C_2   0.452626 0.693740 0.918804 0.499204
H25   H     H_    0.427536 0.680032 0.902744 0.122022
O57   O     O_2   0.460143 0.725088 0.901010 -0.576463
C162  C     C_2   0.693740 0.547373 0.918804 0.499203
H26   H     H_    0.680032 0.572464 0.902744 0.122022
O58   O     O_2   0.725089 0.539857 0.901009 -0.576463
C163  C     C_2   0.547374 0.306260 0.918804 0.499203
H27   H     H_    0.572464 0.319968 0.902744 0.122022
O59   O     O_2   0.539857 0.274911 0.901010 -0.576463
C164  C     C_2   0.306259 0.452629 0.918803 0.499201
H28   H     H_    0.319967 0.427538 0.902743 0.122021
O60   O     O_2   0.274912 0.460147 0.901006 -0.576461
C165  C     C_2   0.547373 0.693740 0.081196 0.499203
H29   H     H_    0.572464 0.680032 0.097256 0.122022
O61   O     O_2   0.539857 0.725089 0.098990 -0.576463
C166  C     C_2   0.306261 0.547377 0.081194 0.499202
H30   H     H_    0.319971 0.572465 0.097259 0.122030
O62   O     O_2   0.274910 0.539864 0.098982 -0.576473
C167  C     C_2   0.452626 0.306260 0.081196 0.499202
H31   H     H_    0.427536 0.319968 0.097256 0.122021
O63   O     O_2   0.460143 0.274911 0.098991 -0.576462
C168  C     C_2   0.693740 0.452626 0.081196 0.499203
H32   H     H_    0.680032 0.427536 0.097256 0.122022
O64   O     O_2   0.725088 0.460143 0.098990 -0.576463
N1    N     N_R   0.954347 0.113956 0.421013 0.199105
O65   O     O_R   0.960123 0.117143 0.366632 -0.340666
O66   O     O_R   0.927579 0.092160 0.439297 -0.363162
N2    N     N_R   0.113956 0.045653 0.421013 0.199105
O67   O     O_R   0.117143 0.039877 0.366631 -0.340665
O68   O     O_R   0.092161 0.072421 0.439297 -0.363162
N3    N     N_R   0.045653 0.886044 0.421013 0.199105
O69   O     O_R   0.039877 0.882857 0.366632 -0.340665
O70   O     O_R   0.072421 0.907840 0.439297 -0.363162
N4    N     N_R   0.886044 0.954347 0.421013 0.199105
O71   O     O_R   0.882857 0.960123 0.366632 -0.340665
O72   O     O_R   0.907839 0.927579 0.439297 -0.363162
N5    N     N_R   0.045653 0.113956 0.578987 0.199105
O73   O     O_R   0.039877 0.117143 0.633368 -0.340665
O74   O     O_R   0.072421 0.092161 0.560702 -0.363163
N6    N     N_R   0.886044 0.045653 0.578987 0.199105
O75   O     O_R   0.882857 0.039877 0.633368 -0.340666
O76   O     O_R   0.907839 0.072421 0.560703 -0.363163
N7    N     N_R   0.954347 0.886044 0.578987 0.199105
O77   O     O_R   0.960123 0.882857 0.633368 -0.340666
O78   O     O_R   0.927579 0.907839 0.560703 -0.363162
N8    N     N_R   0.113956 0.954347 0.578987 0.199105
O79   O     O_R   0.117143 0.960123 0.633368 -0.340666
O80   O     O_R   0.092160 0.927579 0.560703 -0.363162
N9    N     N_R   0.454347 0.613956 0.921013 0.199105
O81   O     O_R   0.460123 0.617143 0.866632 -0.340665
O82   O     O_R   0.427579 0.592160 0.939298 -0.363162
N10   N     N_R   0.613956 0.545653 0.921013 0.199105
O83   O     O_R   0.617143 0.539877 0.866631 -0.340665
O84   O     O_R   0.592160 0.572421 0.939297 -0.363163
N11   N     N_R   0.545653 0.386044 0.921013 0.199104
O85   O     O_R   0.539877 0.382857 0.866632 -0.340665
O86   O     O_R   0.572421 0.407840 0.939297 -0.363162
N12   N     N_R   0.386043 0.454348 0.921013 0.199106
O87   O     O_R   0.382857 0.460123 0.866631 -0.340664
O88   O     O_R   0.407839 0.427579 0.939298 -0.363162
N13   N     N_R   0.545653 0.613956 0.078987 0.199105
O89   O     O_R   0.539877 0.617143 0.133368 -0.340666
O90   O     O_R   0.572421 0.592160 0.060702 -0.363163
N14   N     N_R   0.386045 0.545653 0.078987 0.199103
O91   O     O_R   0.382858 0.539876 0.133368 -0.340670
O92   O     O_R   0.407840 0.572422 0.060703 -0.363162
N15   N     N_R   0.454347 0.386044 0.078987 0.199105
O93   O     O_R   0.460123 0.382857 0.133368 -0.340666
O94   O     O_R   0.427579 0.407839 0.060702 -0.363162
N16   N     N_R   0.613956 0.454347 0.078987 0.199105
O95   O     O_R   0.617143 0.460123 0.133368 -0.340666
O96   O     O_R   0.592160 0.427579 0.060703 -0.363162
C169  C     C_2   0.964889 0.383774 0.404499 0.409255
H33   H     H_    0.945534 0.367807 0.378215 0.088034
O97   O     O_2   0.972751 0.415765 0.390138 -0.588474
C170  C     C_2   0.383775 0.035111 0.404499 0.409257
H34   H     H_    0.367807 0.054466 0.378215 0.088034
O98   O     O_2   0.415765 0.027249 0.390138 -0.588475
C171  C     C_2   0.035111 0.616225 0.404499 0.409256
H35   H     H_    0.054466 0.632193 0.378215 0.088034
O99   O     O_2   0.027250 0.584235 0.390138 -0.588474
C172  C     C_2   0.616225 0.964889 0.404499 0.409256
H36   H     H_    0.632193 0.945534 0.378215 0.088035
O100  O     O_2   0.584235 0.972751 0.390138 -0.588474
C173  C     C_2   0.035111 0.383774 0.595501 0.409255
H37   H     H_    0.054466 0.367807 0.621785 0.088035
O101  O     O_2   0.027249 0.415765 0.609862 -0.588474
C174  C     C_2   0.616225 0.035111 0.595501 0.409255
H38   H     H_    0.632193 0.054466 0.621785 0.088035
O102  O     O_2   0.584235 0.027249 0.609862 -0.588475
C175  C     C_2   0.964889 0.616225 0.595501 0.409255
H39   H     H_    0.945534 0.632193 0.621785 0.088034
O103  O     O_2   0.972751 0.584235 0.609862 -0.588474
C176  C     C_2   0.383774 0.964889 0.595501 0.409256
H40   H     H_    0.367807 0.945534 0.621785 0.088034
O104  O     O_2   0.415765 0.972750 0.609862 -0.588474
C177  C     C_2   0.464889 0.883774 0.904499 0.409255
H41   H     H_    0.445534 0.867807 0.878215 0.088034
O105  O     O_2   0.472751 0.915765 0.890138 -0.588474
C178  C     C_2   0.883775 0.535111 0.904499 0.409257
H42   H     H_    0.867807 0.554466 0.878215 0.088034
O106  O     O_2   0.915765 0.527249 0.890138 -0.588475
C179  C     C_2   0.535111 0.116226 0.904499 0.409256
H43   H     H_    0.554466 0.132193 0.878215 0.088034
O107  O     O_2   0.527249 0.084235 0.890138 -0.588474
C180  C     C_2   0.116226 0.464889 0.904499 0.409255
H44   H     H_    0.132193 0.445534 0.878214 0.088034
O108  O     O_2   0.084235 0.472750 0.890138 -0.588474
C181  C     C_2   0.535111 0.883774 0.095501 0.409255
H45   H     H_    0.554466 0.867807 0.121785 0.088035
O109  O     O_2   0.527249 0.915765 0.109862 -0.588474
C182  C     C_2   0.116225 0.535111 0.095501 0.409255
H46   H     H_    0.132192 0.554466 0.121785 0.088035
O110  O     O_2   0.084235 0.527249 0.109863 -0.588475
C183  C     C_2   0.464889 0.116225 0.095501 0.409255
H47   H     H_    0.445534 0.132193 0.121785 0.088035
O111  O     O_2   0.472750 0.084235 0.109862 -0.588475
C184  C     C_2   0.883774 0.464889 0.095501 0.409256
H48   H     H_    0.867807 0.445534 0.121785 0.088034
O112  O     O_2   0.915765 0.472750 0.109862 -0.588474

loop_
_geom_bond_atom_site_label_1
_geom_bond_atom_site_label_2
_geom_bond_distance
_ccdc_geom_bond_type
N16   O96   1.300970 A    
O25   C13   1.277975 A    
C103  C119  1.395729 A    
C10   C18   1.416451 S    
C173  H37   1.085833 S    
N9    O81   1.301115 A    
O33   Zn9   2.001608 S    
C14   C22   1.416451 S    
O21   Zn3   1.983119 S    
O18   Zn2   1.983117 S    
C95   C143  1.420724 S    
C160  O56   1.220660 D    
C167  H31   1.084870 S    
C34   C74   1.416012 A    
C41   C77   1.416016 A    
C158  H22   1.084870 S    
C22   C30   1.194581 T    
C168  H32   1.084868 S    
C43   C79   1.416015 A    
C128  C184  1.486939 S    
O24   Zn4   1.983120 S    
O46   C150  1.272496 A    
N12   O87   1.301116 A    
C107  C143  1.389950 A    
C62   N14   1.437233 S    
O38   Zn10  2.001605 S    
C59   N11   1.437232 S    
C46   C166  1.494317 S    
C104  H8    1.085250 S    
C58   N10   1.437234 S    
C98   H2    1.085252 S    
C66   C147  1.466883 S    
C42   C58   1.405946 A    
C44   C164  1.494312 S    
C126  C136  1.423266 A    
C102  H6    1.085250 S    
C37   C73   1.416014 A    
C70   C151  1.466883 S    
O47   C149  1.272495 A    
C53   C65   1.410629 A    
C99   C139  1.389950 A    
O34   Zn9   2.001605 S    
C156  O52   1.220660 D    
O39   C145  1.272495 A    
C75   C83   1.431238 S    
C44   C60   1.405947 A    
C51   C67   1.410629 A    
C174  H38   1.085830 S    
O17   C9    1.277975 A    
C108  C144  1.389950 A    
N14   O91   1.301117 A    
O48   C152  1.272495 A    
C153  H17   1.084867 S    
C45   C165  1.494313 S    
C60   N12   1.437235 S    
C179  H43   1.085833 S    
O43   C151  1.272493 A    
C178  H42   1.085832 S    
C154  O50   1.220660 D    
C97   H1    1.085250 S    
O37   Zn10  2.001605 S    
C45   C77   1.416011 A    
C100  H4    1.085249 S    
C47   C63   1.405946 A    
C68   C145  1.466883 S    
C101  H5    1.085250 S    
C23   C31   1.194581 T    
O26   Zn6   1.983117 S    
O7    C3    1.280872 A    
C115  C171  1.486937 S    
C35   C75   1.416013 A    
N8    O79   1.301115 A    
C42   C78   1.416014 A    
O27   C13   1.277978 A    
O35   Zn9   2.001605 S    
O31   C15   1.277975 A    
O32   C16   1.277975 A    
C93   C141  1.420724 S    
C91   C139  1.420724 S    
C174  O102  1.219438 D    
C163  O59   1.220660 D    
C34   C50   1.405946 A    
C114  C170  1.486938 S    
O45   Zn12  2.001605 S    
C64   C70   1.410627 A    
O9    C5    1.280874 A    
C105  H9    1.085250 S    
C38   C54   1.405943 A    
C111  H15   1.085250 S    
O11   C7    1.280874 A    
C71   C152  1.466883 S    
C96   C144  1.420724 S    
C33   C49   1.405943 A    
O4    C4    1.280872 A    
C107  C123  1.395725 A    
O5    C1    1.280872 A    
C86   C94   1.195226 T    
C170  O98   1.219435 D    
C113  C169  1.486935 S    
O5    Zn3   2.006888 S    
C41   C161  1.494313 S    
O36   Zn9   2.001608 S    
C17   C25   1.194581 T    
C106  C122  1.395729 A    
N4    O72   1.300969 A    
N15   O94   1.300970 A    
C177  H41   1.085830 S    
O42   C150  1.272493 A    
C39   C75   1.416012 A    
C126  C182  1.486936 S    
C116  C172  1.486935 S    
C184  H48   1.085834 S    
N7    O78   1.300969 A    
C122  C178  1.486938 S    
O48   Zn12  2.001608 S    
O23   C11   1.277975 A    
C37   C157  1.494311 S    
C36   C156  1.494315 S    
O47   Zn12  2.001608 S    
C161  H25   1.084868 S    
N13   O90   1.300970 A    
C104  C138  1.389950 A    
C110  H14   1.085251 S    
C125  C181  1.486935 S    
C182  H46   1.085830 S    
C84   C92   1.195226 T    
C157  H21   1.084870 S    
O14   C8    1.280874 A    
C169  O97   1.219438 D    
C64   N16   1.437234 S    
O2    Zn2   2.006888 S    
C19   C27   1.194581 T    
O44   Zn11  2.001608 S    
C5    C133  1.461573 S    
C52   C68   1.410631 A    
C47   C167  1.494313 S    
C162  O58   1.220660 D    
C51   N3    1.437234 S    
O26   C14   1.277978 A    
O29   C15   1.277978 A    
O8    Zn4   2.006888 S    
O30   C16   1.277978 A    
C11   C19   1.416451 S    
C3    C131  1.461570 S    
N10   O84   1.300969 A    
C40   C160  1.494313 S    
N1    O65   1.301115 A    
C162  H26   1.084870 S    
C106  H10   1.085252 S    
C124  C180  1.486936 S    
C48   C64   1.405946 A    
O19   Zn3   1.983117 S    
C108  H12   1.085249 S    
C109  H13   1.085250 S    
N2    O67   1.301117 A    
C172  H36   1.085833 S    
C101  C137  1.389947 A    
C67   C148  1.466883 S    
C39   C159  1.494312 S    
C106  C142  1.389948 A    
O16   Zn8   2.006888 S    
C47   C79   1.416012 A    
C4    C132  1.461570 S    
C57   C69   1.410628 A    
O39   Zn10  2.001608 S    
C176  O104  1.219437 D    
C99   H3    1.085250 S    
C59   C71   1.410629 A    
C104  C120  1.395725 A    
C49   N1    1.437234 S    
N5    O73   1.301117 A    
C123  C135  1.423268 A    
C8    C136  1.461570 S    
C120  C176  1.486937 S    
O6    Zn2   2.006884 S    
C180  O108  1.219438 D    
C165  O61   1.220660 D    
C179  O107  1.219438 D    
C175  O103  1.219438 D    
C128  C134  1.423266 A    
C6    C134  1.461570 S    
C48   C78   1.416013 A    
C46   C62   1.405950 A    
C167  O63   1.220662 D    
O18   C10   1.277978 A    
O44   C152  1.272494 A    
O37   C147  1.272496 A    
C38   C76   1.416014 A    
C170  H34   1.085832 S    
C119  C175  1.486936 S    
C111  C127  1.395729 A    
C164  H28   1.084870 S    
C63   C71   1.410630 A    
C25   C32   1.394221 S    
O12   C8    1.280872 A    
O1    C1    1.280874 A    
C27   C30   1.394221 S    
O40   Zn10  2.001608 S    
O34   C146  1.272493 A    
C107  H11   1.085250 S    
O13   C5    1.280872 A    
C158  O54   1.220662 D    
C168  O64   1.220660 D    
C119  C131  1.423265 A    
O29   Zn7   1.983119 S    
C73   C81   1.431238 S    
C49   C65   1.410631 A    
N3    O69   1.301115 A    
C46   C80   1.416016 A    
C77   C85   1.431238 S    
C33   C153  1.494313 S    
C79   C87   1.431238 S    
N9    O82   1.300971 A    
C58   C70   1.410630 A    
O41   C149  1.272494 A    
C72   C149  1.466883 S    
C62   C72   1.410629 A    
C42   C162  1.494310 S    
C110  C126  1.395726 A    
O10   C6    1.280872 A    
C181  O109  1.219438 D    
O36   C148  1.272494 A    
O15   Zn5   2.006885 S    
C87   C95   1.195226 T    
C88   C96   1.195226 T    
C15   C23   1.416451 S    
C122  C134  1.423265 A    
C16   C24   1.416451 S    
O2    C2    1.280872 A    
C61   C69   1.410631 A    
C33   C73   1.416014 A    
C50   N2    1.437233 S    
C173  O101  1.219438 D    
C125  C133  1.423263 A    
C1    C129  1.461570 S    
C28   C29   1.394221 S    
O32   Zn8   1.983120 S    
C178  O106  1.219435 D    
C155  H19   1.084872 S    
C43   C163  1.494313 S    
C98   C138  1.389946 A    
N16   O95   1.301115 A    
O22   Zn2   1.983119 S    
C108  C124  1.395729 A    
C43   C59   1.405946 A    
O21   C11   1.277978 A    
C109  C125  1.395729 A    
O22   C12   1.277978 A    
N8    O80   1.300971 A    
O23   Zn1   1.983120 S    
C110  C144  1.389947 A    
C112  H16   1.085250 S    
N12   O88   1.300966 A    
C159  O55   1.220660 D    
C63   N15   1.437233 S    
N11   O85   1.301117 A    
C50   C66   1.410630 A    
C52   N4    1.437234 S    
C157  O53   1.220661 D    
N7    O77   1.301115 A    
O3    Zn3   2.006884 S    
C171  O99   1.219437 D    
C160  H24   1.084872 S    
O8    C2    1.280874 A    
C55   N7    1.437233 S    
C40   C56   1.405946 A    
C171  H35   1.085834 S    
C39   C55   1.405946 A    
O28   Zn8   1.983117 S    
C26   C31   1.394221 S    
O30   Zn6   1.983119 S    
C44   C80   1.416014 A    
C117  C129  1.423265 A    
C114  C130  1.423265 A    
C183  O111  1.219438 D    
C56   N8    1.437234 S    
C55   C67   1.410630 A    
C34   C154  1.494312 S    
C60   C72   1.410631 A    
O9    Zn5   2.006888 S    
O11   Zn7   2.006884 S    
C156  H20   1.084869 S    
O16   C6    1.280874 A    
C76   C84   1.431238 S    
C83   C91   1.195226 T    
C81   C89   1.195226 T    
C90   C138  1.420724 S    
C184  O112  1.219437 D    
C80   C88   1.431235 S    
C103  H7    1.085252 S    
O35   C147  1.272493 A    
O6    C4    1.280874 A    
C53   N5    1.437233 S    
C99   C115  1.395725 A    
C9    C17   1.416451 S    
C153  O49   1.220663 D    
O45   C151  1.272496 A    
N13   O89   1.301115 A    
O31   Zn5   1.983120 S    
C12   C20   1.416451 S    
C13   C21   1.416451 S    
C154  H18   1.084869 S    
C182  O110  1.219440 D    
C169  H33   1.085830 S    
O17   Zn1   1.983117 S    
O33   C145  1.272494 A    
N15   O93   1.301115 A    
C166  H30   1.084873 S    
C20   C28   1.194581 T    
C65   C146  1.466883 S    
N5    O74   1.300969 A    
O41   Zn11  2.001608 S    
C69   C150  1.466883 S    
C98   C114  1.395729 A    
O13   Zn7   2.006888 S    
O40   C148  1.272495 A    
C175  H39   1.085830 S    
N3    O70   1.300971 A    
O42   Zn11  2.001605 S    
C183  H47   1.085832 S    
C7    C135  1.461570 S    
C102  C118  1.395729 A    
O38   C146  1.272496 A    
C54   C68   1.410629 A    
O4    Zn4   2.006885 S    
N6    O75   1.301115 A    
N2    O68   1.300968 A    
N4    O71   1.301115 A    
C172  O100  1.219438 D    
C48   C168  1.494315 S    
C118  C132  1.423265 A    
C18   C26   1.194581 T    
C35   C155  1.494313 S    
C112  C128  1.395725 A    
O46   Zn12  2.001605 S    
C165  H29   1.084869 S    
C97   C113  1.395729 A    
C121  C177  1.486935 S    
O15   C7    1.280872 A    
C103  C139  1.389946 A    
C177  O105  1.219438 D    
O43   Zn11  2.001605 S    
C101  C117  1.395729 A    
C155  O51   1.220659 D    
C111  C143  1.389948 A    
O25   Zn5   1.983117 S    
C97   C137  1.389950 A    
C121  C133  1.423265 A    
O27   Zn7   1.983117 S    
C54   N6    1.437234 S    
O7    Zn1   2.006885 S    
C38   C158  1.494311 S    
C124  C136  1.423268 A    
C161  O57   1.220660 D    
C164  O60   1.220660 D    
N6    O76   1.300968 A    
C2    C130  1.461570 S    
N11   O86   1.300970 A    
C105  C141  1.389950 A    
O19   C9    1.277978 A    
C85   C93   1.195226 T    
O3    C3    1.280874 A    
O24   C12   1.277975 A    
C112  C142  1.389950 A    
O28   C14   1.277975 A    
C100  C140  1.389950 A    
O12   Zn8   2.006885 S    
C36   C52   1.405946 A    
C61   N13   1.437235 S    
N10   O83   1.301115 A    
O14   Zn6   2.006884 S    
C40   C74   1.416013 A    
N1    O66   1.300968 A    
C123  C179  1.486937 S    
N14   O92   1.300969 A    
C57   N9    1.437233 S    
C163  H27   1.084868 S    
C45   C61   1.405946 A    
C37   C53   1.405946 A    
C21   C29   1.194581 T    
C94   C142  1.420724 S    
C56   C66   1.410629 A    
C166  O62   1.220662 D    
C127  C135  1.423265 A    
C89   C137  1.420724 S    
C159  H23   1.084869 S    
C120  C130  1.423268 A    
C35   C51   1.405946 A    
C181  H45   1.085830 S    
C115  C131  1.423268 A    
C113  C129  1.423267 A    
O20   Zn4   1.983117 S    
C176  H40   1.085834 S    
C41   C57   1.405946 A    
C116  C132  1.423267 A    
C118  C174  1.486935 S    
O20   C10   1.277975 A    
C36   C76   1.416012 A    
C24   C32   1.194581 T    
C180  H44   1.085832 S    
O10   Zn6   2.006888 S    
C74   C82   1.431238 S    
C100  C116  1.395729 A    
C105  C121  1.395729 A    
C92   C140  1.420724 S    
C102  C140  1.389948 A    
C78   C86   1.431238 S    
C127  C183  1.486935 S    
O1    Zn1   2.006888 S    
C82   C90   1.195226 T    
C117  C173  1.486935 S    
C109  C141  1.389947 A    
