data_mof_unit_14825.cif
_audit_creation_date              2012-12-10T19:47:26-0500
_audit_creation_method            fapswitch 2.2
_symmetry_space_group_name_H-M    P1
_symmetry_Int_Tables_number       1
_space_group_crystal_system       triclinic
_cell_length_a                    10.825364
_cell_length_b                    10.870203
_cell_length_c                    12.71738
_cell_angle_alpha                 92.985652
_cell_angle_beta                  93.204496
_cell_angle_gamma                 90.284646
_cell_volume                      1492.08903621

loop_
_atom_site_label
_atom_site_type_symbol
_atom_type_description
_atom_site_fract_x
_atom_site_fract_y
_atom_site_fract_z
_atom_type_partial_charge
C1    C     C_R   0.261920 0.496383 0.500378 0.788811
C2    C     C_R   0.808362 0.742665 0.369721 -0.123229
C3    C     C_R   0.129998 0.365478 0.661173 0.123730
C4    C     C_R   0.870000 0.634508 0.338822 0.123727
C5    C     C_R   0.124703 0.399346 0.768892 -0.146891
C6    C     C_R   0.875256 0.600602 0.231104 -0.146854
C7    C     C_R   0.181746 0.326482 0.844646 -0.147457
C8    C     C_R   0.818200 0.673449 0.155343 -0.147457
C9    C     C_R   0.242647 0.218715 0.813363 -0.109734
C10   C     C_R   0.757325 0.781237 0.186618 -0.109717
C11   C     C_R   0.938095 0.447535 0.579836 -0.245825
C12   C     C_R   0.738080 0.503617 0.499622 0.788818
C13   C     C_R   0.061905 0.552463 0.420164 -0.245825
C14   C     C_R   0.871788 0.505781 0.499434 -0.076727
C15   C     C_R   0.128212 0.494217 0.500566 -0.076729
C16   C     C_R   0.503806 0.261890 0.500945 0.787042
C17   C     C_R   0.496195 0.738110 0.499055 0.787050
C18   C     C_R   0.933978 0.560406 0.419211 0.003352
C19   C     C_R   0.066022 0.439590 0.580788 0.003361
C20   C     C_2   0.471772 0.460399 0.030574 -0.271079
C21   C     C_2   0.528225 0.539601 0.969425 -0.271089
C22   C     C_1   0.522797 0.526832 0.852983 0.212943
C23   C     C_R   0.494030 0.871706 0.497438 -0.085729
C24   C     C_1   0.477202 0.473168 0.147017 0.212941
C25   C     C_R   0.760128 0.255164 0.787777 -0.128687
C26   C     C_R   0.239865 0.744843 0.212227 -0.128691
C27   C     C_R   0.709264 0.200497 0.692792 -0.093048
C28   C     C_R   0.290734 0.799508 0.307210 -0.093059
C29   C     C_R   0.601387 0.127838 0.692057 0.137019
C30   C     C_R   0.398615 0.872162 0.307944 0.137024
C31   C     C_R   0.548290 0.107682 0.788234 -0.154383
C32   C     C_R   0.451711 0.892315 0.211766 -0.154381
C33   C     C_R   0.598356 0.163900 0.882493 -0.144359
C34   C     C_R   0.505974 0.128293 0.502562 -0.085733
C35   C     C_R   0.401640 0.836099 0.117508 -0.144366
C36   C     C_R   0.703996 0.237942 0.882210 -0.106454
C37   C     C_R   0.295997 0.762062 0.117792 -0.106448
C38   C     C_R   0.540628 0.938164 0.588448 -0.252399
C39   C     C_R   0.459377 0.061836 0.411551 -0.252399
C40   C     C_R   0.451938 0.934213 0.407392 -0.008419
C41   C     C_R   0.548067 0.065787 0.592607 -0.008425
C42   C     C_R   0.247025 0.183948 0.706214 -0.110812
C43   C     C_R   0.752986 0.816043 0.293765 -0.110806
C44   C     C_R   0.191662 0.257342 0.630264 -0.123184
Cu1   Cu    Cu3+1 0.492140 0.492110 0.395880 0.980185
Cu2   Cu    Cu3+1 0.507860 0.507890 0.604120 0.980184
H1    H     H_    0.743170 0.280913 0.955343 0.125738
H2    H     H_    0.420181 0.382628 0.992971 0.158481
H3    H     H_    0.843600 0.310247 0.788955 0.119292
H4    H     H_    0.156392 0.689764 0.211050 0.119296
H5    H     H_    0.468284 0.048026 0.790369 0.110771
H6    H     H_    0.531718 0.951968 0.209629 0.110771
H7    H     H_    0.555834 0.149140 0.955891 0.119036
H8    H     H_    0.444161 0.850857 0.044109 0.119035
H9    H     H_    0.575032 0.890154 0.656672 0.162683
H10   H     H_    0.424973 0.109845 0.343327 0.162683
H11   H     H_    0.285693 0.161868 0.872207 0.113354
H12   H     H_    0.256819 0.719093 0.044660 0.125743
H13   H     H_    0.714266 0.838070 0.127768 0.113348
H14   H     H_    0.292298 0.099651 0.681663 0.126469
H15   H     H_    0.707732 0.900354 0.318308 0.126461
H16   H     H_    0.753956 0.213986 0.620137 0.099737
H17   H     H_    0.246044 0.786021 0.379866 0.099738
H18   H     H_    0.195197 0.229050 0.547543 0.104698
H19   H     H_    0.804855 0.770983 0.452441 0.104715
H20   H     H_    0.076653 0.482011 0.793979 0.120533
H21   H     H_    0.923283 0.517919 0.206024 0.120530
H22   H     H_    0.177948 0.353072 0.927603 0.121205
H23   H     H_    0.821965 0.646829 0.072388 0.121197
H24   H     H_    0.889511 0.403967 0.639933 0.143835
H25   H     H_    0.110488 0.596030 0.360065 0.143839
H26   H     H_    0.579815 0.617373 0.007029 0.158472
N1    N     N_1   0.480320 0.480250 0.239400 -0.153380
N2    N     N_1   0.519680 0.519750 0.760600 -0.153382
O1    O     O_R   0.313000 0.493330 0.412070 -0.585286
O2    O     O_R   0.687000 0.506670 0.587930 -0.585288
O3    O     O_R   0.326280 0.506660 0.587930 -0.565023
O4    O     O_R   0.673720 0.493340 0.412070 -0.565023
O5    O     O_R   0.493370 0.312980 0.412070 -0.588271
O6    O     O_R   0.506630 0.687020 0.587930 -0.588271
O7    O     O_R   0.506650 0.326310 0.587930 -0.561767
O8    O     O_R   0.493350 0.673690 0.412070 -0.561764

loop_
_geom_bond_atom_site_label_1
_geom_bond_atom_site_label_2
_ccdc_geom_bond_type
Cu2   O6    S    
C27   C29   A    
C1    O3    A    
C14   C18   A    
Cu1   O8    S    
C2    H19   S    
Cu2   O2    S    
C11   H24   S    
Cu1   Cu2   S    
C44   H18   S    
C15   C19   A    
C11   C19   A    
C9    C42   A    
C17   C23   S    
C13   C18   A    
C35   C37   A    
C26   H4    S    
C11   C14   A    
C24   N1    T    
C23   C40   A    
C33   C36   A    
C36   H1    S    
Cu1   N1    S    
C17   O8    A    
C32   H6    S    
C16   C34   S    
C7    H22   S    
C38   H9    S    
C20   C24   S    
C12   O4    A    
C31   C33   A    
C3    C19   S    
Cu1   O4    S    
C1    C15   S    
C37   H12   S    
C4    C18   S    
C21   C22   S    
C35   H8    S    
C34   C41   A    
C42   C44   A    
C33   H7    S    
C3    C44   A    
C21   H26   S    
C34   C39   A    
C1    O1    A    
C32   C35   A    
C38   C41   A    
C4    C6    A    
C42   H14   S    
C39   C40   A    
C5    C7    A    
C6    C8    A    
C13   H25   S    
C17   O6    A    
C2    C4    A    
C27   H16   S    
Cu2   O7    S    
C39   H10   S    
C2    C43   A    
C8    H23   S    
C30   C40   S    
Cu1   O5    S    
C20   H2    S    
C6    H21   S    
C12   C14   S    
C13   C15   A    
C12   O2    A    
C22   N2    T    
Cu2   N2    S    
C43   H15   S    
C7    C9    A    
C29   C41   S    
C10   C43   A    
C31   H5    S    
C5    H20   S    
C3    C5    A    
Cu2   O3    S    
C26   C37   A    
C25   C27   A    
C23   C38   A    
C26   C28   A    
Cu1   O1    S    
C16   O5    A    
C28   C30   A    
C10   H13   S    
C29   C31   A    
C30   C32   A    
C16   O7    A    
C9    H11   S    
C25   H3    S    
C25   C36   A    
C28   H17   S    
C20   C21   D    
C8    C10   A    
