data_mof_unit_28126.cif
_audit_creation_date              2012-12-10T17:12:04-0500
_audit_creation_method            fapswitch 2.2
_symmetry_space_group_name_H-M    P1
_symmetry_Int_Tables_number       1
_space_group_crystal_system       triclinic
_cell_length_a                    11.754931
_cell_length_b                    12.982809
_cell_length_c                    15.951981
_cell_angle_alpha                 94.565375
_cell_angle_beta                  75.315883
_cell_angle_gamma                 101.657149
_cell_volume                      2305.34216344

loop_
_atom_site_label
_atom_site_type_symbol
_atom_type_description
_atom_site_fract_x
_atom_site_fract_y
_atom_site_fract_z
_atom_type_partial_charge
C1    C     C_R   0.522184 0.701202 0.501242 0.802922
C2    C     C_R   0.477816 0.298798 0.498758 0.802922
C3    C     C_R   0.357059 0.488616 0.084086 -0.206415
C4    C     C_R   0.642941 0.511384 0.915914 -0.206414
C5    C     C_R   0.271579 0.465390 0.034901 0.164548
C6    C     C_R   0.728421 0.534610 0.965099 0.164548
C7    C     C_R   0.463979 0.184632 0.499998 -0.049834
C8    C     C_R   0.536021 0.815368 0.500002 -0.049834
C9    C     C_R   0.660218 0.987411 0.469221 -0.207102
C10   C     C_R   0.339782 0.012589 0.530779 -0.207102
C11   C     C_R   0.649581 0.879343 0.475323 -0.198304
C12   C     C_R   0.350419 0.120657 0.524677 -0.198304
C13   C     C_R   0.432978 0.860212 0.519164 -0.257714
C14   C     C_R   0.567022 0.139788 0.480836 -0.257714
C15   C     C_R   0.442726 0.967962 0.512641 0.172262
C16   C     C_R   0.557274 0.032038 0.487359 0.172262
C17   C     C_R   0.944155 0.591792 0.588205 0.107193
C18   C     C_R   0.055845 0.408208 0.411795 0.107193
C19   C     C_R   0.831631 0.594058 0.570937 0.351120
C20   C     C_R   0.168369 0.405942 0.429063 0.351120
C21   C     C_R   0.855222 0.455876 0.466006 -0.024245
C22   C     C_R   0.144778 0.544124 0.533994 -0.024244
C23   C     C_R   0.428449 0.496616 0.667802 0.804321
C24   C     C_R   0.571550 0.503384 0.332198 0.804322
C25   C     C_R   0.977773 0.466242 0.468541 -0.031600
C26   C     C_R   0.022227 0.533758 0.531459 -0.031600
C27   C     C_R   0.386834 0.490651 0.763149 -0.056032
C28   C     C_R   0.613166 0.509349 0.236851 -0.056032
C29   C     C_R   0.228510 0.438007 0.890799 -0.198181
C30   C     C_R   0.771490 0.561993 0.109201 -0.198180
C31   C     C_R   0.268060 0.445137 0.801104 -0.247601
C32   C     C_R   0.731940 0.554863 0.198896 -0.247601
C33   C     C_R   0.466052 0.528079 0.816913 0.133819
C34   C     C_R   0.533948 0.471921 0.183087 0.133819
C35   C     C_R   0.433747 0.497758 0.904339 0.050744
C36   C     C_R   0.566253 0.502242 0.095661 0.050744
C37   C     C_R   0.310221 0.465037 0.943704 0.112783
C38   C     C_R   0.689779 0.534963 0.056296 0.112783
C39   C     C_R   0.519591 0.503660 0.954547 0.010449
C40   C     C_R   0.480409 0.496340 0.045453 0.010449
Cu1   Cu    Cu3+1 0.386820 0.492450 0.493500 0.932210
Cu2   Cu    Cu3+1 0.613180 0.507550 0.506500 0.932210
H1    H     H_    0.795418 0.581894 0.238362 0.167144
H2    H     H_    0.204582 0.418106 0.761638 0.167143
H3    H     H_    0.134291 0.408840 0.917821 0.156170
H4    H     H_    0.865709 0.591160 0.082179 0.156170
H5    H     H_    0.325967 0.500474 0.153115 0.168287
H6    H     H_    0.674033 0.499526 0.846885 0.168287
H7    H     H_    0.655158 0.188842 0.461407 0.146051
H8    H     H_    0.344842 0.811158 0.538593 0.146051
H9    H     H_    0.270272 0.154268 0.541636 0.147076
H10   H     H_    0.729727 0.845732 0.458363 0.147076
H11   H     H_    0.748569 0.035821 0.449471 0.134671
H12   H     H_    0.251431 0.964179 0.550529 0.134671
H13   H     H_    0.182973 0.600990 0.577360 0.152411
H14   H     H_    0.817027 0.399010 0.422640 0.152411
N1    N     N_R   0.216750 0.481110 0.483710 -0.195533
N2    N     N_R   0.783250 0.518890 0.516290 -0.195533
O1    O     O_R   0.419950 0.645670 0.495380 -0.583481
O2    O     O_R   0.580050 0.354330 0.504620 -0.583481
O3    O     O_R   0.611110 0.658410 0.506370 -0.593702
O4    O     O_R   0.388890 0.341590 0.493630 -0.593702
O5    O     O_R   0.350820 0.490050 0.621260 -0.588494
O6    O     O_R   0.649180 0.509950 0.378740 -0.588494
O7    O     O_R   0.541970 0.502800 0.632250 -0.571373
O8    O     O_R   0.458030 0.497200 0.367750 -0.571373
C41   C     C_3   0.140423 0.446411 0.081111 -0.896523
H15   H     H_    0.126857 0.455419 0.152565 0.235987
H16   H     H_    0.095562 0.503882 0.060216 0.232963
H17   H     H_    0.097173 0.365201 0.066104 0.234587
C42   C     C_3   0.859577 0.553589 0.918889 -0.896523
H18   H     H_    0.873142 0.544581 0.847435 0.235986
H19   H     H_    0.902827 0.634799 0.933896 0.234587
H20   H     H_    0.904438 0.496118 0.939783 0.232963
C43   C     C_3   0.218926 0.307135 0.402796 -0.800605
H21   H     H_    0.176295 0.253071 0.357710 0.205938
H22   H     H_    0.314771 0.324705 0.372002 0.257460
H23   H     H_    0.201780 0.261011 0.461616 0.222668
C44   C     C_3   0.781073 0.692864 0.597204 -0.800604
H24   H     H_    0.823705 0.746928 0.642290 0.205938
H25   H     H_    0.798219 0.738989 0.538384 0.222667
H26   H     H_    0.685229 0.675295 0.627998 0.257460
C45   C     C_3   0.980217 0.650487 0.666349 -0.933340
H27   H     H_    0.028110 0.603605 0.696106 0.233727
H28   H     H_    0.038522 0.727614 0.646943 0.237963
H29   H     H_    0.900949 0.661993 0.718770 0.241327
C46   C     C_3   0.019783 0.349513 0.333651 -0.933341
H30   H     H_    0.971890 0.396395 0.303894 0.233727
H31   H     H_    0.099050 0.338007 0.281230 0.241327
H32   H     H_    0.961478 0.272386 0.353056 0.237963
C47   C     C_3   0.434476 0.378757 0.211338 -0.883715
H33   H     H_    0.353540 0.406138 0.250498 0.244256
H34   H     H_    0.411797 0.330579 0.155054 0.242293
H35   H     H_    0.463820 0.325207 0.249069 0.220445
C48   C     C_3   0.565523 0.621243 0.788662 -0.883715
H36   H     H_    0.588203 0.669421 0.844946 0.242293
H37   H     H_    0.646460 0.593862 0.749502 0.244255
H38   H     H_    0.536180 0.674793 0.750931 0.220445

loop_
_geom_bond_atom_site_label_1
_geom_bond_atom_site_label_2
_ccdc_geom_bond_type
C46   H30   S    
C8    C13   A    
C5    C37   A    
C1    C8    S    
Cu1   Cu2   S    
C2    C7    S    
C5    C41   S    
Cu2   N2    S    
C22   N1    A    
C48   H38   S    
C27   C33   A    
C17   C26   A    
C35   C37   A    
C9    C16   A    
C10   C15   A    
C1    O1    A    
C2    O2    A    
C14   H7    S    
C15   C16   A    
C30   C38   A    
C34   C47   S    
C11   H10   S    
C42   H20   S    
C33   C35   A    
C7    C14   A    
C48   H36   S    
Cu2   O7    S    
C6    C38   A    
C23   C27   S    
C34   C36   A    
C24   O8    A    
C23   O5    A    
C28   C34   A    
C24   O6    A    
C21   H14   S    
C6    C42   S    
C18   C25   A    
Cu1   O4    S    
C33   C48   S    
C19   N2    A    
C7    C12   A    
C31   H2    S    
C27   C31   A    
C41   H15   S    
C28   C32   A    
Cu1   O1    S    
C4    C6    A    
Cu2   O2    S    
C39   C40   A    
C44   H25   S    
C25   C26   A    
C13   H8    S    
C20   C43   S    
C29   H3    S    
C41   H16   S    
C35   C39   A    
C43   H21   S    
C47   H34   S    
C43   H22   S    
C45   H27   S    
C4    C39   A    
C36   C40   A    
C19   C44   S    
C9    C11   A    
Cu2   O3    S    
C22   H13   S    
C10   C12   A    
C45   H28   S    
C3    C40   A    
C13   C15   A    
C14   C16   A    
C9    H11   S    
Cu1   O5    S    
Cu2   O6    S    
C47   H33   S    
C12   H9    S    
C42   H19   S    
C4    H6    S    
C21   C25   A    
C30   H4    S    
C24   C28   S    
C3    C5    A    
C1    O3    A    
C44   H26   S    
C48   H37   S    
Cu1   O8    S    
C18   C46   S    
C41   H17   S    
C23   O7    A    
C36   C38   A    
Cu1   N1    S    
C42   H18   S    
C29   C31   A    
C47   H35   S    
C30   C32   A    
C8    C11   A    
C3    H5    S    
C17   C19   A    
C32   H1    S    
C18   C20   A    
C10   H12   S    
C43   H23   S    
C44   H24   S    
C21   N2    A    
C45   H29   S    
C22   C26   A    
C46   H32   S    
C29   C37   A    
C46   H31   S    
C17   C45   S    
C20   N1    A    
C2    O4    A    
