data_mof_unit_7028.cif
_audit_creation_date              2012-12-10T17:44:30-0500
_audit_creation_method            fapswitch 2.2
_symmetry_space_group_name_H-M    P1
_symmetry_Int_Tables_number       1
_space_group_crystal_system       triclinic
_cell_length_a                    9.934692
_cell_length_b                    10.713762
_cell_length_c                    15.492177
_cell_angle_alpha                 91.228728
_cell_angle_beta                  67.852618
_cell_angle_gamma                 87.318192
_cell_volume                      1524.25613292

loop_
_atom_site_label
_atom_site_type_symbol
_atom_type_description
_atom_site_fract_x
_atom_site_fract_y
_atom_site_fract_z
_atom_type_partial_charge
C1    C     C_R   0.497797 0.740462 0.496769 0.873402
C2    C     C_R   0.741847 0.483200 0.028485 0.175779
C3    C     C_R   0.599702 0.447428 0.082444 0.096266
C4    C     C_R   0.408973 0.498677 0.675811 0.843886
C5    C     C_R   0.838049 0.513455 0.071763 -0.217714
C6    C     C_R   0.791946 0.515018 0.168585 -0.202232
C7    C     C_R   0.556009 0.450545 0.179292 -0.258222
C8    C     C_R   0.220753 0.909313 0.534210 -0.221436
C9    C     C_R   0.094741 0.987832 0.575965 0.212449
C10   C     C_R   0.100031 0.099004 0.622011 -0.166609
C11   C     C_R   0.234132 0.141180 0.613559 -0.192802
C12   C     C_R   0.430919 0.445575 0.905608 0.099511
C13   C     C_R   0.363716 0.073091 0.556446 0.102442
C14   C     C_R   0.357613 0.948792 0.529426 0.057651
C15   C     C_R   0.491027 0.874765 0.492897 -0.121126
C16   C     C_R   0.498917 0.261111 0.506879 0.874519
C17   C     C_R   0.624161 0.931034 0.462562 -0.172163
C18   C     C_R   0.627065 0.058298 0.471709 -0.176151
C19   C     C_R   0.497610 0.129155 0.517993 -0.110205
C20   C     C_R   0.776587 0.650348 0.634105 -0.135941
C21   C     C_R   0.802455 0.712413 0.705776 -0.181896
C22   C     C_R   0.941985 0.710459 0.705733 -0.168926
C23   C     C_R   0.296142 0.393405 0.954703 0.177361
C24   C     C_R   0.055717 0.645671 0.634404 -0.177785
C25   C     C_R   0.030402 0.571970 0.566422 0.151354
C26   C     C_R   0.886093 0.572998 0.566239 0.189545
C27   C     C_R   0.969303 0.430060 0.436715 -0.119308
C28   C     C_R   0.591302 0.497526 0.324120 0.874173
C29   C     C_R   0.112292 0.430242 0.436647 -0.092383
C30   C     C_R   0.355904 0.478482 0.775592 -0.047857
C31   C     C_R   0.649075 0.487091 0.222459 -0.060029
C32   C     C_R   0.193678 0.382464 0.912833 -0.220386
C33   C     C_R   0.224691 0.422821 0.822586 -0.218645
C34   C     C_R   0.539114 0.448394 0.944268 0.066057
C35   C     C_R   0.452574 0.496278 0.819751 -0.253354
C36   C     C_R   0.501349 0.420085 0.038870 0.069566
C37   C     C_R   0.366117 0.367236 0.086630 -0.227894
C38   C     C_R   0.266424 0.352334 0.044328 -0.240066
C39   C     C_R   0.684303 0.476665 0.890934 -0.227238
C40   C     C_R   0.784440 0.492070 0.932489 -0.246358
H1    H     H_    0.164577 0.310736 0.082619 0.149812
H2    H     H_    0.715410 0.768356 0.758509 0.163702
H3    H     H_    0.446227 0.431610 0.223030 0.153523
H4    H     H_    0.963507 0.764528 0.758478 0.157408
H5    H     H_    0.162634 0.658183 0.632500 0.205007
H6    H     H_    0.199032 0.372996 0.384883 0.143698
H7    H     H_    0.865808 0.542276 0.201234 0.160468
H8    H     H_    0.893775 0.516075 0.889827 0.152355
H9    H     H_    0.091870 0.339567 0.948758 0.146966
H10   H     H_    0.149051 0.407018 0.788760 0.152298
H11   H     H_    0.546537 0.548649 0.784843 0.146992
H12   H     H_    0.946799 0.540603 0.031055 0.150121
H13   H     H_    0.336359 0.332499 0.155815 0.142639
H14   H     H_    0.724410 0.484397 0.816240 0.164371
H15   H     H_    0.726467 0.876495 0.429806 0.189355
H16   H     H_    0.210574 0.825670 0.497891 0.195172
H17   H     H_    0.001892 0.157580 0.657815 0.163285
H18   H     H_    0.236337 0.231182 0.646016 0.159175
H19   H     H_    0.730118 0.101448 0.440926 0.181729
H20   H     H_    0.948970 0.372794 0.385047 0.140647
H21   H     H_    0.671229 0.669181 0.632685 0.203158
I1    I     I_    0.901800 0.951887 0.557186 -0.469195
N1    N     N_R   0.856800 0.501200 0.500850 -0.118385
N2    N     N_R   0.142390 0.501280 0.500880 -0.123114
O1    O     O_R   0.385310 0.683220 0.500000 -0.643907
O2    O     O_R   0.614640 0.683250 0.500010 -0.621892
O3    O     O_R   0.319840 0.499980 0.632240 -0.644605
O4    O     O_R   0.549160 0.500000 0.632250 -0.629705
O5    O     O_R   0.385360 0.316750 0.499990 -0.613209
O6    O     O_R   0.614690 0.316780 0.500000 -0.605976
O7    O     O_R   0.450840 0.500000 0.367750 -0.613752
O8    O     O_R   0.680160 0.500020 0.367760 -0.615620
Zn1   Zn    Zn3+2 0.346880 0.499980 0.499990 0.925764
Zn2   Zn    Zn3+2 0.653120 0.500020 0.500010 0.944482

loop_
_geom_bond_atom_site_label_1
_geom_bond_atom_site_label_2
_ccdc_geom_bond_type
C27   C29   A    
C8    H16   S    
C12   C23   A    
C30   C35   A    
C24   H5    S    
C36   C37   A    
C3    C7    A    
C27   H20   S    
C5    C6    A    
C39   H14   S    
O4    Zn2   S    
O2    Zn2   S    
O1    Zn1   S    
C15   C17   A    
C18   C19   A    
C20   H21   S    
C22   H4    S    
C8    C9    A    
O6    Zn2   S    
C1    O1    A    
N2    Zn1   S    
C5    H12   S    
O5    Zn1   S    
C1    C15   S    
C7    H3    S    
C11   H18   S    
C9    C10   A    
C17   H15   S    
C37   H13   S    
C6    C31   A    
C29   N2    A    
C13   C14   A    
C28   O8    A    
C1    O2    A    
C7    C31   A    
C6    H7    S    
C13   C19   A    
C34   C39   A    
C10   H17   S    
C16   O6    A    
C24   C25   A    
C38   H1    S    
O8    Zn2   S    
C39   C40   A    
C4    O4    A    
C25   C26   A    
C9    I1    S    
C25   N2    A    
C26   N1    A    
C37   C38   A    
C17   C18   A    
C12   C35   A    
C27   N1    A    
O3    Zn1   S    
C35   H11   S    
C22   C24   A    
C2    C5    A    
C12   C34   A    
O7    Zn1   S    
C40   H8    S    
C8    C14   A    
C30   C33   A    
C28   C31   S    
C16   O5    A    
C4    O3    A    
N1    Zn2   S    
C23   C38   A    
C29   H6    S    
C23   C32   A    
C2    C3    A    
C33   H10   S    
C32   C33   A    
C11   C13   A    
C20   C26   A    
C3    C36   A    
C16   C19   S    
C34   C36   A    
C32   H9    S    
C10   C11   A    
C21   H2    S    
C28   O7    A    
C2    C40   A    
C18   H19   S    
C20   C21   A    
C14   C15   A    
C21   C22   A    
C4    C30   S    
