data_mof_unit_61028.cif
_audit_creation_date              2012-12-11T17:24:10-0500
_audit_creation_method            fapswitch 2.2
_symmetry_space_group_name_H-M    P1
_symmetry_Int_Tables_number       1
_space_group_crystal_system       triclinic
_cell_length_a                    19.906309
_cell_length_b                    19.853094
_cell_length_c                    19.856895
_cell_angle_alpha                 110.622241
_cell_angle_beta                  107.249647
_cell_angle_gamma                 110.481492
_cell_volume                      6040.50047654

loop_
_atom_site_label
_atom_site_type_symbol
_atom_type_description
_atom_site_fract_x
_atom_site_fract_y
_atom_site_fract_z
_atom_type_partial_charge
C1    C     C_R   0.996447 0.726432 0.067682 -0.128663
C2    C     C_R   0.030726 0.293833 0.961291 -0.128841
C3    C     C_R   0.756301 0.268895 0.757240 0.083197
C4    C     C_R   0.231105 0.771717 0.232445 0.092902
C5    C     C_R   0.988345 0.501704 0.757275 0.077596
C6    C     C_R   0.960990 0.500568 0.232688 0.089465
C7    C     C_R   0.769131 0.500552 0.042596 0.100485
C8    C     C_R   0.244585 0.501734 0.016888 0.093704
C9    C     C_3   0.469082 0.467979 0.010339 -0.144085
C10   C     C_3   0.576765 0.536304 0.167753 -0.141314
C11   C     C_3   0.554145 0.546571 0.057693 -0.145902
C12   C     C_3   0.490087 0.457197 0.120003 -0.144226
C13   C     C_1   0.710693 0.500927 0.068646 -0.024917
C14   C     C_1   0.318457 0.502312 0.046830 -0.026131
C15   C     C_3   0.504270 0.422856 0.045527 -0.136998
C16   C     C_3   0.540610 0.581235 0.132017 -0.145452
C17   C     C_3   0.588856 0.501556 0.092884 0.185687
C18   C     C_3   0.456069 0.502466 0.084556 0.185736
C19   C     C_1   0.658142 0.501240 0.085224 -0.039804
C20   C     C_1   0.380957 0.502530 0.068493 -0.049791
C21   C     C_R   0.474947 0.048229 0.401260 0.230764
C22   C     C_R   0.470419 0.110719 0.549687 0.230821
C23   C     C_R   0.833359 0.294254 0.764291 -0.122934
C24   C     C_R   0.158274 0.726206 0.228822 -0.122786
C25   C     C_R   0.402817 0.010970 0.404855 0.026472
C26   C     C_R   0.544321 0.142273 0.547606 0.024862
C27   C     C_R   0.399587 0.044835 0.477801 -0.237817
C28   C     C_R   0.545798 0.114175 0.473156 -0.228838
C29   C     C_1   0.338821 0.928871 0.340993 0.038908
C30   C     C_1   0.619721 0.190608 0.621499 0.047411
C31   C     C_1   0.682404 0.226706 0.683432 0.003294
C32   C     C_1   0.288607 0.857440 0.290654 -0.011891
C33   C     C_R   0.935196 0.579701 0.549303 0.163888
C34   C     C_R   0.849723 0.426590 0.400139 0.164733
C35   C     C_R   0.902110 0.503171 0.546849 -0.124654
C36   C     C_R   0.892128 0.502733 0.404612 -0.126759
C37   C     C_R   0.854639 0.426816 0.472149 0.162415
C38   C     C_R   0.930037 0.579468 0.477257 0.158949
C39   C     C_1   0.929196 0.502525 0.621457 0.127712
C40   C     C_1   0.911220 0.501692 0.340673 0.126304
C41   C     C_1   0.932872 0.501058 0.290516 -0.001876
C42   C     C_1   0.956024 0.502087 0.683587 0.006079
C43   C     C_R   0.064867 0.113318 0.144703 0.231692
C44   C     C_R   0.148959 0.049697 0.075715 0.236549
C45   C     C_R   0.035658 0.571011 0.834965 -0.106143
C46   C     C_R   0.932189 0.430813 0.159198 -0.124530
C47   C     C_R   0.097375 0.144319 0.101274 0.031665
C48   C     C_R   0.108904 0.012764 0.111402 0.030771
C49   C     C_R   0.142995 0.115807 0.070876 -0.248087
C50   C     C_R   0.070935 0.047288 0.149640 -0.244828
C51   C     C_1   0.070811 0.191818 0.073373 0.036604
C52   C     C_1   0.089524 0.930079 0.092233 0.039728
C53   C     C_1   0.067383 0.858213 0.069926 -0.009273
C54   C     C_1   0.044252 0.227092 0.045868 -0.004377
C55   C     C_R   0.771920 0.430728 0.000374 -0.129044
C56   C     C_R   0.236456 0.571094 0.037205 -0.115823
C57   C     C_R   0.970256 0.431488 0.764272 -0.115327
C58   C     C_R   0.002465 0.569990 0.228958 -0.112898
C59   C     C_R   0.840858 0.570073 0.068854 -0.122636
C60   C     C_R   0.168231 0.431442 0.963547 -0.124104
C61   C     C_R   0.764327 0.299112 0.834873 -0.103377
C62   C     C_R   0.227789 0.727302 0.159102 -0.126640
C63   C     C_R   0.067422 0.727475 0.999417 -0.114650
C64   C     C_R   0.964769 0.298842 0.034939 -0.100111
C65   C     C_R   0.038679 0.772085 0.040562 0.095308
C66   C     C_R   0.012120 0.268474 0.013056 0.084777
H1    H     H_    0.977711 0.748893 0.112706 0.104096
H2    H     H_    0.061428 0.274584 0.928887 0.104521
H3    H     H_    0.423984 0.440039 0.945518 0.136214
H4    H     H_    0.622538 0.564084 0.232208 0.139035
H5    H     H_    0.039852 0.018337 0.176893 0.166414
H6    H     H_    0.168064 0.140076 0.037459 0.164743
H7    H     H_    0.060864 0.635756 0.851374 0.125968
H8    H     H_    0.886083 0.367741 0.136876 0.122685
H9    H     H_    0.716003 0.289970 0.851174 0.122190
H10   H     H_    0.268497 0.751354 0.136846 0.121437
H11   H     H_    0.581323 0.583214 0.031953 0.134463
H12   H     H_    0.462133 0.420732 0.145462 0.137693
N1    N     N_R   0.999080 0.655880 0.043180 -0.043073
N2    N     N_R   0.000920 0.344120 0.956820 -0.043425
N3    N     N_R   0.887710 0.344150 0.844460 -0.044845
N4    N     N_R   0.112290 0.655850 0.155540 -0.043823
N5    N     N_R   0.043250 0.542980 0.887390 -0.048189
N6    N     N_R   0.956750 0.457020 0.112610 -0.047543
N7    N     N_R   0.843540 0.457050 0.000250 -0.045660
N8    N     N_R   0.156460 0.542950 0.999750 -0.045759
N9    N     N_R   0.000630 0.457060 0.844460 -0.046154
N10   N     N_R   0.999370 0.542940 0.155540 -0.046028
N11   N     N_R   0.886170 0.542970 0.043180 -0.043378
N12   N     N_R   0.113830 0.457030 0.956820 -0.043843
N13   N     N_R   0.844420 0.344140 0.887390 -0.048033
N14   N     N_R   0.155580 0.655860 0.112610 -0.046626
N15   N     N_R   0.042380 0.655890 0.000250 -0.048307
N16   N     N_R   0.957620 0.344110 0.999750 -0.048662
Ni1   Ni    Ni4+2 0.999230 0.598520 0.098470 0.214846
Ni2   Ni    Ni4+2 0.000770 0.401480 0.901530 0.229249
Ni3   Ni    Ni4+2 0.098520 0.598520 0.000000 0.225409
Ni4   Ni    Ni4+2 0.901480 0.401480 0.000000 0.224295
H13   H     H_    0.553995 0.646075 0.167221 0.136727
H14   H     H_    0.490749 0.357986 0.010146 0.141935
H15   H     H_    0.603058 0.138900 0.471887 0.181643
H16   H     H_    0.343782 0.015685 0.480318 0.169408
I1    I     I_    0.482868 0.000485 0.291813 -0.324948
I2    I     I_    0.464348 0.152395 0.660747 -0.375935
I3    I     I_    0.985942 0.693815 0.478221 -0.319760
I4    I     I_    0.797368 0.312548 0.470972 -0.314180
I5    I     I_    0.999248 0.694449 0.663766 -0.287790
I6    I     I_    0.785638 0.311933 0.285668 -0.279144
I7    I     I_    0.996629 0.155686 0.193686 -0.346339
I8    I     I_    0.208724 0.000696 0.018081 -0.329194
H17   H     H_    0.846768 0.275261 0.714450 0.110849
H18   H     H_    0.135855 0.748575 0.270199 0.108048
H19   H     H_    0.731355 0.367463 0.983132 0.112538
H20   H     H_    0.284548 0.635835 0.076286 0.112744
H21   H     H_    0.939340 0.368279 0.714391 0.115524
H22   H     H_    0.021115 0.633707 0.270269 0.117334
H23   H     H_    0.863130 0.633934 0.113409 0.105057
H24   H     H_    0.155418 0.368388 0.931389 0.103186
H25   H     H_    0.113899 0.751585 0.982996 0.124209
H26   H     H_    0.939196 0.289685 0.074106 0.125223

loop_
_geom_bond_atom_site_label_1
_geom_bond_atom_site_label_2
_ccdc_geom_bond_type
C44   C49   A    
N5    N9    A    
C5    C42   S    
C63   C65   A    
N11   Ni1   S    
C34   C37   A    
C6    C58   A    
C3    C23   A    
C33   I5    S    
C7    C55   A    
C15   H14   S    
C62   N14   A    
C8    C56   A    
C22   I2    S    
C57   H21   S    
C61   H9    S    
C35   C37   A    
C9    H3    S    
N1    N15   A    
C29   C32   T    
C2    H2    S    
C30   C31   T    
C4    C24   A    
N16   Ni4   S    
C10   C17   S    
C4    C62   A    
N4    N14   A    
C45   H7    S    
C59   N11   A    
N8    Ni3   S    
C24   N4    A    
N7    Ni4   S    
C11   H11   S    
C1    H1    S    
C28   H15   S    
C49   H6    S    
C24   H18   S    
C1    C65   A    
C60   H24   S    
N2    Ni2   S    
C53   C65   S    
C18   C20   S    
C48   C50   A    
N10   Ni1   S    
C59   H23   S    
C58   H22   S    
C62   H10   S    
C45   N5    A    
C7    C59   A    
N14   Ni3   S    
C39   C42   T    
C3    C61   A    
C25   C29   S    
C13   C19   T    
C14   C20   T    
C36   C40   S    
C47   C49   A    
N8    N12   A    
N3    Ni2   S    
N7    N11   A    
C47   C51   S    
C55   H19   S    
C5    C45   A    
C6    C41   S    
C57   N9    A    
C12   H12   S    
N3    N13   A    
C55   N7    A    
C35   C39   S    
C50   H5    S    
N1    Ni1   S    
C63   H25   S    
C11   C16   S    
C56   N8    A    
C12   C15   S    
C7    C13   S    
N9    Ni2   S    
C16   H13   S    
C3    C31   S    
C9    C11   S    
C4    C32   S    
C10   C12   S    
C46   N6    A    
C10   H4    S    
C40   C41   T    
C21   C28   A    
C26   C30   S    
C22   C27   A    
N5    Ni3   S    
C1    N1    A    
N2    N16   A    
N15   Ni3   S    
C46   H8    S    
C52   C53   T    
C15   C17   S    
C21   C25   A    
C11   C17   S    
C8    C14   S    
N4    Ni1   S    
C6    C46   A    
C23   N3    A    
N6    N10   A    
C2    C66   A    
C58   N10   A    
C43   C50   A    
N12   Ni2   S    
C54   C66   S    
C60   N12   A    
C25   C27   A    
C23   H17   S    
C63   N15   A    
C27   H16   S    
C26   C28   A    
C33   C38   A    
C64   H26   S    
C5    C57   A    
C51   C54   T    
C34   I6    S    
C38   I3    S    
C36   C38   A    
C9    C15   S    
N6    Ni4   S    
C37   I4    S    
C10   C16   S    
C8    C60   A    
C33   C35   A    
C17   C19   S    
C34   C36   A    
N13   Ni4   S    
C2    N2    A    
C64   N16   A    
C21   I1    S    
C61   N13   A    
C9    C18   S    
C48   C52   S    
C16   C18   S    
C22   C26   A    
C12   C18   S    
C56   H20   S    
C43   I7    S    
C43   C47   A    
C44   C48   A    
C64   C66   A    
C44   I8    S    
