data_mof_unit_26310.cif
_audit_creation_date              2012-10-26T20:59:01-0400
_audit_creation_method            fapswitch 2.2
_symmetry_space_group_name_H-M    P1
_symmetry_Int_Tables_number       1
_space_group_crystal_system       triclinic
_cell_length_a                    27.790077
_cell_length_b                    10.667263
_cell_length_c                    9.502885
_cell_angle_alpha                 90.421764
_cell_angle_beta                  90.11839
_cell_angle_gamma                 89.515248
_cell_volume                      2816.8910113

loop_
_atom_site_label
_atom_site_type_symbol
_atom_type_description
_atom_site_fract_x
_atom_site_fract_y
_atom_site_fract_z
_atom_type_partial_charge
C1    C     C_R   0.499808 0.260050 0.498921 0.602529
C2    C     C_R   0.873362 0.384624 0.520788 -0.002283
C3    C     C_R   0.354572 0.501967 0.498140 0.026915
C4    C     C_R   0.645454 0.501469 0.502361 0.006012
C5    C     C_R   0.975704 0.387529 0.514365 -0.009062
C6    C     C_R   0.024343 0.622248 0.494689 -0.009038
C7    C     C_R   0.973695 0.618469 0.515904 0.047541
C8    C     C_R   0.026257 0.391274 0.491930 0.047455
C9    C     C_R   0.949390 0.501629 0.515936 -0.001053
C10   C     C_R   0.050609 0.508005 0.492271 -0.001551
C11   C     C_R   0.950547 0.275096 0.544588 0.236418
C12   C     C_R   0.500166 0.739944 0.501082 0.602782
C13   C     C_R   0.049677 0.734803 0.466055 0.237763
C14   C     C_R   0.900042 0.271759 0.536412 0.289679
C15   C     C_R   0.100161 0.737800 0.475512 0.292056
C16   C     C_R   0.407619 0.500384 0.499729 0.590382
C17   C     C_R   0.592391 0.500362 0.500329 0.586028
C18   C     C_R   0.052981 0.282628 0.456726 -0.053775
C19   C     C_R   0.946745 0.727185 0.549308 -0.055904
C20   C     C_3   0.538519 0.043565 0.568633 0.215475
C21   C     C_3   0.461412 0.956398 0.431403 0.217036
C22   C     C_3   0.540046 0.956071 0.438779 0.185906
C23   C     C_R   0.101639 0.509747 0.485166 -0.065689
C24   C     C_3   0.459886 0.043905 0.561251 0.187866
C25   C     C_3   0.500180 0.876367 0.504303 -0.067606
C26   C     C_3   0.499756 0.123613 0.495717 -0.067867
C27   C     C_3   0.498655 0.963415 0.634514 -0.053902
C28   C     C_3   0.501274 0.036549 0.365512 -0.054424
C29   C     C_3   0.505509 0.611168 0.049376 0.063935
C30   C     C_3   0.494468 0.388851 0.950610 0.064404
C31   C     C_3   0.465656 0.568690 0.950413 0.266113
C32   C     C_3   0.534324 0.431293 0.049544 0.271467
C33   C     C_3   0.540299 0.542734 0.949230 0.010144
C34   C     C_R   0.898346 0.499629 0.522226 -0.068879
C35   C     C_3   0.459696 0.457266 0.050769 0.002675
C36   C     C_R   0.177865 0.397120 0.475424 0.481518
C37   C     C_R   0.822045 0.612095 0.525636 0.431509
C38   C     C_R   0.177628 0.620099 0.497684 0.505217
C39   C     C_R   0.822431 0.388662 0.511978 0.456081
C40   C     C_R   0.279503 0.516072 0.365841 0.039106
C41   C     C_R   0.722097 0.494579 0.378132 0.051524
C42   C     C_R   0.329777 0.513861 0.370373 -0.132716
C43   C     C_R   0.671707 0.494458 0.376853 -0.118239
C44   C     C_R   0.328552 0.492122 0.623523 -0.115788
C45   C     C_R   0.127574 0.395897 0.473009 0.046375
C46   C     C_R   0.670080 0.509609 0.630931 -0.064996
C47   C     C_R   0.278174 0.494327 0.623104 0.036738
C48   C     C_R   0.720429 0.510148 0.635590 0.044797
C49   C     C_R   0.253310 0.506283 0.493205 0.249223
C50   C     C_R   0.746682 0.502254 0.508666 0.205135
C51   C     C_2   0.496382 0.926005 0.785511 0.350198
C52   C     C_2   0.503528 0.073829 0.214477 0.349661
C53   C     C_2   0.512238 0.741965 0.101169 0.336538
C54   C     C_2   0.487713 0.258068 0.898793 0.336037
C55   C     C_2   0.253419 0.483828 0.761089 0.319442
C56   C     C_R   0.872301 0.613501 0.530953 0.036169
C57   C     C_2   0.745477 0.518329 0.773490 0.316433
C58   C     C_2   0.747232 0.486052 0.240628 0.337369
C59   C     C_2   0.256336 0.528707 0.225254 0.313910
C60   C     C_R   0.102818 0.283848 0.452742 -0.052038
C61   C     C_R   0.896889 0.725864 0.550691 -0.055567
C62   C     C_R   0.126713 0.624559 0.489102 0.007030
Cl1   Cl    Cl    0.590697 0.104670 0.653936 -0.415783
Cl2   Cl    Cl    0.405330 0.102824 0.635802 -0.411389
Cl3   Cl    Cl    0.409238 0.895196 0.346148 -0.427376
Cl4   Cl    Cl    0.416968 0.660424 0.884153 -0.574447
Cl5   Cl    Cl    0.582775 0.338629 0.115479 -0.560313
Cl6   Cl    Cl    0.871940 0.124393 0.558508 -0.374405
Cl7   Cl    Cl    0.128481 0.885189 0.455983 -0.365034
Cl8   Cl    Cl    0.979516 0.145767 0.627193 -0.460960
Cl9   Cl    Cl    0.021187 0.864701 0.383183 -0.458323
Cl10  Cl    Cl    0.594604 0.897166 0.364234 -0.399453
Cu1   Cu    Cu3+1 0.500010 0.499990 0.643150 1.083594
Cu2   Cu    Cu3+1 0.499990 0.500010 0.356850 1.082718
H1    H     H_    0.347571 0.482324 0.722568 0.173639
H2    H     H_    0.963685 0.814021 0.579120 0.218534
H3    H     H_    0.464698 0.880139 0.825074 0.193757
H4    H     H_    0.535288 0.119171 0.174698 0.194054
H5    H     H_    0.482058 0.793836 0.144850 0.182599
H6    H     H_    0.517884 0.206158 0.855119 0.184562
H7    H     H_    0.274631 0.473536 0.856452 0.116770
H8    H     H_    0.784334 0.510004 0.780009 0.134693
H9    H     H_    0.726616 0.466856 0.146034 0.172405
H10   H     H_    0.278656 0.536763 0.132158 0.115798
H11   H     H_    0.649990 0.515240 0.728376 0.188199
H12   H     H_    0.574128 0.578911 0.903389 0.169526
H13   H     H_    0.425860 0.421145 0.096645 0.159436
H14   H     H_    0.121825 0.196631 0.431719 0.223309
H15   H     H_    0.877722 0.813200 0.569705 0.224110
H16   H     H_    0.652915 0.489239 0.277066 0.186930
H17   H     H_    0.349712 0.521814 0.272940 0.139624
H18   H     H_    0.035804 0.195998 0.427215 0.218547
N1    N     N_R   0.201632 0.507772 0.490271 -0.359085
N2    N     N_R   0.798376 0.501067 0.513468 -0.405584
N3    N     N_3   0.500040 0.499970 0.858290 -0.287059
N4    N     N_3   0.499960 0.500030 0.141710 -0.286774
O1    O     O_R   0.500020 0.316850 0.620870 -0.490825
O2    O     O_2   0.796853 0.720755 0.531717 -0.410479
O3    O     O_2   0.796745 0.282508 0.500632 -0.361945
O4    O     O_2   0.203352 0.725700 0.514176 -0.357290
O5    O     O_2   0.529645 0.949283 0.865040 -0.400463
O6    O     O_2   0.470171 0.050950 0.135142 -0.402240
O7    O     O_2   0.551492 0.791370 0.092156 -0.396300
O8    O     O_2   0.448447 0.208720 0.907776 -0.404477
O9    O     O_2   0.209663 0.486639 0.771413 -0.438615
O10   O     O_2   0.722934 0.535160 0.882204 -0.479947
O11   O     O_2   0.790547 0.501184 0.229991 -0.434558
O12   O     O_R   0.499980 0.683150 0.379130 -0.491222
O13   O     O_2   0.212723 0.530245 0.210204 -0.441821
O14   O     O_R   0.500000 0.316860 0.379090 -0.486203
O15   O     O_R   0.500000 0.683140 0.620910 -0.485668
O16   O     O_R   0.430270 0.500020 0.620880 -0.448990
O17   O     O_R   0.569730 0.499980 0.379120 -0.446772
O18   O     O_R   0.430250 0.500030 0.379090 -0.517119
O19   O     O_R   0.569750 0.499970 0.620910 -0.518449
O20   O     O_2   0.202998 0.288689 0.463927 -0.413653

loop_
_geom_bond_atom_site_label_1
_geom_bond_atom_site_label_2
_ccdc_geom_bond_type
C31   Cl4   S    
C45   C60   A    
C34   C56   A    
C23   C45   A    
Cu1   Cu2   S    
C24   C27   S    
C60   H14   S    
C11   Cl8   S    
C17   O17   A    
C48   C57   S    
C47   C49   A    
C4    C46   A    
C35   N4    S    
Cu1   O1    S    
C30   C54   S    
C52   O6    D    
C29   C53   S    
C30   C35   S    
C55   O9    D    
C54   O8    D    
C19   H2    S    
C53   H5    S    
C24   C26   S    
C41   C58   S    
C58   O11   D    
C11   C14   A    
C40   C49   A    
Cu2   O18   S    
C29   C33   S    
C3    C42   A    
C42   H17   S    
C37   C56   A    
C35   H13   S    
C2    C39   A    
C23   C62   A    
C61   H15   S    
C22   C25   S    
C55   H7    S    
C44   C47   A    
C46   H11   S    
C2    C34   A    
C40   C42   A    
C57   O10   D    
C24   Cl2   S    
C40   C59   S    
C22   C28   S    
C53   O7    D    
C41   C43   A    
C52   H4    S    
C33   N3    S    
C22   Cl10  S    
C37   O2    S    
C27   C51   S    
Cu1   O15   S    
C54   H6    S    
C15   Cl7   S    
C46   C48   A    
C3    C44   A    
C43   H16   S    
Cu2   N4    S    
C59   H10   S    
C38   O4    S    
C1    O1    A    
C12   O12   A    
C50   N2    S    
C13   Cl9   S    
Cu2   O17   S    
C8    C18   A    
C44   H1    S    
C33   H12   S    
C51   H3    S    
C39   N2    A    
C5    C9    A    
C30   N3    S    
C1    O14   A    
C5    C8    A    
C39   O3    S    
C16   O16   A    
C36   C45   A    
C56   C61   A    
C32   Cl5   S    
C4    C17   S    
C18   C60   A    
C4    C43   A    
C21   C28   S    
C20   C22   S    
C7    C19   A    
C13   C15   A    
C9    C34   A    
C31   C35   S    
C51   O5    D    
Cu1   N3    S    
C36   O20   S    
C41   C50   A    
C17   O19   A    
Cu1   O16   S    
C47   C55   S    
C7    C9    A    
C21   C25   S    
C21   Cl3   S    
C36   N1    A    
C16   O18   A    
C6    C10   A    
C29   N4    S    
C5    C11   A    
C6    C7    A    
C20   C27   S    
C10   C23   A    
C25   C27   S    
C26   C28   S    
Cu1   O19   S    
C12   C25   S    
C18   H18   S    
C32   C33   S    
C20   Cl1   S    
C29   C31   S    
C58   H9    S    
C6    C13   A    
C30   C32   S    
C32   N4    S    
C28   C52   S    
C1    C26   S    
C20   C26   S    
C19   C61   A    
C31   N3    S    
C38   N1    A    
C48   C50   A    
C59   O13   D    
C15   C62   A    
C37   N2    A    
C2    C14   A    
Cu2   O12   S    
C8    C10   A    
C21   C24   S    
C14   Cl6   S    
C57   H8    S    
C49   N1    S    
Cu2   O14   S    
C12   O15   A    
C3    C16   S    
C38   C62   A    
